(PID.TID 0000.0001) 
(PID.TID 0000.0001) // ======================================================
(PID.TID 0000.0001) //                      MITgcm UV
(PID.TID 0000.0001) //                      =========
(PID.TID 0000.0001) // ======================================================
(PID.TID 0000.0001) // execution environment starting up...
(PID.TID 0000.0001) 
(PID.TID 0000.0001) // MITgcmUV version:  checkpoint68a
(PID.TID 0000.0001) // Build user:        jm_c
(PID.TID 0000.0001) // Build host:        villon
(PID.TID 0000.0001) // Build date:        Wed Aug 18 23:05:27 EDT 2021
(PID.TID 0000.0001) 
(PID.TID 0000.0001) // =======================================================
(PID.TID 0000.0001) // Execution Environment parameter file "eedata"
(PID.TID 0000.0001) // =======================================================
(PID.TID 0000.0001) ># Example "eedata" file
(PID.TID 0000.0001) ># Lines beginning "#" are comments
(PID.TID 0000.0001) ># nTx - No. threads per process in X
(PID.TID 0000.0001) ># nTy - No. threads per process in Y
(PID.TID 0000.0001) > &EEPARMS
(PID.TID 0000.0001) > /
(PID.TID 0000.0001) ># Note: Some systems use & as the
(PID.TID 0000.0001) ># namelist terminator. Other systems
(PID.TID 0000.0001) ># use a / character (as shown here).
(PID.TID 0000.0001) 
(PID.TID 0000.0001) // =======================================================
(PID.TID 0000.0001) // Computational Grid Specification ( see files "SIZE.h" )
(PID.TID 0000.0001) //                                  ( and "eedata"       )
(PID.TID 0000.0001) // =======================================================
(PID.TID 0000.0001)      nPx =    1 ; /* No. processes in X */
(PID.TID 0000.0001)      nPy =    1 ; /* No. processes in Y */
(PID.TID 0000.0001)      nSx =    1 ; /* No. tiles in X per process */
(PID.TID 0000.0001)      nSy =    1 ; /* No. tiles in Y per process */
(PID.TID 0000.0001)      sNx =    5 ; /* Tile size in X */
(PID.TID 0000.0001)      sNy =    5 ; /* Tile size in Y */
(PID.TID 0000.0001)      OLx =    2 ; /* Tile overlap distance in X */
(PID.TID 0000.0001)      OLy =    2 ; /* Tile overlap distance in Y */
(PID.TID 0000.0001)      nTx =    1 ; /* No. threads in X per process */
(PID.TID 0000.0001)      nTy =    1 ; /* No. threads in Y per process */
(PID.TID 0000.0001)       Nr =    4 ; /* No. levels in the vertical   */
(PID.TID 0000.0001)       Nx =    5 ; /* Total domain size in X ( = nPx*nSx*sNx ) */
(PID.TID 0000.0001)       Ny =    5 ; /* Total domain size in Y ( = nPy*nSy*sNy ) */
(PID.TID 0000.0001)   nTiles =    1 ; /* Total no. tiles per process ( = nSx*nSy ) */
(PID.TID 0000.0001)   nProcs =    1 ; /* Total no. processes ( = nPx*nPy ) */
(PID.TID 0000.0001) nThreads =    1 ; /* Total no. threads per process ( = nTx*nTy ) */
(PID.TID 0000.0001) usingMPI =    F ; /* Flag used to control whether MPI is in use */
(PID.TID 0000.0001)                   /*  note: To execute a program with MPI calls */
(PID.TID 0000.0001)                   /*  it must be launched appropriately e.g     */
(PID.TID 0000.0001)                   /*  "mpirun -np 64 ......"                    */
(PID.TID 0000.0001) useCoupler=   F ; /* Flag used to control communications with   */
(PID.TID 0000.0001)                   /*  other model components, through a coupler */
(PID.TID 0000.0001) useNest2W_parent =    F ;/* Control 2-W Nesting comm */
(PID.TID 0000.0001) useNest2W_child  =    F ;/* Control 2-W Nesting comm */
(PID.TID 0000.0001) debugMode =    F ; /* print debug msg. (sequence of S/R calls)  */
(PID.TID 0000.0001) printMapIncludesZeros=    F ; /* print zeros in Std.Output maps */
(PID.TID 0000.0001) maxLengthPrt1D=   65 /* maxLength of 1D array printed to StdOut */
(PID.TID 0000.0001) 
(PID.TID 0000.0001) // ======================================================
(PID.TID 0000.0001) // Mapping of tiles to threads
(PID.TID 0000.0001) // ======================================================
(PID.TID 0000.0001) // -o- Thread   1, tiles (   1:   1,   1:   1)
(PID.TID 0000.0001) 
(PID.TID 0000.0001) // ======================================================
(PID.TID 0000.0001) // Tile <-> Tile connectvity table
(PID.TID 0000.0001) // ======================================================
(PID.TID 0000.0001) // Tile number: 000001 (process no. = 000000)
(PID.TID 0000.0001) //        WEST: Tile = 000001, Process = 000000, Comm = put
(PID.TID 0000.0001) //                bi = 000001, bj = 000001
(PID.TID 0000.0001) //        EAST: Tile = 000001, Process = 000000, Comm = put
(PID.TID 0000.0001) //                bi = 000001, bj = 000001
(PID.TID 0000.0001) //       SOUTH: Tile = 000001, Process = 000000, Comm = put
(PID.TID 0000.0001) //                bi = 000001, bj = 000001
(PID.TID 0000.0001) //       NORTH: Tile = 000001, Process = 000000, Comm = put
(PID.TID 0000.0001) //                bi = 000001, bj = 000001
(PID.TID 0000.0001) 
(PID.TID 0000.0001)  INI_PARMS: opening model parameter file "data"
(PID.TID 0000.0001)  OPEN_COPY_DATA_FILE: opening file data
(PID.TID 0000.0001) // =======================================================
(PID.TID 0000.0001) // Parameter file "data"
(PID.TID 0000.0001) // =======================================================
(PID.TID 0000.0001) ># Model parameters
(PID.TID 0000.0001) ># Continuous equation parameters
(PID.TID 0000.0001) > &PARM01
(PID.TID 0000.0001) > tRef=4.,4.,4.,4.,
(PID.TID 0000.0001) > sRef=35.,35.,35.,35.,
(PID.TID 0000.0001) > viscAz=1.E-1,
(PID.TID 0000.0001) > viscAh=1.E5,
(PID.TID 0000.0001) ># viscA4=1.E16,
(PID.TID 0000.0001) ># useJamartWetPoints=.TRUE.,
(PID.TID 0000.0001) > no_slip_sides=.FALSE.,
(PID.TID 0000.0001) > no_slip_bottom=.TRUE.,
(PID.TID 0000.0001) > diffKhT=4.E2,
(PID.TID 0000.0001) > diffKzT=1.E-4,
(PID.TID 0000.0001) > diffKhS=0.0,
(PID.TID 0000.0001) > diffKzS=3.E-5,
(PID.TID 0000.0001) > f0=-1.1914E-04,
(PID.TID 0000.0001) > beta=1.3094E-11,
(PID.TID 0000.0001) > tAlpha=2.E-4,
(PID.TID 0000.0001) ># sBeta =7.4E-4,
(PID.TID 0000.0001) > sBeta = 0.,
(PID.TID 0000.0001) > gravity=9.81,
(PID.TID 0000.0001) > gBaro=9.81,
(PID.TID 0000.0001) > rigidLid=.FALSE.,
(PID.TID 0000.0001) > implicitFreeSurface=.TRUE.,
(PID.TID 0000.0001) > eosType='LINEAR',
(PID.TID 0000.0001) > writeStatePrec=64,
(PID.TID 0000.0001) > writeBinaryPrec=64,
(PID.TID 0000.0001) > readBinaryPrec=64,
(PID.TID 0000.0001) > hFacMin=.05,
(PID.TID 0000.0001) > smoothAbsFuncRange = -1.e-2,
(PID.TID 0000.0001) > nonlinFreeSurf=0,
(PID.TID 0000.0001) > exactConserv=.FALSE.,
(PID.TID 0000.0001) >#momAdvection = .false.,
(PID.TID 0000.0001) >#momViscosity = .false.,
(PID.TID 0000.0001) >#momPressureForcing = .false.,
(PID.TID 0000.0001) > /
(PID.TID 0000.0001) >
(PID.TID 0000.0001) ># Elliptic solver parameters
(PID.TID 0000.0001) > &PARM02
(PID.TID 0000.0001) > cg2dMaxIters=100,
(PID.TID 0000.0001) > cg2dMinItersNSA = 10,
(PID.TID 0000.0001) >#cg2dTargetResidual=1.E-13,
(PID.TID 0000.0001) > cg2dTargetResWunit=1.E-18,
(PID.TID 0000.0001) > useNSACGSolver = .TRUE.,
(PID.TID 0000.0001) > /
(PID.TID 0000.0001) ># Time stepping parameters
(PID.TID 0000.0001) > &PARM03
(PID.TID 0000.0001) > nIter0=0,
(PID.TID 0000.0001) > nTimeSteps=100,
(PID.TID 0000.0001) >#startTime = 0.,
(PID.TID 0000.0001) >#endTime = 7776000,
(PID.TID 0000.0001) > deltaTmom=3600.0,
(PID.TID 0000.0001) > deltaTtracer=3600.0,
(PID.TID 0000.0001) > abEps=0.1,
(PID.TID 0000.0001) > pChkptFreq= 7776000.0,
(PID.TID 0000.0001) > chkptFreq=  0.0,
(PID.TID 0000.0001) >#dumpFreq=   1.0,
(PID.TID 0000.0001) > monitorFreq = 43200.,
(PID.TID 0000.0001) > ADJdumpFreq=   1.0,
(PID.TID 0000.0001) > monitorSelect=1,
(PID.TID 0000.0001) > /
(PID.TID 0000.0001) ># Gridding parameters
(PID.TID 0000.0001) > &PARM04
(PID.TID 0000.0001) > usingCartesianGrid=.TRUE.,
(PID.TID 0000.0001) > usingSphericalPolarGrid=.FALSE.,
(PID.TID 0000.0001) > delX=5*200.E3,
(PID.TID 0000.0001) > delY=5*200.E3,
(PID.TID 0000.0001) ># 1 layer
(PID.TID 0000.0001) >#delZ=5001.,500.,500.,500.,
(PID.TID 0000.0001) ># 2 layers
(PID.TID 0000.0001) >#delZ=1000.,5000.,500.,5000.,
(PID.TID 0000.0001) ># 4 layers
(PID.TID 0000.0001) > delZ=100.,400.,500.,5000.,
(PID.TID 0000.0001) >#delZ=1000.,1500.,1500.,1500.,
(PID.TID 0000.0001) > /
(PID.TID 0000.0001) > &PARM05
(PID.TID 0000.0001) >#bathyFile='walls.bigRidge',
(PID.TID 0000.0001) > bathyFile='noWalls.bigRidge',
(PID.TID 0000.0001) >#bathyFile='box.bigRidge',
(PID.TID 0000.0001) >#bathyFile='meridchannel.bigRidge',
(PID.TID 0000.0001) > hydrogThetaFile=,
(PID.TID 0000.0001) > hydrogSaltFile=,
(PID.TID 0000.0001) > zonalWindFile='windx.sin_y',
(PID.TID 0000.0001) > meridWindFile=,
(PID.TID 0000.0001) > surfQnetFile=,
(PID.TID 0000.0001) > EmPmRFile=,
(PID.TID 0000.0001) > /
(PID.TID 0000.0001) 
(PID.TID 0000.0001)  INI_PARMS ; starts to read PARM01
(PID.TID 0000.0001)  INI_PARMS ; read PARM01 : OK
(PID.TID 0000.0001)  INI_PARMS ; starts to read PARM02
(PID.TID 0000.0001)  INI_PARMS ; read PARM02 : OK
(PID.TID 0000.0001)  INI_PARMS ; starts to read PARM03
(PID.TID 0000.0001)  INI_PARMS ; read PARM03 : OK
(PID.TID 0000.0001)  INI_PARMS ; starts to read PARM04
(PID.TID 0000.0001)  INI_PARMS ; read PARM04 : OK
(PID.TID 0000.0001)  INI_PARMS ; starts to read PARM05
(PID.TID 0000.0001)  INI_PARMS ; read PARM05 : OK
(PID.TID 0000.0001)  INI_PARMS: finished reading file "data"
(PID.TID 0000.0001)  PACKAGES_BOOT: opening data.pkg
(PID.TID 0000.0001)  OPEN_COPY_DATA_FILE: opening file data.pkg
(PID.TID 0000.0001) // =======================================================
(PID.TID 0000.0001) // Parameter file "data.pkg"
(PID.TID 0000.0001) // =======================================================
(PID.TID 0000.0001) ># ********
(PID.TID 0000.0001) ># Packages
(PID.TID 0000.0001) ># ********
(PID.TID 0000.0001) > &PACKAGES
(PID.TID 0000.0001) > useGrdchk = .TRUE.,
(PID.TID 0000.0001) > /
(PID.TID 0000.0001) 
(PID.TID 0000.0001)  PACKAGES_BOOT: finished reading data.pkg
(PID.TID 0000.0001)  PACKAGES_BOOT: On/Off package Summary
 --------  pkgs with a standard "usePKG" On/Off switch in "data.pkg":  --------
 pkg/autodiff             compiled   and   used ( useAUTODIFF              = T )
 pkg/grdchk               compiled   and   used ( useGrdchk                = T )
 pkg/ctrl                 compiled   and   used ( useCTRL                  = T )
 -------- pkgs without standard "usePKG" On/Off switch in "data.pkg":  --------
 pkg/generic_advdiff      compiled   and   used ( useGAD                   = T )
 pkg/mom_common           compiled   and   used ( momStepping              = T )
 pkg/mom_vecinv           compiled but not used ( +vectorInvariantMomentum = F )
 pkg/mom_fluxform         compiled   and   used ( & not vectorInvariantMom = T )
 pkg/cd_code              compiled but not used ( useCDscheme              = F )
 pkg/monitor              compiled   and   used ( monitorFreq > 0.         = T )
 pkg/debug                compiled but not used ( debugMode                = F )
 pkg/rw                   compiled   and   used
 pkg/mdsio                compiled   and   used
 pkg/autodiff             compiled   and   used
 pkg/cost                 compiled   and   used
(PID.TID 0000.0001)  PACKAGES_BOOT: End of package Summary
(PID.TID 0000.0001) 
(PID.TID 0000.0001) AUTODIFF_READPARMS: opening data.autodiff
(PID.TID 0000.0001)  OPEN_COPY_DATA_FILE: opening file data.autodiff
(PID.TID 0000.0001) // =======================================================
(PID.TID 0000.0001) // Parameter file "data.autodiff"
(PID.TID 0000.0001) // =======================================================
(PID.TID 0000.0001) ># =========================
(PID.TID 0000.0001) ># pkg AUTODIFF parameters :
(PID.TID 0000.0001) ># =========================
(PID.TID 0000.0001) >#  inAdExact :: get an exact adjoint (no approximation) (def=.True.)
(PID.TID 0000.0001) >#
(PID.TID 0000.0001) > &AUTODIFF_PARM01
(PID.TID 0000.0001) ># inAdExact = .FALSE.,
(PID.TID 0000.0001) > cg2dFullAdjoint = .FALSE.,
(PID.TID 0000.0001) > /
(PID.TID 0000.0001) 
(PID.TID 0000.0001) AUTODIFF_READPARMS: finished reading data.autodiff
(PID.TID 0000.0001) // ===================================
(PID.TID 0000.0001) // AUTODIFF parameters :
(PID.TID 0000.0001) // ===================================
(PID.TID 0000.0001) inAdExact = /* get an exact adjoint (no approximation) */
(PID.TID 0000.0001)                   T
(PID.TID 0000.0001)     ;
(PID.TID 0000.0001) useApproxAdvectionInAdMode = /* approximate AD-advection */
(PID.TID 0000.0001)                   F
(PID.TID 0000.0001)     ;
(PID.TID 0000.0001) cg2dFullAdjoint = /* use full hand written cg2d adjoint (no approximation) */
(PID.TID 0000.0001)                   F
(PID.TID 0000.0001)     ;
(PID.TID 0000.0001) useKPPinAdMode = /* use KPP in adjoint mode */
(PID.TID 0000.0001)                   F
(PID.TID 0000.0001)     ;
(PID.TID 0000.0001) useGMRediInAdMode = /* use GMRedi in adjoint mode */
(PID.TID 0000.0001)                   F
(PID.TID 0000.0001)     ;
(PID.TID 0000.0001) useSEAICEinAdMode = /* use SEAICE in adjoint mode */
(PID.TID 0000.0001)                   F
(PID.TID 0000.0001)     ;
(PID.TID 0000.0001) useGGL90inAdMode = /* use GGL90 in adjoint mode */
(PID.TID 0000.0001)                   F
(PID.TID 0000.0001)     ;
(PID.TID 0000.0001) useSALT_PLUMEinAdMode = /* use SALT_PLUME in adjoint mode */
(PID.TID 0000.0001)                   F
(PID.TID 0000.0001)     ;
(PID.TID 0000.0001) dumpAdVarExch = /* control adexch before dumpinp */
(PID.TID 0000.0001)                       2
(PID.TID 0000.0001)     ;
(PID.TID 0000.0001) mon_AdVarExch = /* control adexch before monitor */
(PID.TID 0000.0001)                       2
(PID.TID 0000.0001)     ;
(PID.TID 0000.0001) viscFacInFw = /* viscosity factor for forward model */
(PID.TID 0000.0001)                 1.000000000000000E+00
(PID.TID 0000.0001)     ;
(PID.TID 0000.0001) viscFacInAd = /* viscosity factor for adjoint */
(PID.TID 0000.0001)                 1.000000000000000E+00
(PID.TID 0000.0001)     ;
(PID.TID 0000.0001) SIregFacInAd = /* sea ice factor for adjoint model */
(PID.TID 0000.0001)                 1.234567000000000E+05
(PID.TID 0000.0001)     ;
(PID.TID 0000.0001) SIregFacInFw = /* sea ice factor for forward model */
(PID.TID 0000.0001)                 1.234567000000000E+05
(PID.TID 0000.0001)     ;
(PID.TID 0000.0001) 
(PID.TID 0000.0001) OPTIM_READPARMS: opening data.optim
(PID.TID 0000.0001)  OPEN_COPY_DATA_FILE: opening file data.optim
(PID.TID 0000.0001) // =======================================================
(PID.TID 0000.0001) // Parameter file "data.optim"
(PID.TID 0000.0001) // =======================================================
(PID.TID 0000.0001) >#
(PID.TID 0000.0001) ># ********************************
(PID.TID 0000.0001) ># Off-line optimization parameters
(PID.TID 0000.0001) ># ********************************
(PID.TID 0000.0001) > &OPTIM
(PID.TID 0000.0001) > optimcycle=0,
(PID.TID 0000.0001) > /
(PID.TID 0000.0001) 
(PID.TID 0000.0001) OPTIM_READPARMS: finished reading data.optim
(PID.TID 0000.0001) CTRL_READPARMS: opening data.ctrl
(PID.TID 0000.0001)  OPEN_COPY_DATA_FILE: opening file data.ctrl
(PID.TID 0000.0001) // =======================================================
(PID.TID 0000.0001) // Parameter file "data.ctrl"
(PID.TID 0000.0001) // =======================================================
(PID.TID 0000.0001) >#
(PID.TID 0000.0001) >#
(PID.TID 0000.0001) ># *********************
(PID.TID 0000.0001) ># ECCO controlvariables
(PID.TID 0000.0001) ># *********************
(PID.TID 0000.0001) > &CTRL_NML
(PID.TID 0000.0001) ># xx_theta_file      = 'xx_theta',
(PID.TID 0000.0001) ># xx_salt_file       = 'xx_salt',
(PID.TID 0000.0001) ># xx_tr1_file        = 'xx_tr1',
(PID.TID 0000.0001) ># xx_hflux_file      = 'xx_hflux',
(PID.TID 0000.0001) ># xx_sflux_file      = 'xx_sflux',
(PID.TID 0000.0001) ># xx_tauu_file       = 'xx_tauu',
(PID.TID 0000.0001) ># xx_tauv_file       = 'xx_tauv',
(PID.TID 0000.0001) ># xx_sst_file        = 'xx_sst',
(PID.TID 0000.0001) ># xx_sss_file        = 'xx_sss',
(PID.TID 0000.0001) ># xx_diffkr_file     = 'xx_diffkr',
(PID.TID 0000.0001) ># xx_kapgm_file      = 'xx_kapgm',
(PID.TID 0000.0001) >#xx_hfacc_file      = 'xx_hfacc',
(PID.TID 0000.0001) > xx_depth_file      = 'xx_depth',
(PID.TID 0000.0001) > /
(PID.TID 0000.0001) >#
(PID.TID 0000.0001) ># *********************
(PID.TID 0000.0001) ># names for ctrl_pack/unpack
(PID.TID 0000.0001) ># *********************
(PID.TID 0000.0001) > &CTRL_PACKNAMES
(PID.TID 0000.0001) > /
(PID.TID 0000.0001) >
(PID.TID 0000.0001) 
(PID.TID 0000.0001) CTRL_READPARMS: finished reading data.ctrl
(PID.TID 0000.0001) COST_READPARMS: opening data.cost
(PID.TID 0000.0001)  OPEN_COPY_DATA_FILE: opening file data.cost
(PID.TID 0000.0001) // =======================================================
(PID.TID 0000.0001) // Parameter file "data.cost"
(PID.TID 0000.0001) // =======================================================
(PID.TID 0000.0001) >#
(PID.TID 0000.0001) >#
(PID.TID 0000.0001) ># ******************
(PID.TID 0000.0001) ># ECCO cost function
(PID.TID 0000.0001) ># ******************
(PID.TID 0000.0001) > &COST_NML
(PID.TID 0000.0001) > mult_tracer  = 0.,
(PID.TID 0000.0001) > mult_test    = 1.,
(PID.TID 0000.0001) > mult_depth   = 1.,
(PID.TID 0000.0001) > /
(PID.TID 0000.0001) 
(PID.TID 0000.0001) COST_READPARMS: finished reading data.cost
(PID.TID 0000.0001) GRDCHK_READPARMS: opening data.grdchk
(PID.TID 0000.0001)  OPEN_COPY_DATA_FILE: opening file data.grdchk
(PID.TID 0000.0001) // =======================================================
(PID.TID 0000.0001) // Parameter file "data.grdchk"
(PID.TID 0000.0001) // =======================================================
(PID.TID 0000.0001) >
(PID.TID 0000.0001) ># *******************
(PID.TID 0000.0001) ># ECCO gradient check
(PID.TID 0000.0001) ># *******************
(PID.TID 0000.0001) > &GRDCHK_NML
(PID.TID 0000.0001) > grdchk_eps       = 1.d-04,
(PID.TID 0000.0001) > nbeg             = 1,
(PID.TID 0000.0001) > nstep            = 3,
(PID.TID 0000.0001) > nend             = 25,
(PID.TID 0000.0001) > grdchkvarindex   = 20,
(PID.TID 0000.0001) > /
(PID.TID 0000.0001) 
(PID.TID 0000.0001) GRDCHK_READPARMS: finished reading data.grdchk
(PID.TID 0000.0001) 
(PID.TID 0000.0001) // =======================================================
(PID.TID 0000.0001) // Gradient check configuration  >>> START <<<
(PID.TID 0000.0001) // =======================================================
(PID.TID 0000.0001) 
(PID.TID 0000.0001)   grdchkvarindex :                         20
(PID.TID 0000.0001)   eps:                              0.100E-03
(PID.TID 0000.0001)   First location:                           1
(PID.TID 0000.0001)   Last location:                           25
(PID.TID 0000.0001)   Increment:                                3
(PID.TID 0000.0001)   grdchkWhichProc:                          0
(PID.TID 0000.0001)   iLocTile =       1  ,    jLocTile =       1
(PID.TID 0000.0001) 
(PID.TID 0000.0001) // =======================================================
(PID.TID 0000.0001) // Gradient check configuration  >>> END <<<
(PID.TID 0000.0001) // =======================================================
(PID.TID 0000.0001) 
(PID.TID 0000.0001) SET_PARMS: done
(PID.TID 0000.0001) Enter INI_VERTICAL_GRID: setInterFDr=    T ; setCenterDr=    F
(PID.TID 0000.0001) %MON XC_max                       =   9.0000000000000E+05
(PID.TID 0000.0001) %MON XC_min                       =   1.0000000000000E+05
(PID.TID 0000.0001) %MON XC_mean                      =   5.0000000000000E+05
(PID.TID 0000.0001) %MON XC_sd                        =   2.8284271247462E+05
(PID.TID 0000.0001) %MON XG_max                       =   8.0000000000000E+05
(PID.TID 0000.0001) %MON XG_min                       =   0.0000000000000E+00
(PID.TID 0000.0001) %MON XG_mean                      =   4.0000000000000E+05
(PID.TID 0000.0001) %MON XG_sd                        =   2.8284271247462E+05
(PID.TID 0000.0001) %MON DXC_max                      =   2.0000000000000E+05
(PID.TID 0000.0001) %MON DXC_min                      =   2.0000000000000E+05
(PID.TID 0000.0001) %MON DXC_mean                     =   2.0000000000000E+05
(PID.TID 0000.0001) %MON DXC_sd                       =   0.0000000000000E+00
(PID.TID 0000.0001) %MON DXF_max                      =   2.0000000000000E+05
(PID.TID 0000.0001) %MON DXF_min                      =   2.0000000000000E+05
(PID.TID 0000.0001) %MON DXF_mean                     =   2.0000000000000E+05
(PID.TID 0000.0001) %MON DXF_sd                       =   0.0000000000000E+00
(PID.TID 0000.0001) %MON DXG_max                      =   2.0000000000000E+05
(PID.TID 0000.0001) %MON DXG_min                      =   2.0000000000000E+05
(PID.TID 0000.0001) %MON DXG_mean                     =   2.0000000000000E+05
(PID.TID 0000.0001) %MON DXG_sd                       =   0.0000000000000E+00
(PID.TID 0000.0001) %MON DXV_max                      =   2.0000000000000E+05
(PID.TID 0000.0001) %MON DXV_min                      =   2.0000000000000E+05
(PID.TID 0000.0001) %MON DXV_mean                     =   2.0000000000000E+05
(PID.TID 0000.0001) %MON DXV_sd                       =   0.0000000000000E+00
(PID.TID 0000.0001) %MON YC_max                       =   9.0000000000000E+05
(PID.TID 0000.0001) %MON YC_min                       =   1.0000000000000E+05
(PID.TID 0000.0001) %MON YC_mean                      =   5.0000000000000E+05
(PID.TID 0000.0001) %MON YC_sd                        =   2.8284271247462E+05
(PID.TID 0000.0001) %MON YG_max                       =   8.0000000000000E+05
(PID.TID 0000.0001) %MON YG_min                       =   0.0000000000000E+00
(PID.TID 0000.0001) %MON YG_mean                      =   4.0000000000000E+05
(PID.TID 0000.0001) %MON YG_sd                        =   2.8284271247462E+05
(PID.TID 0000.0001) %MON DYC_max                      =   2.0000000000000E+05
(PID.TID 0000.0001) %MON DYC_min                      =   2.0000000000000E+05
(PID.TID 0000.0001) %MON DYC_mean                     =   2.0000000000000E+05
(PID.TID 0000.0001) %MON DYC_sd                       =   0.0000000000000E+00
(PID.TID 0000.0001) %MON DYF_max                      =   2.0000000000000E+05
(PID.TID 0000.0001) %MON DYF_min                      =   2.0000000000000E+05
(PID.TID 0000.0001) %MON DYF_mean                     =   2.0000000000000E+05
(PID.TID 0000.0001) %MON DYF_sd                       =   0.0000000000000E+00
(PID.TID 0000.0001) %MON DYG_max                      =   2.0000000000000E+05
(PID.TID 0000.0001) %MON DYG_min                      =   2.0000000000000E+05
(PID.TID 0000.0001) %MON DYG_mean                     =   2.0000000000000E+05
(PID.TID 0000.0001) %MON DYG_sd                       =   0.0000000000000E+00
(PID.TID 0000.0001) %MON DYU_max                      =   2.0000000000000E+05
(PID.TID 0000.0001) %MON DYU_min                      =   2.0000000000000E+05
(PID.TID 0000.0001) %MON DYU_mean                     =   2.0000000000000E+05
(PID.TID 0000.0001) %MON DYU_sd                       =   0.0000000000000E+00
(PID.TID 0000.0001) %MON RA_max                       =   4.0000000000000E+10
(PID.TID 0000.0001) %MON RA_min                       =   4.0000000000000E+10
(PID.TID 0000.0001) %MON RA_mean                      =   4.0000000000000E+10
(PID.TID 0000.0001) %MON RA_sd                        =   0.0000000000000E+00
(PID.TID 0000.0001) %MON RAW_max                      =   4.0000000000000E+10
(PID.TID 0000.0001) %MON RAW_min                      =   4.0000000000000E+10
(PID.TID 0000.0001) %MON RAW_mean                     =   4.0000000000000E+10
(PID.TID 0000.0001) %MON RAW_sd                       =   0.0000000000000E+00
(PID.TID 0000.0001) %MON RAS_max                      =   4.0000000000000E+10
(PID.TID 0000.0001) %MON RAS_min                      =   4.0000000000000E+10
(PID.TID 0000.0001) %MON RAS_mean                     =   4.0000000000000E+10
(PID.TID 0000.0001) %MON RAS_sd                       =   0.0000000000000E+00
(PID.TID 0000.0001) %MON RAZ_max                      =   4.0000000000000E+10
(PID.TID 0000.0001) %MON RAZ_min                      =   4.0000000000000E+10
(PID.TID 0000.0001) %MON RAZ_mean                     =   4.0000000000000E+10
(PID.TID 0000.0001) %MON RAZ_sd                       =   0.0000000000000E+00
(PID.TID 0000.0001) %MON AngleCS_max                  =   1.0000000000000E+00
(PID.TID 0000.0001) %MON AngleCS_min                  =   1.0000000000000E+00
(PID.TID 0000.0001) %MON AngleCS_mean                 =   1.0000000000000E+00
(PID.TID 0000.0001) %MON AngleCS_sd                   =   0.0000000000000E+00
(PID.TID 0000.0001) %MON AngleSN_max                  =   0.0000000000000E+00
(PID.TID 0000.0001) %MON AngleSN_min                  =   0.0000000000000E+00
(PID.TID 0000.0001) %MON AngleSN_mean                 =   0.0000000000000E+00
(PID.TID 0000.0001) %MON AngleSN_sd                   =   0.0000000000000E+00
(PID.TID 0000.0001) GAD_INIT_FIXED: GAD_OlMinSize=  1  0  1
(PID.TID 0000.0001) 
(PID.TID 0000.0001) // ===================================
(PID.TID 0000.0001) // GAD parameters :
(PID.TID 0000.0001) // ===================================
(PID.TID 0000.0001) tempAdvScheme =   /* Temp. Horiz.Advection scheme selector */
(PID.TID 0000.0001)                       2
(PID.TID 0000.0001)     ;
(PID.TID 0000.0001) tempVertAdvScheme =   /* Temp. Vert. Advection scheme selector */
(PID.TID 0000.0001)                       2
(PID.TID 0000.0001)     ;
(PID.TID 0000.0001) tempMultiDimAdvec =   /* use Muti-Dim Advec method for Temp */
(PID.TID 0000.0001)                   F
(PID.TID 0000.0001)     ;
(PID.TID 0000.0001) tempSOM_Advection = /* use 2nd Order Moment Advection for Temp */
(PID.TID 0000.0001)                   F
(PID.TID 0000.0001)     ;
(PID.TID 0000.0001) AdamsBashforthGt = /* apply Adams-Bashforth extrapolation on Gt */
(PID.TID 0000.0001)                   T
(PID.TID 0000.0001)     ;
(PID.TID 0000.0001) AdamsBashforth_T = /* apply Adams-Bashforth extrapolation on Temp */
(PID.TID 0000.0001)                   F
(PID.TID 0000.0001)     ;
(PID.TID 0000.0001) saltAdvScheme =   /* Salt. Horiz.advection scheme selector */
(PID.TID 0000.0001)                       2
(PID.TID 0000.0001)     ;
(PID.TID 0000.0001) saltVertAdvScheme =   /* Salt. Vert. Advection scheme selector */
(PID.TID 0000.0001)                       2
(PID.TID 0000.0001)     ;
(PID.TID 0000.0001) saltMultiDimAdvec =   /* use Muti-Dim Advec method for Salt */
(PID.TID 0000.0001)                   F
(PID.TID 0000.0001)     ;
(PID.TID 0000.0001) saltSOM_Advection = /* use 2nd Order Moment Advection for Salt */
(PID.TID 0000.0001)                   F
(PID.TID 0000.0001)     ;
(PID.TID 0000.0001) AdamsBashforthGs = /* apply Adams-Bashforth extrapolation on Gs */
(PID.TID 0000.0001)                   T
(PID.TID 0000.0001)     ;
(PID.TID 0000.0001) AdamsBashforth_S = /* apply Adams-Bashforth extrapolation on Salt */
(PID.TID 0000.0001)                   F
(PID.TID 0000.0001)     ;
(PID.TID 0000.0001) // ===================================
(PID.TID 0000.0001) ctrl-wet 1:    nvarlength =           25
(PID.TID 0000.0001) ctrl-wet 2: surface wet C =           25
(PID.TID 0000.0001) ctrl-wet 3: surface wet W =           25
(PID.TID 0000.0001) ctrl-wet 4: surface wet S =           25
(PID.TID 0000.0001) ctrl-wet 4a:surface wet V =            0
(PID.TID 0000.0001) ctrl-wet 5: 3D wet points =          100
(PID.TID 0000.0001) ctrl-wet 6: no recs for i =     1           0
(PID.TID 0000.0001) ctrl-wet 6: no recs for i =     2           0
(PID.TID 0000.0001) ctrl-wet 6: no recs for i =     3           0
(PID.TID 0000.0001) ctrl-wet 6: no recs for i =     4           0
(PID.TID 0000.0001) ctrl-wet 6: no recs for i =     5           0
(PID.TID 0000.0001) ctrl-wet 6: no recs for i =     6           0
(PID.TID 0000.0001) ctrl-wet 6: no recs for i =     7           0
(PID.TID 0000.0001) ctrl-wet 6: no recs for i =     8           0
(PID.TID 0000.0001) ctrl-wet 6: no recs for i =     9           0
(PID.TID 0000.0001) ctrl-wet 6: no recs for i =    10           0
(PID.TID 0000.0001) ctrl-wet 6: no recs for i =    11           0
(PID.TID 0000.0001) ctrl-wet 6: no recs for i =    12           0
(PID.TID 0000.0001) ctrl-wet 6: no recs for i =    13           0
(PID.TID 0000.0001) ctrl-wet 6: no recs for i =    14           0
(PID.TID 0000.0001) ctrl-wet 6: no recs for i =    15           0
(PID.TID 0000.0001) ctrl-wet 6: no recs for i =    16           0
(PID.TID 0000.0001) ctrl-wet 6: no recs for i =    17           0
(PID.TID 0000.0001) ctrl-wet 6: no recs for i =    18           0
(PID.TID 0000.0001) ctrl-wet 6: no recs for i =    19           0
(PID.TID 0000.0001) ctrl-wet 6: no recs for i =    20           1
(PID.TID 0000.0001) ctrl-wet 6: no recs for i =    21           0
(PID.TID 0000.0001) ctrl-wet 6: no recs for i =    22           0
(PID.TID 0000.0001) ctrl-wet 6: no recs for i =    23           0
(PID.TID 0000.0001) ctrl-wet 6: no recs for i =    24           0
(PID.TID 0000.0001) ctrl-wet 6: no recs for i =    25           0
(PID.TID 0000.0001) ctrl-wet 6: no recs for i =    26           0
(PID.TID 0000.0001) ctrl-wet 6: no recs for i =    27           0
(PID.TID 0000.0001) ctrl-wet 6: no recs for i =    28           0
(PID.TID 0000.0001) ctrl-wet 6: no recs for i =    29           0
(PID.TID 0000.0001) ctrl-wet 6: no recs for i =    30           0
(PID.TID 0000.0001) ctrl-wet 6: no recs for i =    31           0
(PID.TID 0000.0001) ctrl-wet 6: no recs for i =    32           0
(PID.TID 0000.0001) ctrl-wet 6: no recs for i =    33           0
(PID.TID 0000.0001) ctrl-wet 6: no recs for i =    34           0
(PID.TID 0000.0001) ctrl-wet 6: no recs for i =    35           0
(PID.TID 0000.0001) ctrl-wet 6: no recs for i =    36           0
(PID.TID 0000.0001) ctrl-wet 6: no recs for i =    37           0
(PID.TID 0000.0001) ctrl-wet 6: no recs for i =    38           0
(PID.TID 0000.0001) ctrl-wet 6: no recs for i =    39           0
(PID.TID 0000.0001) ctrl-wet 6: no recs for i =    40           0
(PID.TID 0000.0001) ctrl-wet 6: no recs for i =    41           0
(PID.TID 0000.0001) ctrl-wet 6: no recs for i =    42           0
(PID.TID 0000.0001) ctrl-wet 6: no recs for i =    43           0
(PID.TID 0000.0001) ctrl-wet 6: no recs for i =    44           0
(PID.TID 0000.0001) ctrl-wet 6: no recs for i =    45           0
(PID.TID 0000.0001) ctrl-wet 6: no recs for i =    46           0
(PID.TID 0000.0001) ctrl-wet 6: no recs for i =    47           0
(PID.TID 0000.0001) ctrl-wet 6: no recs for i =    48           0
(PID.TID 0000.0001) ctrl-wet 6: no recs for i =    49           0
(PID.TID 0000.0001) ctrl-wet 6: no recs for i =    50           0
(PID.TID 0000.0001) ctrl-wet 6: no recs for i =    51           0
(PID.TID 0000.0001) ctrl-wet 6: no recs for i =    52           0
(PID.TID 0000.0001) ctrl-wet 6: no recs for i =    53           0
(PID.TID 0000.0001) ctrl-wet 6: no recs for i =    54           0
(PID.TID 0000.0001) ctrl-wet 6: no recs for i =    55           0
(PID.TID 0000.0001) ctrl-wet 6: no recs for i =    56           0
(PID.TID 0000.0001) ctrl-wet 6: no recs for i =    57           0
(PID.TID 0000.0001) ctrl-wet 6: no recs for i =    58           0
(PID.TID 0000.0001) ctrl-wet 6: no recs for i =    59           0
(PID.TID 0000.0001) ctrl-wet 6: no recs for i =    60           0
(PID.TID 0000.0001) ctrl-wet 7: flux           200
(PID.TID 0000.0001) ctrl-wet 8: atmos          200
(PID.TID 0000.0001) ctrl-wet -------------------------------------------------
(PID.TID 0000.0001) ctrl-wet 13: global nvarlength for Nr =    4          25
(PID.TID 0000.0001) ctrl-wet -------------------------------------------------
(PID.TID 0000.0001) ctrl-wet 14: global nWet C/S/W/V k=    1          25          25          25           0
(PID.TID 0000.0001) ctrl-wet 14: global nWet C/S/W/V k=    2          25          25          25           0
(PID.TID 0000.0001) ctrl-wet 14: global nWet C/S/W/V k=    3          25          25          25           0
(PID.TID 0000.0001) ctrl-wet 14: global nWet C/S/W/V k=    4          25          25          25           0
(PID.TID 0000.0001) ctrl-wet -------------------------------------------------
(PID.TID 0000.0001) ctrl-wet -------------------------------------------------
(PID.TID 0000.0001) ctrl-wet -------------------------------------------------
(PID.TID 0000.0001) ctrl_init_wet: no. of control variables:            1
(PID.TID 0000.0001) ctrl_init_wet: control vector length:              25
(PID.TID 0000.0001) 
(PID.TID 0000.0001) // =======================================================
(PID.TID 0000.0001) // control vector configuration  >>> START <<<
(PID.TID 0000.0001) // =======================================================
(PID.TID 0000.0001) 
(PID.TID 0000.0001)  Total number of ocean points per tile:
(PID.TID 0000.0001)  --------------------------------------
(PID.TID 0000.0001)  snx*sny*nr =      100
(PID.TID 0000.0001) 
(PID.TID 0000.0001)  Number of ocean points per tile:
(PID.TID 0000.0001)  --------------------------------
(PID.TID 0000.0001)  bi,bj,#(c/s/w): 0001 0001 000100 000100 000100
(PID.TID 0000.0001) 
(PID.TID 0000.0001) // =======================================================
(PID.TID 0000.0001) // control vector configuration  >>> END <<<
(PID.TID 0000.0001) // =======================================================
(PID.TID 0000.0001) 
(PID.TID 0000.0001) %MON fCori_max                    =  -1.0735540000000E-04
(PID.TID 0000.0001) %MON fCori_min                    =  -1.1783060000000E-04
(PID.TID 0000.0001) %MON fCori_mean                   =  -1.1259300000000E-04
(PID.TID 0000.0001) %MON fCori_sd                     =   3.7035424771427E-06
(PID.TID 0000.0001) %MON fCoriG_max                   =  -1.0866480000000E-04
(PID.TID 0000.0001) %MON fCoriG_min                   =  -1.1914000000000E-04
(PID.TID 0000.0001) %MON fCoriG_mean                  =  -1.1390240000000E-04
(PID.TID 0000.0001) %MON fCoriG_sd                    =   3.7035424771427E-06
(PID.TID 0000.0001) %MON fCoriCos_max                 =   0.0000000000000E+00
(PID.TID 0000.0001) %MON fCoriCos_min                 =   0.0000000000000E+00
(PID.TID 0000.0001) %MON fCoriCos_mean                =   0.0000000000000E+00
(PID.TID 0000.0001) %MON fCoriCos_sd                  =   0.0000000000000E+00
(PID.TID 0000.0001) INI_CG2D: CG2D normalisation factor =  1.9999999999999996E-04
(PID.TID 0000.0001) INI_CG2D: cg2dTolerance = 5.555555555555554E-14 (Area=1.0000000000E+12)
(PID.TID 0000.0001) 
(PID.TID 0000.0001) // =======================================================
(PID.TID 0000.0001) // Model configuration
(PID.TID 0000.0001) // =======================================================
(PID.TID 0000.0001) //
(PID.TID 0000.0001) // "Physical" paramters ( PARM01 in namelist )
(PID.TID 0000.0001) //
(PID.TID 0000.0001) buoyancyRelation = /* Type of relation to get Buoyancy */
(PID.TID 0000.0001)               'OCEANIC'
(PID.TID 0000.0001)     ;
(PID.TID 0000.0001) fluidIsAir   =  /* fluid major constituent is Air */
(PID.TID 0000.0001)                   F
(PID.TID 0000.0001)     ;
(PID.TID 0000.0001) fluidIsWater =  /* fluid major constituent is Water */
(PID.TID 0000.0001)                   T
(PID.TID 0000.0001)     ;
(PID.TID 0000.0001) usingPCoords =  /* use p (or p*) vertical coordinate */
(PID.TID 0000.0001)                   F
(PID.TID 0000.0001)     ;
(PID.TID 0000.0001) usingZCoords =  /* use z (or z*) vertical coordinate */
(PID.TID 0000.0001)                   T
(PID.TID 0000.0001)     ;
(PID.TID 0000.0001) tRef =   /* Reference temperature profile ( oC or K ) */
(PID.TID 0000.0001)     4 @  4.000000000000000E+00              /* K =  1:  4 */
(PID.TID 0000.0001)     ;
(PID.TID 0000.0001) sRef =   /* Reference salinity profile ( g/kg ) */
(PID.TID 0000.0001)     4 @  3.500000000000000E+01              /* K =  1:  4 */
(PID.TID 0000.0001)     ;
(PID.TID 0000.0001) useStrainTensionVisc= /* Use StrainTension Form of Viscous Operator */
(PID.TID 0000.0001)                   F
(PID.TID 0000.0001)     ;
(PID.TID 0000.0001) useVariableVisc = /* Use variable horizontal viscosity */
(PID.TID 0000.0001)                   F
(PID.TID 0000.0001)     ;
(PID.TID 0000.0001) useHarmonicVisc = /* Use harmonic horizontal viscosity */
(PID.TID 0000.0001)                   T
(PID.TID 0000.0001)     ;
(PID.TID 0000.0001) useBiharmonicVisc= /* Use biharmonic horiz.  viscosity */
(PID.TID 0000.0001)                   F
(PID.TID 0000.0001)     ;
(PID.TID 0000.0001) useSmag3D = /* Use isotropic 3-D Smagorinsky viscosity */
(PID.TID 0000.0001)                   F
(PID.TID 0000.0001)     ;
(PID.TID 0000.0001) viscAh  =   /* Lateral harmonic viscosity ( m^2/s ) */
(PID.TID 0000.0001)                 1.000000000000000E+05
(PID.TID 0000.0001)     ;
(PID.TID 0000.0001) viscA4  =   /* Lateral biharmonic viscosity ( m^4/s ) */
(PID.TID 0000.0001)                 0.000000000000000E+00
(PID.TID 0000.0001)     ;
(PID.TID 0000.0001) no_slip_sides =  /* Viscous BCs: No-slip sides */
(PID.TID 0000.0001)                   F
(PID.TID 0000.0001)     ;
(PID.TID 0000.0001) sideDragFactor = /* side-drag scaling factor (non-dim) */
(PID.TID 0000.0001)                 2.000000000000000E+00
(PID.TID 0000.0001)     ;
(PID.TID 0000.0001) viscArNr = /* vertical profile of vertical viscosity ( m^2/s )*/
(PID.TID 0000.0001)     4 @  1.000000000000000E-01              /* K =  1:  4 */
(PID.TID 0000.0001)     ;
(PID.TID 0000.0001) no_slip_bottom =  /* Viscous BCs: No-slip bottom */
(PID.TID 0000.0001)                   T
(PID.TID 0000.0001)     ;
(PID.TID 0000.0001) bottomVisc_pCell = /* Partial-cell in bottom Visc. BC */
(PID.TID 0000.0001)                   F
(PID.TID 0000.0001)     ;
(PID.TID 0000.0001) bottomDragLinear = /* linear bottom-drag coefficient ( m/s ) */
(PID.TID 0000.0001)                 0.000000000000000E+00
(PID.TID 0000.0001)     ;
(PID.TID 0000.0001) bottomDragQuadratic = /* quadratic bottom-drag coefficient (-) */
(PID.TID 0000.0001)                 0.000000000000000E+00
(PID.TID 0000.0001)     ;
(PID.TID 0000.0001) selectBotDragQuadr = /* select quadratic bottom drag options */
(PID.TID 0000.0001)                      -1
(PID.TID 0000.0001)     ;
(PID.TID 0000.0001) diffKhT =   /* Laplacian diffusion of heat laterally ( m^2/s ) */
(PID.TID 0000.0001)                 4.000000000000000E+02
(PID.TID 0000.0001)     ;
(PID.TID 0000.0001) diffK4T =   /* Biharmonic diffusion of heat laterally ( m^4/s ) */
(PID.TID 0000.0001)                 0.000000000000000E+00
(PID.TID 0000.0001)     ;
(PID.TID 0000.0001) diffKhS =   /* Laplacian diffusion of salt laterally ( m^2/s ) */
(PID.TID 0000.0001)                 0.000000000000000E+00
(PID.TID 0000.0001)     ;
(PID.TID 0000.0001) diffK4S =   /* Biharmonic diffusion of salt laterally ( m^4/s ) */
(PID.TID 0000.0001)                 0.000000000000000E+00
(PID.TID 0000.0001)     ;
(PID.TID 0000.0001) diffKrNrT = /* vertical profile of vertical diffusion of Temp ( m^2/s )*/
(PID.TID 0000.0001)     4 @  1.000000000000000E-04              /* K =  1:  4 */
(PID.TID 0000.0001)     ;
(PID.TID 0000.0001) diffKrNrS = /* vertical profile of vertical diffusion of Salt ( m^2/s )*/
(PID.TID 0000.0001)     4 @  3.000000000000000E-05              /* K =  1:  4 */
(PID.TID 0000.0001)     ;
(PID.TID 0000.0001) diffKrBL79surf = /* Surface diffusion for Bryan and Lewis 79 ( m^2/s ) */
(PID.TID 0000.0001)                 0.000000000000000E+00
(PID.TID 0000.0001)     ;
(PID.TID 0000.0001) diffKrBL79deep = /* Deep diffusion for Bryan and Lewis 1979 ( m^2/s ) */
(PID.TID 0000.0001)                 0.000000000000000E+00
(PID.TID 0000.0001)     ;
(PID.TID 0000.0001) diffKrBL79scl = /* Depth scale for Bryan and Lewis 1979 ( m ) */
(PID.TID 0000.0001)                 2.000000000000000E+02
(PID.TID 0000.0001)     ;
(PID.TID 0000.0001) diffKrBL79Ho = /* Turning depth for Bryan and Lewis 1979 ( m ) */
(PID.TID 0000.0001)                -2.000000000000000E+03
(PID.TID 0000.0001)     ;
(PID.TID 0000.0001) ivdc_kappa = /* Implicit Vertical Diffusivity for Convection ( m^2/s) */
(PID.TID 0000.0001)                 0.000000000000000E+00
(PID.TID 0000.0001)     ;
(PID.TID 0000.0001) hMixCriteria=  /* Criteria for mixed-layer diagnostic */
(PID.TID 0000.0001)                -8.000000000000000E-01
(PID.TID 0000.0001)     ;
(PID.TID 0000.0001) dRhoSmall =  /* Parameter for mixed-layer diagnostic */
(PID.TID 0000.0001)                 1.000000000000000E-06
(PID.TID 0000.0001)     ;
(PID.TID 0000.0001) hMixSmooth=  /* Smoothing parameter for mixed-layer diagnostic */
(PID.TID 0000.0001)                 0.000000000000000E+00
(PID.TID 0000.0001)     ;
(PID.TID 0000.0001) eosType =  /* Type of Equation of State */
(PID.TID 0000.0001)               'LINEAR'
(PID.TID 0000.0001)     ;
(PID.TID 0000.0001) tAlpha = /* Linear EOS thermal expansion coefficient ( 1/oC ) */
(PID.TID 0000.0001)                 2.000000000000000E-04
(PID.TID 0000.0001)     ;
(PID.TID 0000.0001) sBeta  = /* Linear EOS haline contraction coefficient ( 1/(g/kg) ) */
(PID.TID 0000.0001)                 0.000000000000000E+00
(PID.TID 0000.0001)     ;
(PID.TID 0000.0001) rhoNil    = /* Reference density for Linear EOS ( kg/m^3 ) */
(PID.TID 0000.0001)                 9.998000000000000E+02
(PID.TID 0000.0001)     ;
(PID.TID 0000.0001) selectP_inEOS_Zc = /* select pressure to use in EOS (0,1,2,3) */
(PID.TID 0000.0001)                       0
(PID.TID 0000.0001)     0= -g*rhoConst*z ; 1= pRef (from tRef,sRef); 2= Hyd P ; 3= Hyd+NH P
(PID.TID 0000.0001)     ;
(PID.TID 0000.0001) surf_pRef = /* Surface reference pressure ( Pa ) */
(PID.TID 0000.0001)                 1.013250000000000E+05
(PID.TID 0000.0001)     ;
(PID.TID 0000.0001) HeatCapacity_Cp =  /* Specific heat capacity ( J/kg/K ) */
(PID.TID 0000.0001)                 3.994000000000000E+03
(PID.TID 0000.0001)     ;
(PID.TID 0000.0001) celsius2K = /* 0 degree Celsius converted to Kelvin ( K ) */
(PID.TID 0000.0001)                 2.731500000000000E+02
(PID.TID 0000.0001)     ;
(PID.TID 0000.0001) rhoConst  = /* Reference density (Boussinesq)  ( kg/m^3 ) */
(PID.TID 0000.0001)                 9.998000000000000E+02
(PID.TID 0000.0001)     ;
(PID.TID 0000.0001) rhoFacC = /* normalized Reference density @ cell-Center (-) */
(PID.TID 0000.0001)     4 @  1.000000000000000E+00              /* K =  1:  4 */
(PID.TID 0000.0001)     ;
(PID.TID 0000.0001) rhoFacF = /* normalized Reference density @ W-Interface (-) */
(PID.TID 0000.0001)     5 @  1.000000000000000E+00              /* K =  1:  5 */
(PID.TID 0000.0001)     ;
(PID.TID 0000.0001) rhoConstFresh = /* Fresh-water reference density ( kg/m^3 ) */
(PID.TID 0000.0001)                 9.998000000000000E+02
(PID.TID 0000.0001)     ;
(PID.TID 0000.0001) gravity =   /* Gravitational acceleration ( m/s^2 ) */
(PID.TID 0000.0001)                 9.810000000000000E+00
(PID.TID 0000.0001)     ;
(PID.TID 0000.0001) gBaro =   /* Barotropic gravity ( m/s^2 ) */
(PID.TID 0000.0001)                 9.810000000000000E+00
(PID.TID 0000.0001)     ;
(PID.TID 0000.0001) gravFacC = /* gravity factor (vs surf.) @ cell-Center (-) */
(PID.TID 0000.0001)     4 @  1.000000000000000E+00              /* K =  1:  4 */
(PID.TID 0000.0001)     ;
(PID.TID 0000.0001) gravFacF = /* gravity factor (vs surf.) @ W-Interface (-) */
(PID.TID 0000.0001)     5 @  1.000000000000000E+00              /* K =  1:  5 */
(PID.TID 0000.0001)     ;
(PID.TID 0000.0001) rotationPeriod =   /* Rotation Period ( s ) */
(PID.TID 0000.0001)                 8.616400000000000E+04
(PID.TID 0000.0001)     ;
(PID.TID 0000.0001) omega =   /* Angular velocity ( rad/s ) */
(PID.TID 0000.0001)                 7.292123516990375E-05
(PID.TID 0000.0001)     ;
(PID.TID 0000.0001) f0 =   /* Reference coriolis parameter ( 1/s ) */
(PID.TID 0000.0001)                -1.191400000000000E-04
(PID.TID 0000.0001)     ;
(PID.TID 0000.0001) beta =   /* Beta ( 1/(m.s) ) */
(PID.TID 0000.0001)                 1.309400000000000E-11
(PID.TID 0000.0001)     ;
(PID.TID 0000.0001) fPrime =   /* Second coriolis parameter ( 1/s ) */
(PID.TID 0000.0001)                 0.000000000000000E+00
(PID.TID 0000.0001)     ;
(PID.TID 0000.0001) rigidLid =   /* Rigid lid on/off flag */
(PID.TID 0000.0001)                   F
(PID.TID 0000.0001)     ;
(PID.TID 0000.0001) implicitFreeSurface =   /* Implicit free surface on/off flag */
(PID.TID 0000.0001)                   T
(PID.TID 0000.0001)     ;
(PID.TID 0000.0001) freeSurfFac =   /* Implicit free surface factor */
(PID.TID 0000.0001)                 1.000000000000000E+00
(PID.TID 0000.0001)     ;
(PID.TID 0000.0001) implicSurfPress =  /* Surface Pressure implicit factor (0-1) */
(PID.TID 0000.0001)                 1.000000000000000E+00
(PID.TID 0000.0001)     ;
(PID.TID 0000.0001) implicDiv2DFlow =  /* Barot. Flow Div. implicit factor (0-1) */
(PID.TID 0000.0001)                 1.000000000000000E+00
(PID.TID 0000.0001)     ;
(PID.TID 0000.0001) uniformLin_PhiSurf = /* use uniform Bo_surf on/off flag */
(PID.TID 0000.0001)                   T
(PID.TID 0000.0001)     ;
(PID.TID 0000.0001) uniformFreeSurfLev = /* free-surface level-index is uniform */
(PID.TID 0000.0001)                   T
(PID.TID 0000.0001)     ;
(PID.TID 0000.0001) sIceLoadFac =  /* scale factor for sIceLoad (0-1) */
(PID.TID 0000.0001)                 1.000000000000000E+00
(PID.TID 0000.0001)     ;
(PID.TID 0000.0001) hFacMin =   /* minimum partial cell factor (hFac) */
(PID.TID 0000.0001)                 5.000000000000000E-02
(PID.TID 0000.0001)     ;
(PID.TID 0000.0001) hFacMinDr = /* minimum partial cell thickness ( m) */
(PID.TID 0000.0001)                 0.000000000000000E+00
(PID.TID 0000.0001)     ;
(PID.TID 0000.0001) exactConserv =  /* Exact Volume Conservation on/off flag */
(PID.TID 0000.0001)                   F
(PID.TID 0000.0001)     ;
(PID.TID 0000.0001) linFSConserveTr = /* Tracer correction for Lin Free Surface on/off flag */
(PID.TID 0000.0001)                   F
(PID.TID 0000.0001)     ;
(PID.TID 0000.0001) nonlinFreeSurf = /* Non-linear Free Surf. options (-1,0,1,2,3)*/
(PID.TID 0000.0001)                       0
(PID.TID 0000.0001)      -1,0= Off ; 1,2,3= On, 2=+rescale gU,gV, 3=+update cg2d solv.
(PID.TID 0000.0001)     ;
(PID.TID 0000.0001) hFacInf =   /* lower threshold for hFac (nonlinFreeSurf only)*/
(PID.TID 0000.0001)                 2.000000000000000E-01
(PID.TID 0000.0001)     ;
(PID.TID 0000.0001) hFacSup =   /* upper threshold for hFac (nonlinFreeSurf only)*/
(PID.TID 0000.0001)                 2.000000000000000E+00
(PID.TID 0000.0001)     ;
(PID.TID 0000.0001) select_rStar = /* r* Vertical coord. options (=0 r coord.; >0 uses r*)*/
(PID.TID 0000.0001)                       0
(PID.TID 0000.0001)     ;
(PID.TID 0000.0001) useRealFreshWaterFlux = /* Real Fresh Water Flux on/off flag*/
(PID.TID 0000.0001)                   F
(PID.TID 0000.0001)     ;
(PID.TID 0000.0001) temp_EvPrRn = /* Temp. of Evap/Prec/R (UNSET=use local T)(oC)*/
(PID.TID 0000.0001)                 1.234567000000000E+05
(PID.TID 0000.0001)     ;
(PID.TID 0000.0001) salt_EvPrRn = /* Salin. of Evap/Prec/R (UNSET=use local S)(g/kg)*/
(PID.TID 0000.0001)                 0.000000000000000E+00
(PID.TID 0000.0001)     ;
(PID.TID 0000.0001) selectAddFluid = /* option for mass source/sink of fluid (=0: off) */
(PID.TID 0000.0001)                       0
(PID.TID 0000.0001)     ;
(PID.TID 0000.0001) temp_addMass = /* Temp. of addMass array (UNSET=use local T)(oC)*/
(PID.TID 0000.0001)                 1.234567000000000E+05
(PID.TID 0000.0001)     ;
(PID.TID 0000.0001) salt_addMass = /* Salin. of addMass array (UNSET=use local S)(g/kg)*/
(PID.TID 0000.0001)                 0.000000000000000E+00
(PID.TID 0000.0001)     ;
(PID.TID 0000.0001) convertFW2Salt = /* convert F.W. Flux to Salt Flux (-1=use local S)(g/kg)*/
(PID.TID 0000.0001)                 3.500000000000000E+01
(PID.TID 0000.0001)     ;
(PID.TID 0000.0001) use3Dsolver = /* use 3-D pressure solver on/off flag */
(PID.TID 0000.0001)                   F
(PID.TID 0000.0001)     ;
(PID.TID 0000.0001) nonHydrostatic =  /* Non-Hydrostatic on/off flag */
(PID.TID 0000.0001)                   F
(PID.TID 0000.0001)     ;
(PID.TID 0000.0001) nh_Am2 = /* Non-Hydrostatic terms scaling factor */
(PID.TID 0000.0001)                 1.000000000000000E+00
(PID.TID 0000.0001)     ;
(PID.TID 0000.0001) implicitNHPress = /* Non-Hyd Pressure implicit factor (0-1)*/
(PID.TID 0000.0001)                 1.000000000000000E+00
(PID.TID 0000.0001)     ;
(PID.TID 0000.0001) selectNHfreeSurf = /* Non-Hyd (free-)Surface option */
(PID.TID 0000.0001)                       0
(PID.TID 0000.0001)     ;
(PID.TID 0000.0001) quasiHydrostatic = /* Quasi-Hydrostatic on/off flag */
(PID.TID 0000.0001)                   F
(PID.TID 0000.0001)     ;
(PID.TID 0000.0001) calc_wVelocity = /* vertical velocity calculation on/off flag */
(PID.TID 0000.0001)                   T
(PID.TID 0000.0001)     ;
(PID.TID 0000.0001) momStepping =  /* Momentum equation on/off flag */
(PID.TID 0000.0001)                   T
(PID.TID 0000.0001)     ;
(PID.TID 0000.0001) vectorInvariantMomentum= /* Vector-Invariant Momentum on/off */
(PID.TID 0000.0001)                   F
(PID.TID 0000.0001)     ;
(PID.TID 0000.0001) momAdvection =  /* Momentum advection on/off flag */
(PID.TID 0000.0001)                   T
(PID.TID 0000.0001)     ;
(PID.TID 0000.0001) momViscosity =  /* Momentum viscosity on/off flag */
(PID.TID 0000.0001)                   T
(PID.TID 0000.0001)     ;
(PID.TID 0000.0001) momImplVertAdv= /* Momentum implicit vert. advection on/off*/
(PID.TID 0000.0001)                   F
(PID.TID 0000.0001)     ;
(PID.TID 0000.0001) implicitViscosity = /* Implicit viscosity on/off flag */
(PID.TID 0000.0001)                   F
(PID.TID 0000.0001)     ;
(PID.TID 0000.0001) selectImplicitDrag= /* Implicit bot Drag options (0,1,2)*/
(PID.TID 0000.0001)                       0
(PID.TID 0000.0001)     0= Expl. ; 1= Impl. on provis. Vel ; 2= Fully Impl (with surf.P)
(PID.TID 0000.0001)     ;
(PID.TID 0000.0001) metricTerms =  /* metric-Terms on/off flag */
(PID.TID 0000.0001)                   F
(PID.TID 0000.0001)     ;
(PID.TID 0000.0001) useNHMTerms = /* Non-Hydrostatic Metric-Terms on/off */
(PID.TID 0000.0001)                   F
(PID.TID 0000.0001)     ;
(PID.TID 0000.0001) selectCoriMap = /* Coriolis Map options (0,1,2,3)*/
(PID.TID 0000.0001)                       1
(PID.TID 0000.0001)     0= f-Plane ; 1= Beta-Plane ; 2= Spherical ; 3= read from file
(PID.TID 0000.0001)     ;
(PID.TID 0000.0001) use3dCoriolis = /* 3-D Coriolis on/off flag */
(PID.TID 0000.0001)                   F
(PID.TID 0000.0001)     ;
(PID.TID 0000.0001) useCoriolis =  /* Coriolis on/off flag */
(PID.TID 0000.0001)                   T
(PID.TID 0000.0001)     ;
(PID.TID 0000.0001) useCDscheme =  /* CD scheme on/off flag */
(PID.TID 0000.0001)                   F
(PID.TID 0000.0001)     ;
(PID.TID 0000.0001) selectCoriScheme= /* Scheme selector for Coriolis-Term */
(PID.TID 0000.0001)                       0
(PID.TID 0000.0001)    = 0 : original discretization (simple averaging, no hFac)
(PID.TID 0000.0001)    = 1 : Wet-point averaging (Jamar & Ozer 1986)
(PID.TID 0000.0001)    = 2 : energy conserving scheme (no hFac weight)
(PID.TID 0000.0001)    = 3 : energy conserving scheme using Wet-point averaging
(PID.TID 0000.0001)     ;
(PID.TID 0000.0001) momForcing =  /* Momentum forcing on/off flag */
(PID.TID 0000.0001)                   T
(PID.TID 0000.0001)     ;
(PID.TID 0000.0001) momTidalForcing = /* Momentum Tidal forcing on/off flag */
(PID.TID 0000.0001)                   T
(PID.TID 0000.0001)     ;
(PID.TID 0000.0001) momPressureForcing =  /* Momentum pressure term on/off flag */
(PID.TID 0000.0001)                   T
(PID.TID 0000.0001)     ;
(PID.TID 0000.0001) implicitIntGravWave= /* Implicit Internal Gravity Wave flag */
(PID.TID 0000.0001)                   F
(PID.TID 0000.0001)     ;
(PID.TID 0000.0001) staggerTimeStep =    /* Stagger time stepping on/off flag */
(PID.TID 0000.0001)                   F
(PID.TID 0000.0001)     ;
(PID.TID 0000.0001) doResetHFactors = /* reset thickness factors @ each time-step */
(PID.TID 0000.0001)                   T
(PID.TID 0000.0001)     ;
(PID.TID 0000.0001) multiDimAdvection =  /* enable/disable Multi-Dim Advection */
(PID.TID 0000.0001)                   T
(PID.TID 0000.0001)     ;
(PID.TID 0000.0001) useMultiDimAdvec =   /* Multi-Dim Advection is/is-not used */
(PID.TID 0000.0001)                   F
(PID.TID 0000.0001)     ;
(PID.TID 0000.0001) implicitDiffusion = /* Implicit Diffusion on/off flag */
(PID.TID 0000.0001)                   F
(PID.TID 0000.0001)     ;
(PID.TID 0000.0001) tempStepping =  /* Temperature equation on/off flag */
(PID.TID 0000.0001)                   T
(PID.TID 0000.0001)     ;
(PID.TID 0000.0001) tempAdvection = /* Temperature advection on/off flag */
(PID.TID 0000.0001)                   T
(PID.TID 0000.0001)     ;
(PID.TID 0000.0001) tempImplVertAdv = /* Temp. implicit vert. advection on/off */
(PID.TID 0000.0001)                   F
(PID.TID 0000.0001)     ;
(PID.TID 0000.0001) tempForcing  =  /* Temperature forcing on/off flag */
(PID.TID 0000.0001)                   T
(PID.TID 0000.0001)     ;
(PID.TID 0000.0001) doThetaClimRelax = /* apply SST relaxation on/off flag */
(PID.TID 0000.0001)                   F
(PID.TID 0000.0001)     ;
(PID.TID 0000.0001) tempIsActiveTr = /* Temp. is a dynamically Active Tracer */
(PID.TID 0000.0001)                   T
(PID.TID 0000.0001)     ;
(PID.TID 0000.0001) saltStepping =  /* Salinity equation on/off flag */
(PID.TID 0000.0001)                   T
(PID.TID 0000.0001)     ;
(PID.TID 0000.0001) saltAdvection = /* Salinity advection on/off flag */
(PID.TID 0000.0001)                   T
(PID.TID 0000.0001)     ;
(PID.TID 0000.0001) saltImplVertAdv = /* Sali. implicit vert. advection on/off */
(PID.TID 0000.0001)                   F
(PID.TID 0000.0001)     ;
(PID.TID 0000.0001) saltForcing  =  /* Salinity forcing on/off flag */
(PID.TID 0000.0001)                   T
(PID.TID 0000.0001)     ;
(PID.TID 0000.0001) doSaltClimRelax = /* apply SSS relaxation on/off flag */
(PID.TID 0000.0001)                   F
(PID.TID 0000.0001)     ;
(PID.TID 0000.0001) saltIsActiveTr = /* Salt  is a dynamically Active Tracer */
(PID.TID 0000.0001)                   F
(PID.TID 0000.0001)     ;
(PID.TID 0000.0001)  readBinaryPrec = /* Precision used for reading binary files */
(PID.TID 0000.0001)                      64
(PID.TID 0000.0001)     ;
(PID.TID 0000.0001) writeBinaryPrec = /* Precision used for writing binary files */
(PID.TID 0000.0001)                      64
(PID.TID 0000.0001)     ;
(PID.TID 0000.0001)  rwSuffixType =   /* select format of mds file suffix */
(PID.TID 0000.0001)                       0
(PID.TID 0000.0001)    = 0 : myIter (I10.10) ;   = 1 : 100*myTime (100th sec) ;
(PID.TID 0000.0001)    = 2 : myTime (seconds);   = 3 : myTime/360 (10th of hr);
(PID.TID 0000.0001)    = 4 : myTime/3600 (hours)
(PID.TID 0000.0001)     ;
(PID.TID 0000.0001)  globalFiles = /* write "global" (=not per tile) files */
(PID.TID 0000.0001)                   F
(PID.TID 0000.0001)     ;
(PID.TID 0000.0001)  useSingleCpuIO = /* only master MPI process does I/O */
(PID.TID 0000.0001)                   F
(PID.TID 0000.0001)     ;
(PID.TID 0000.0001)  useSingleCpuInput = /* only master process reads input */
(PID.TID 0000.0001)                   F
(PID.TID 0000.0001)     ;
(PID.TID 0000.0001) /* debLev[*]  : level of debug & auxiliary message printing */
(PID.TID 0000.0001) debLevZero =  0 ; /* level of disabled aux. msg printing */
(PID.TID 0000.0001)    debLevA =  1 ; /* level of minimum  aux. msg printing */
(PID.TID 0000.0001)    debLevB =  2 ; /* level of low aux. print (report read-file opening)*/
(PID.TID 0000.0001)    debLevC =  3 ; /* level of moderate debug prt (most pkgs debug msg) */
(PID.TID 0000.0001)    debLevD =  4 ; /* level of enhanced debug prt (add DEBUG_STATS prt) */
(PID.TID 0000.0001)    debLevE =  5 ; /* level of extensive debug printing */
(PID.TID 0000.0001) debugLevel =  /* select debug printing level */
(PID.TID 0000.0001)                       1
(PID.TID 0000.0001)     ;
(PID.TID 0000.0001)  plotLevel =  /* select PLOT_FIELD printing level */
(PID.TID 0000.0001)                       1
(PID.TID 0000.0001)     ;
(PID.TID 0000.0001) //
(PID.TID 0000.0001) // Elliptic solver(s) paramters ( PARM02 in namelist )
(PID.TID 0000.0001) //
(PID.TID 0000.0001) cg2dMaxIters =   /* Upper limit on 2d con. grad iterations  */
(PID.TID 0000.0001)                     100
(PID.TID 0000.0001)     ;
(PID.TID 0000.0001) cg2dMinItersNSA =   /* Minimum number of iterations of 2d con. grad solver  */
(PID.TID 0000.0001)                      10
(PID.TID 0000.0001)     ;
(PID.TID 0000.0001) cg2dChkResFreq =   /* 2d con. grad convergence test frequency */
(PID.TID 0000.0001)                       1
(PID.TID 0000.0001)     ;
(PID.TID 0000.0001) cg2dUseMinResSol= /* use cg2d last-iter(=0) / min-resid.(=1) solution */
(PID.TID 0000.0001)                       0
(PID.TID 0000.0001)     ;
(PID.TID 0000.0001) cg2dTargetResidual =   /* 2d con. grad target residual  */
(PID.TID 0000.0001)                 1.000000000000000E-07
(PID.TID 0000.0001)     ;
(PID.TID 0000.0001) cg2dTargetResWunit =   /* CG2d target residual [W units] */
(PID.TID 0000.0001)                 1.000000000000000E-18
(PID.TID 0000.0001)     ;
(PID.TID 0000.0001) cg2dPreCondFreq =   /* Freq. for updating cg2d preconditioner */
(PID.TID 0000.0001)                       1
(PID.TID 0000.0001)     ;
(PID.TID 0000.0001) useSRCGSolver =  /* use single reduction CG solver(s) */
(PID.TID 0000.0001)                   F
(PID.TID 0000.0001)     ;
(PID.TID 0000.0001) useNSACGSolver =  /* use not-self-adjoint CG solver */
(PID.TID 0000.0001)                   T
(PID.TID 0000.0001)     ;
(PID.TID 0000.0001) printResidualFreq = /* Freq. for printing CG residual */
(PID.TID 0000.0001)                       0
(PID.TID 0000.0001)     ;
(PID.TID 0000.0001) //
(PID.TID 0000.0001) // Time stepping paramters ( PARM03 in namelist )
(PID.TID 0000.0001) //
(PID.TID 0000.0001) deltaTMom =   /* Momentum equation timestep ( s ) */
(PID.TID 0000.0001)                 3.600000000000000E+03
(PID.TID 0000.0001)     ;
(PID.TID 0000.0001) deltaTFreeSurf = /* FreeSurface equation timestep ( s ) */
(PID.TID 0000.0001)                 3.600000000000000E+03
(PID.TID 0000.0001)     ;
(PID.TID 0000.0001) dTtracerLev =  /* Tracer equation timestep ( s ) */
(PID.TID 0000.0001)     4 @  3.600000000000000E+03              /* K =  1:  4 */
(PID.TID 0000.0001)     ;
(PID.TID 0000.0001) deltaTClock  =   /* Model clock timestep ( s ) */
(PID.TID 0000.0001)                 3.600000000000000E+03
(PID.TID 0000.0001)     ;
(PID.TID 0000.0001) cAdjFreq =   /* Convective adjustment interval ( s ) */
(PID.TID 0000.0001)                 0.000000000000000E+00
(PID.TID 0000.0001)     ;
(PID.TID 0000.0001) momForcingOutAB = /* =1: take Momentum Forcing out of Adams-Bash. stepping */
(PID.TID 0000.0001)                       0
(PID.TID 0000.0001)     ;
(PID.TID 0000.0001) tracForcingOutAB = /* =1: take T,S,pTr Forcing out of Adams-Bash. stepping */
(PID.TID 0000.0001)                       0
(PID.TID 0000.0001)     ;
(PID.TID 0000.0001) momDissip_In_AB = /* put Dissipation Tendency in Adams-Bash. stepping */
(PID.TID 0000.0001)                   T
(PID.TID 0000.0001)     ;
(PID.TID 0000.0001) doAB_onGtGs = /* apply AB on Tendencies (rather than on T,S)*/
(PID.TID 0000.0001)                   T
(PID.TID 0000.0001)     ;
(PID.TID 0000.0001) abEps =   /* Adams-Bashforth-2 stabilizing weight */
(PID.TID 0000.0001)                 1.000000000000000E-01
(PID.TID 0000.0001)     ;
(PID.TID 0000.0001) applyExchUV_early = /* Apply EXCH to U,V earlier in time-step */
(PID.TID 0000.0001)                   F
(PID.TID 0000.0001)     ;
(PID.TID 0000.0001) pickupStrictlyMatch= /* stop if pickup do not strictly match */
(PID.TID 0000.0001)                   T
(PID.TID 0000.0001)     ;
(PID.TID 0000.0001) nIter0   =   /* Run starting timestep number */
(PID.TID 0000.0001)                       0
(PID.TID 0000.0001)     ;
(PID.TID 0000.0001) nTimeSteps = /* Number of timesteps */
(PID.TID 0000.0001)                     100
(PID.TID 0000.0001)     ;
(PID.TID 0000.0001) nEndIter =   /* Run ending timestep number */
(PID.TID 0000.0001)                     100
(PID.TID 0000.0001)     ;
(PID.TID 0000.0001) baseTime =   /* Model base time ( s ) */
(PID.TID 0000.0001)                 0.000000000000000E+00
(PID.TID 0000.0001)     ;
(PID.TID 0000.0001) startTime =  /* Run start time ( s ) */
(PID.TID 0000.0001)                 0.000000000000000E+00
(PID.TID 0000.0001)     ;
(PID.TID 0000.0001) endTime  =   /* Integration ending time ( s ) */
(PID.TID 0000.0001)                 3.600000000000000E+05
(PID.TID 0000.0001)     ;
(PID.TID 0000.0001) pChkPtFreq = /* Permanent restart/pickup file interval ( s ) */
(PID.TID 0000.0001)                 7.776000000000000E+06
(PID.TID 0000.0001)     ;
(PID.TID 0000.0001) chkPtFreq  = /* Rolling restart/pickup file interval ( s ) */
(PID.TID 0000.0001)                 0.000000000000000E+00
(PID.TID 0000.0001)     ;
(PID.TID 0000.0001) pickup_write_mdsio =   /* Model IO flag. */
(PID.TID 0000.0001)                   T
(PID.TID 0000.0001)     ;
(PID.TID 0000.0001) pickup_read_mdsio =   /* Model IO flag. */
(PID.TID 0000.0001)                   T
(PID.TID 0000.0001)     ;
(PID.TID 0000.0001) writePickupAtEnd =   /* Model IO flag. */
(PID.TID 0000.0001)                   T
(PID.TID 0000.0001)     ;
(PID.TID 0000.0001) dumpFreq =   /* Model state write out interval ( s ). */
(PID.TID 0000.0001)                 0.000000000000000E+00
(PID.TID 0000.0001)     ;
(PID.TID 0000.0001) dumpInitAndLast= /* write out Initial & Last iter. model state */
(PID.TID 0000.0001)                   T
(PID.TID 0000.0001)     ;
(PID.TID 0000.0001) snapshot_mdsio =   /* Model IO flag. */
(PID.TID 0000.0001)                   T
(PID.TID 0000.0001)     ;
(PID.TID 0000.0001) monitorFreq =   /* Monitor output interval ( s ). */
(PID.TID 0000.0001)                 4.320000000000000E+04
(PID.TID 0000.0001)     ;
(PID.TID 0000.0001) monitorSelect = /* select group of variables to monitor */
(PID.TID 0000.0001)                       1
(PID.TID 0000.0001)     ;
(PID.TID 0000.0001) monitor_stdio =   /* Model IO flag. */
(PID.TID 0000.0001)                   T
(PID.TID 0000.0001)     ;
(PID.TID 0000.0001) externForcingPeriod =   /* forcing period (s) */
(PID.TID 0000.0001)                 0.000000000000000E+00
(PID.TID 0000.0001)     ;
(PID.TID 0000.0001) externForcingCycle =   /* period of the cyle (s). */
(PID.TID 0000.0001)                 0.000000000000000E+00
(PID.TID 0000.0001)     ;
(PID.TID 0000.0001) tauThetaClimRelax =   /* relaxation time scale (s) */
(PID.TID 0000.0001)                 0.000000000000000E+00
(PID.TID 0000.0001)     ;
(PID.TID 0000.0001) tauSaltClimRelax =   /* relaxation time scale (s) */
(PID.TID 0000.0001)                 0.000000000000000E+00
(PID.TID 0000.0001)     ;
(PID.TID 0000.0001) latBandClimRelax =   /* max. Lat. where relaxation */
(PID.TID 0000.0001)                 3.000000000000000E+06
(PID.TID 0000.0001)     ;
(PID.TID 0000.0001) //
(PID.TID 0000.0001) // Gridding paramters ( PARM04 in namelist )
(PID.TID 0000.0001) //
(PID.TID 0000.0001) usingCartesianGrid = /* Cartesian coordinates flag ( True/False ) */
(PID.TID 0000.0001)                   T
(PID.TID 0000.0001)     ;
(PID.TID 0000.0001) usingCylindricalGrid = /* Cylindrical coordinates flag ( True/False ) */
(PID.TID 0000.0001)                   F
(PID.TID 0000.0001)     ;
(PID.TID 0000.0001) usingSphericalPolarGrid = /* Spherical coordinates flag ( True/False ) */
(PID.TID 0000.0001)                   F
(PID.TID 0000.0001)     ;
(PID.TID 0000.0001) usingCurvilinearGrid = /* Curvilinear coordinates flag ( True/False ) */
(PID.TID 0000.0001)                   F
(PID.TID 0000.0001)     ;
(PID.TID 0000.0001) useMin4hFacEdges = /* set hFacW,S as minimum of adjacent hFacC factor */
(PID.TID 0000.0001)                   F
(PID.TID 0000.0001)     ;
(PID.TID 0000.0001) interViscAr_pCell = /* account for partial-cell in interior vert. viscosity */
(PID.TID 0000.0001)                   F
(PID.TID 0000.0001)     ;
(PID.TID 0000.0001) interDiffKr_pCell = /* account for partial-cell in interior vert. diffusion */
(PID.TID 0000.0001)                   F
(PID.TID 0000.0001)     ;
(PID.TID 0000.0001) pCellMix_select = /* option to enhance mixing near surface & bottom */
(PID.TID 0000.0001)                       0
(PID.TID 0000.0001)     ;
(PID.TID 0000.0001) selectSigmaCoord = /* Hybrid-Sigma Vert. Coordinate option */
(PID.TID 0000.0001)                       0
(PID.TID 0000.0001)     ;
(PID.TID 0000.0001) rSigmaBnd = /* r/sigma transition ( units of r ==  m ) */
(PID.TID 0000.0001)                 1.234567000000000E+05
(PID.TID 0000.0001)     ;
(PID.TID 0000.0001) rkSign =   /* index orientation relative to vertical coordinate */
(PID.TID 0000.0001)                -1.000000000000000E+00
(PID.TID 0000.0001)     ;
(PID.TID 0000.0001) gravitySign = /* gravity orientation relative to vertical coordinate */
(PID.TID 0000.0001)                -1.000000000000000E+00
(PID.TID 0000.0001)     ;
(PID.TID 0000.0001) seaLev_Z =  /* reference height of sea-level [m] */
(PID.TID 0000.0001)                 0.000000000000000E+00
(PID.TID 0000.0001)     ;
(PID.TID 0000.0001) top_Pres =  /* reference pressure at the top [Pa] */
(PID.TID 0000.0001)                 0.000000000000000E+00
(PID.TID 0000.0001)     ;
(PID.TID 0000.0001) mass2rUnit = /* convert mass per unit area [kg/m2] to r-units [m] */
(PID.TID 0000.0001)                 1.000200040008002E-03
(PID.TID 0000.0001)     ;
(PID.TID 0000.0001) rUnit2mass = /* convert r-units [m] to mass per unit area [kg/m2] */
(PID.TID 0000.0001)                 9.998000000000000E+02
(PID.TID 0000.0001)     ;
(PID.TID 0000.0001) drC =   /* C spacing ( units of r ) */
(PID.TID 0000.0001)                 5.000000000000000E+01,      /* K =  1 */
(PID.TID 0000.0001)                 2.500000000000000E+02,      /* K =  2 */
(PID.TID 0000.0001)                 4.500000000000000E+02,      /* K =  3 */
(PID.TID 0000.0001)                 2.750000000000000E+03,      /* K =  4 */
(PID.TID 0000.0001)                 2.500000000000000E+03       /* K =  5 */
(PID.TID 0000.0001)     ;
(PID.TID 0000.0001) drF =   /* W spacing ( units of r ) */
(PID.TID 0000.0001)                 1.000000000000000E+02,      /* K =  1 */
(PID.TID 0000.0001)                 4.000000000000000E+02,      /* K =  2 */
(PID.TID 0000.0001)                 5.000000000000000E+02,      /* K =  3 */
(PID.TID 0000.0001)                 5.000000000000000E+03       /* K =  4 */
(PID.TID 0000.0001)     ;
(PID.TID 0000.0001) delX = /* U spacing ( m - cartesian, degrees - spherical ) */
(PID.TID 0000.0001)     5 @  2.000000000000000E+05              /* I =  1:  5 */
(PID.TID 0000.0001)     ;
(PID.TID 0000.0001) delY = /* V spacing ( m - cartesian, degrees - spherical ) */
(PID.TID 0000.0001)     5 @  2.000000000000000E+05              /* J =  1:  5 */
(PID.TID 0000.0001)     ;
(PID.TID 0000.0001) xgOrigin = /* X-axis origin of West  edge (cartesian: m, lat-lon: deg) */
(PID.TID 0000.0001)                 0.000000000000000E+00
(PID.TID 0000.0001)     ;
(PID.TID 0000.0001) ygOrigin = /* Y-axis origin of South edge (cartesian: m, lat-lon: deg) */
(PID.TID 0000.0001)                 0.000000000000000E+00
(PID.TID 0000.0001)     ;
(PID.TID 0000.0001) rSphere =  /* Radius ( ignored - cartesian, m - spherical ) */
(PID.TID 0000.0001)                 6.370000000000000E+06
(PID.TID 0000.0001)     ;
(PID.TID 0000.0001) deepAtmosphere = /* Deep/Shallow Atmosphere flag (True/False) */
(PID.TID 0000.0001)                   F
(PID.TID 0000.0001)     ;
(PID.TID 0000.0001) xC =  /* xC(:,1,:,1) : P-point X coord ( deg. or m if cartesian) */
(PID.TID 0000.0001)                 1.000000000000000E+05,      /* I =  1 */
(PID.TID 0000.0001)                 3.000000000000000E+05,      /* I =  2 */
(PID.TID 0000.0001)                 5.000000000000000E+05,      /* I =  3 */
(PID.TID 0000.0001)                 7.000000000000000E+05,      /* I =  4 */
(PID.TID 0000.0001)                 9.000000000000000E+05       /* I =  5 */
(PID.TID 0000.0001)     ;
(PID.TID 0000.0001) yC =  /* yC(1,:,1,:) : P-point Y coord ( deg. or m if cartesian) */
(PID.TID 0000.0001)                 1.000000000000000E+05,      /* J =  1 */
(PID.TID 0000.0001)                 3.000000000000000E+05,      /* J =  2 */
(PID.TID 0000.0001)                 5.000000000000000E+05,      /* J =  3 */
(PID.TID 0000.0001)                 7.000000000000000E+05,      /* J =  4 */
(PID.TID 0000.0001)                 9.000000000000000E+05       /* J =  5 */
(PID.TID 0000.0001)     ;
(PID.TID 0000.0001) rcoord = /* P-point R coordinate (  units of r ) */
(PID.TID 0000.0001)                -5.000000000000000E+01,      /* K =  1 */
(PID.TID 0000.0001)                -3.000000000000000E+02,      /* K =  2 */
(PID.TID 0000.0001)                -7.500000000000000E+02,      /* K =  3 */
(PID.TID 0000.0001)                -3.500000000000000E+03       /* K =  4 */
(PID.TID 0000.0001)     ;
(PID.TID 0000.0001) rF =   /* W-Interf. R coordinate (  units of r ) */
(PID.TID 0000.0001)                 0.000000000000000E+00,      /* K =  1 */
(PID.TID 0000.0001)                -1.000000000000000E+02,      /* K =  2 */
(PID.TID 0000.0001)                -5.000000000000000E+02,      /* K =  3 */
(PID.TID 0000.0001)                -1.000000000000000E+03,      /* K =  4 */
(PID.TID 0000.0001)                -6.000000000000000E+03       /* K =  5 */
(PID.TID 0000.0001)     ;
(PID.TID 0000.0001) deepFacC = /* deep-model grid factor @ cell-Center (-) */
(PID.TID 0000.0001)     4 @  1.000000000000000E+00              /* K =  1:  4 */
(PID.TID 0000.0001)     ;
(PID.TID 0000.0001) deepFacF = /* deep-model grid factor @ W-Interface (-) */
(PID.TID 0000.0001)     5 @  1.000000000000000E+00              /* K =  1:  5 */
(PID.TID 0000.0001)     ;
(PID.TID 0000.0001) rVel2wUnit = /* convert units: rVel -> wSpeed (=1 if z-coord)*/
(PID.TID 0000.0001)     5 @  1.000000000000000E+00              /* K =  1:  5 */
(PID.TID 0000.0001)     ;
(PID.TID 0000.0001) wUnit2rVel = /* convert units: wSpeed -> rVel (=1 if z-coord)*/
(PID.TID 0000.0001)     5 @  1.000000000000000E+00              /* K =  1:  5 */
(PID.TID 0000.0001)     ;
(PID.TID 0000.0001) dBdrRef = /* Vertical grad. of reference buoyancy [(m/s/r)^2] */
(PID.TID 0000.0001)     4 @  0.000000000000000E+00              /* K =  1:  4 */
(PID.TID 0000.0001)     ;
(PID.TID 0000.0001) rotateGrid = /* use rotated grid ( True/False ) */
(PID.TID 0000.0001)                   F
(PID.TID 0000.0001)     ;
(PID.TID 0000.0001) phiEuler = /* Euler angle, rotation about original z-coordinate [rad] */
(PID.TID 0000.0001)                 0.000000000000000E+00
(PID.TID 0000.0001)     ;
(PID.TID 0000.0001) thetaEuler = /* Euler angle, rotation about new x-coordinate [rad] */
(PID.TID 0000.0001)                 0.000000000000000E+00
(PID.TID 0000.0001)     ;
(PID.TID 0000.0001) psiEuler = /* Euler angle, rotation about new z-coordinate [rad] */
(PID.TID 0000.0001)                 0.000000000000000E+00
(PID.TID 0000.0001)     ;
(PID.TID 0000.0001) dxF =  /* dxF(:,1,:,1) ( units: m ) */
(PID.TID 0000.0001)     5 @  2.000000000000000E+05              /* I =  1:  5 */
(PID.TID 0000.0001)     ;
(PID.TID 0000.0001) dxF =  /* dxF(1,:,1,:) ( units: m ) */
(PID.TID 0000.0001)     5 @  2.000000000000000E+05              /* J =  1:  5 */
(PID.TID 0000.0001)     ;
(PID.TID 0000.0001) dyF =  /* dyF(:,1,:,1) ( units: m ) */
(PID.TID 0000.0001)     5 @  2.000000000000000E+05              /* I =  1:  5 */
(PID.TID 0000.0001)     ;
(PID.TID 0000.0001) dyF =  /* dyF(1,:,1,:) ( units: m ) */
(PID.TID 0000.0001)     5 @  2.000000000000000E+05              /* J =  1:  5 */
(PID.TID 0000.0001)     ;
(PID.TID 0000.0001) dxG =  /* dxG(:,1,:,1) ( units: m ) */
(PID.TID 0000.0001)     5 @  2.000000000000000E+05              /* I =  1:  5 */
(PID.TID 0000.0001)     ;
(PID.TID 0000.0001) dxG =  /* dxG(1,:,1,:) ( units: m ) */
(PID.TID 0000.0001)     5 @  2.000000000000000E+05              /* J =  1:  5 */
(PID.TID 0000.0001)     ;
(PID.TID 0000.0001) dyG =  /* dyG(:,1,:,1) ( units: m ) */
(PID.TID 0000.0001)     5 @  2.000000000000000E+05              /* I =  1:  5 */
(PID.TID 0000.0001)     ;
(PID.TID 0000.0001) dyG =  /* dyG(1,:,1,:) ( units: m ) */
(PID.TID 0000.0001)     5 @  2.000000000000000E+05              /* J =  1:  5 */
(PID.TID 0000.0001)     ;
(PID.TID 0000.0001) dxC =  /* dxC(:,1,:,1) ( units: m ) */
(PID.TID 0000.0001)     5 @  2.000000000000000E+05              /* I =  1:  5 */
(PID.TID 0000.0001)     ;
(PID.TID 0000.0001) dxC =  /* dxC(1,:,1,:) ( units: m ) */
(PID.TID 0000.0001)     5 @  2.000000000000000E+05              /* J =  1:  5 */
(PID.TID 0000.0001)     ;
(PID.TID 0000.0001) dyC =  /* dyC(:,1,:,1) ( units: m ) */
(PID.TID 0000.0001)     5 @  2.000000000000000E+05              /* I =  1:  5 */
(PID.TID 0000.0001)     ;
(PID.TID 0000.0001) dyC =  /* dyC(1,:,1,:) ( units: m ) */
(PID.TID 0000.0001)     5 @  2.000000000000000E+05              /* J =  1:  5 */
(PID.TID 0000.0001)     ;
(PID.TID 0000.0001) dxV =  /* dxV(:,1,:,1) ( units: m ) */
(PID.TID 0000.0001)     5 @  2.000000000000000E+05              /* I =  1:  5 */
(PID.TID 0000.0001)     ;
(PID.TID 0000.0001) dxV =  /* dxV(1,:,1,:) ( units: m ) */
(PID.TID 0000.0001)     5 @  2.000000000000000E+05              /* J =  1:  5 */
(PID.TID 0000.0001)     ;
(PID.TID 0000.0001) dyU =  /* dyU(:,1,:,1) ( units: m ) */
(PID.TID 0000.0001)     5 @  2.000000000000000E+05              /* I =  1:  5 */
(PID.TID 0000.0001)     ;
(PID.TID 0000.0001) dyU =  /* dyU(1,:,1,:) ( units: m ) */
(PID.TID 0000.0001)     5 @  2.000000000000000E+05              /* J =  1:  5 */
(PID.TID 0000.0001)     ;
(PID.TID 0000.0001) rA  =  /* rA (:,1,:,1) ( units: m^2 ) */
(PID.TID 0000.0001)     5 @  4.000000000000000E+10              /* I =  1:  5 */
(PID.TID 0000.0001)     ;
(PID.TID 0000.0001) rA  =  /* rA (1,:,1,:) ( units: m^2 ) */
(PID.TID 0000.0001)     5 @  4.000000000000000E+10              /* J =  1:  5 */
(PID.TID 0000.0001)     ;
(PID.TID 0000.0001) rAw =  /* rAw(:,1,:,1) ( units: m^2 ) */
(PID.TID 0000.0001)     5 @  4.000000000000000E+10              /* I =  1:  5 */
(PID.TID 0000.0001)     ;
(PID.TID 0000.0001) rAw =  /* rAw(1,:,1,:) ( units: m^2 ) */
(PID.TID 0000.0001)     5 @  4.000000000000000E+10              /* J =  1:  5 */
(PID.TID 0000.0001)     ;
(PID.TID 0000.0001) rAs =  /* rAs(:,1,:,1) ( units: m^2 ) */
(PID.TID 0000.0001)     5 @  4.000000000000000E+10              /* I =  1:  5 */
(PID.TID 0000.0001)     ;
(PID.TID 0000.0001) rAs =  /* rAs(1,:,1,:) ( units: m^2 ) */
(PID.TID 0000.0001)     5 @  4.000000000000000E+10              /* J =  1:  5 */
(PID.TID 0000.0001)     ;
(PID.TID 0000.0001) globalArea = /* Integrated horizontal Area (m^2) */
(PID.TID 0000.0001)                 1.000000000000000E+12
(PID.TID 0000.0001)     ;
(PID.TID 0000.0001) // =======================================================
(PID.TID 0000.0001) // End of Model config. summary
(PID.TID 0000.0001) // =======================================================
(PID.TID 0000.0001) 
(PID.TID 0000.0001) == Packages configuration : Check & print summary ==
(PID.TID 0000.0001) 
(PID.TID 0000.0001) CTRL_CHECK:  --> Starts to check CTRL set-up
(PID.TID 0000.0001) CTRL_CHECK:  <-- Ends Normally
(PID.TID 0000.0001) 
(PID.TID 0000.0001) COST_CHECK: #define ALLOW_COST
(PID.TID 0000.0001) GRDCHK_CHECK: grdchk package
(PID.TID 0000.0001) GAD_CHECK: #define ALLOW_GENERIC_ADVDIFF
(PID.TID 0000.0001) // =======================================================
(PID.TID 0000.0001) // Check Model config. (CONFIG_CHECK):
(PID.TID 0000.0001) // CONFIG_CHECK : Normal End
(PID.TID 0000.0001) // =======================================================
(PID.TID 0000.0001) 
                     ctrl_depth_ini: ctrl update R_low,
                                     adding the control vector.
(PID.TID 0000.0001) Start initial hydrostatic pressure computation
(PID.TID 0000.0001) Pressure is predetermined for buoyancyRelation OCEANIC
(PID.TID 0000.0001) 
(PID.TID 0000.0001) // =======================================================
(PID.TID 0000.0001) // Begin MONITOR dynamic field statistics
(PID.TID 0000.0001) // =======================================================
(PID.TID 0000.0001) %MON time_tsnumber                =                     0
(PID.TID 0000.0001) %MON time_secondsf                =   0.0000000000000E+00
(PID.TID 0000.0001) %MON dynstat_eta_max              =   0.0000000000000E+00
(PID.TID 0000.0001) %MON dynstat_eta_min              =   0.0000000000000E+00
(PID.TID 0000.0001) %MON dynstat_eta_mean             =   0.0000000000000E+00
(PID.TID 0000.0001) %MON dynstat_eta_sd               =   0.0000000000000E+00
(PID.TID 0000.0001) %MON dynstat_eta_del2             =   0.0000000000000E+00
(PID.TID 0000.0001) %MON dynstat_uvel_max             =   0.0000000000000E+00
(PID.TID 0000.0001) %MON dynstat_uvel_min             =   0.0000000000000E+00
(PID.TID 0000.0001) %MON dynstat_uvel_mean            =   0.0000000000000E+00
(PID.TID 0000.0001) %MON dynstat_uvel_sd              =   0.0000000000000E+00
(PID.TID 0000.0001) %MON dynstat_uvel_del2            =   0.0000000000000E+00
(PID.TID 0000.0001) %MON dynstat_vvel_max             =   0.0000000000000E+00
(PID.TID 0000.0001) %MON dynstat_vvel_min             =   0.0000000000000E+00
(PID.TID 0000.0001) %MON dynstat_vvel_mean            =   0.0000000000000E+00
(PID.TID 0000.0001) %MON dynstat_vvel_sd              =   0.0000000000000E+00
(PID.TID 0000.0001) %MON dynstat_vvel_del2            =   0.0000000000000E+00
(PID.TID 0000.0001) %MON dynstat_wvel_max             =  -0.0000000000000E+00
(PID.TID 0000.0001) %MON dynstat_wvel_min             =  -0.0000000000000E+00
(PID.TID 0000.0001) %MON dynstat_wvel_mean            =   0.0000000000000E+00
(PID.TID 0000.0001) %MON dynstat_wvel_sd              =   0.0000000000000E+00
(PID.TID 0000.0001) %MON dynstat_wvel_del2            =   0.0000000000000E+00
(PID.TID 0000.0001) %MON dynstat_theta_max            =   4.0000000000000E+00
(PID.TID 0000.0001) %MON dynstat_theta_min            =   4.0000000000000E+00
(PID.TID 0000.0001) %MON dynstat_theta_mean           =   4.0000000000000E+00
(PID.TID 0000.0001) %MON dynstat_theta_sd             =   0.0000000000000E+00
(PID.TID 0000.0001) %MON dynstat_theta_del2           =   0.0000000000000E+00
(PID.TID 0000.0001) %MON dynstat_salt_max             =   3.5000000000000E+01
(PID.TID 0000.0001) %MON dynstat_salt_min             =   3.5000000000000E+01
(PID.TID 0000.0001) %MON dynstat_salt_mean            =   3.5000000000000E+01
(PID.TID 0000.0001) %MON dynstat_salt_sd              =   0.0000000000000E+00
(PID.TID 0000.0001) %MON dynstat_salt_del2            =   0.0000000000000E+00
(PID.TID 0000.0001) %MON advcfl_uvel_max              =   0.0000000000000E+00
(PID.TID 0000.0001) %MON advcfl_vvel_max              =   0.0000000000000E+00
(PID.TID 0000.0001) %MON advcfl_wvel_max              =   0.0000000000000E+00
(PID.TID 0000.0001) %MON advcfl_W_hf_max              =   0.0000000000000E+00
(PID.TID 0000.0001) %MON pe_b_mean                    =   0.0000000000000E+00
(PID.TID 0000.0001) %MON ke_max                       =   0.0000000000000E+00
(PID.TID 0000.0001) %MON ke_mean                      =   0.0000000000000E+00
(PID.TID 0000.0001) %MON ke_vol                       =   4.4009158039362E+15
(PID.TID 0000.0001) // =======================================================
(PID.TID 0000.0001) // End MONITOR dynamic field statistics
(PID.TID 0000.0001) // =======================================================
(PID.TID 0000.0001) SOLVE_FOR_PRESSURE: putPmEinXvector =    F
 cg2d_nsa: Sum(rhs),rhsMax =   0.00000000000000E+00  0.00000000000000E+00
 cg2d_nsa: Sum(rhs),rhsMax =  -1.50873054610922E-03  6.03492218443701E-05
 cg2d_nsa: Sum(rhs),rhsMax =  -3.96041768353671E-03  2.18766023587220E-04
 cg2d_nsa: Sum(rhs),rhsMax =  -6.70151564470256E-03  4.29236468104834E-04
 cg2d_nsa: Sum(rhs),rhsMax =  -9.17158903539774E-03  6.43184796144661E-04
 cg2d_nsa: Sum(rhs),rhsMax =  -1.08944466273386E-02  8.17951762916730E-04
 cg2d_nsa: Sum(rhs),rhsMax =  -1.15449833390060E-02  9.31105228517862E-04
 cg2d_nsa: Sum(rhs),rhsMax =  -1.10127562438197E-02  9.89364856739475E-04
 cg2d_nsa: Sum(rhs),rhsMax =  -9.42153118113688E-03  1.22456378128443E-03
 cg2d_nsa: Sum(rhs),rhsMax =  -7.10092879417250E-03  1.44777510270361E-03
 cg2d_nsa: Sum(rhs),rhsMax =  -4.51794202872277E-03  1.58982062902970E-03
 cg2d_nsa: Sum(rhs),rhsMax =  -2.18275828108507E-03  1.64357697426163E-03
(PID.TID 0000.0001)      cg2d_init_res =   5.81088204651635E-04
(PID.TID 0000.0001)      cg2d_iters(min,last) =      -1      13
(PID.TID 0000.0001)      cg2d_last_res =   4.62364476660186E-15
(PID.TID 0000.0001) // =======================================================
(PID.TID 0000.0001) // Begin MONITOR dynamic field statistics
(PID.TID 0000.0001) // =======================================================
(PID.TID 0000.0001) %MON time_tsnumber                =                    12
(PID.TID 0000.0001) %MON time_secondsf                =   4.3200000000000E+04
(PID.TID 0000.0001) %MON dynstat_eta_max              =   2.4573816465048E-04
(PID.TID 0000.0001) %MON dynstat_eta_min              =   6.0302344497192E-05
(PID.TID 0000.0001) %MON dynstat_eta_mean             =   1.4144273661431E-04
(PID.TID 0000.0001) %MON dynstat_eta_sd               =   6.2579720508576E-05
(PID.TID 0000.0001) %MON dynstat_eta_del2             =   1.8748592079831E-05
(PID.TID 0000.0001) %MON dynstat_uvel_max             =   5.8845773422301E-05
(PID.TID 0000.0001) %MON dynstat_uvel_min             =  -6.2298069156517E-03
(PID.TID 0000.0001) %MON dynstat_uvel_mean            =  -1.6355849260794E-04
(PID.TID 0000.0001) %MON dynstat_uvel_sd              =   8.3354848689695E-04
(PID.TID 0000.0001) %MON dynstat_uvel_del2            =   1.0723700852462E-04
(PID.TID 0000.0001) %MON dynstat_vvel_max             =   6.8951549234977E-03
(PID.TID 0000.0001) %MON dynstat_vvel_min             =  -3.1431234269487E-04
(PID.TID 0000.0001) %MON dynstat_vvel_mean            =   8.3851803969620E-05
(PID.TID 0000.0001) %MON dynstat_vvel_sd              =   7.6765364747183E-04
(PID.TID 0000.0001) %MON dynstat_vvel_del2            =   1.1668794388475E-04
(PID.TID 0000.0001) %MON dynstat_wvel_max             =   1.0542079328505E-06
(PID.TID 0000.0001) %MON dynstat_wvel_min             =  -1.2866344270079E-06
(PID.TID 0000.0001) %MON dynstat_wvel_mean            =  -1.4167238646484E-09
(PID.TID 0000.0001) %MON dynstat_wvel_sd              =   7.8041390551994E-07
(PID.TID 0000.0001) %MON dynstat_wvel_del2            =   1.4052728443054E-07
(PID.TID 0000.0001) %MON dynstat_theta_max            =   4.0000000000000E+00
(PID.TID 0000.0001) %MON dynstat_theta_min            =   4.0000000000000E+00
(PID.TID 0000.0001) %MON dynstat_theta_mean           =   4.0000000000000E+00
(PID.TID 0000.0001) %MON dynstat_theta_sd             =   0.0000000000000E+00
(PID.TID 0000.0001) %MON dynstat_theta_del2           =   0.0000000000000E+00
(PID.TID 0000.0001) %MON dynstat_salt_max             =   3.5000000000000E+01
(PID.TID 0000.0001) %MON dynstat_salt_min             =   3.5000000000000E+01
(PID.TID 0000.0001) %MON dynstat_salt_mean            =   3.5000000000000E+01
(PID.TID 0000.0001) %MON dynstat_salt_sd              =   0.0000000000000E+00
(PID.TID 0000.0001) %MON dynstat_salt_del2            =   0.0000000000000E+00
(PID.TID 0000.0001) %MON advcfl_uvel_max              =   1.1213652448173E-04
(PID.TID 0000.0001) %MON advcfl_vvel_max              =   1.2411278862296E-04
(PID.TID 0000.0001) %MON advcfl_wvel_max              =   1.6610283796566E-05
(PID.TID 0000.0001) %MON advcfl_W_hf_max              =   4.1525709491416E-05
(PID.TID 0000.0001) %MON pe_b_mean                    =   2.6662343806771E-11
(PID.TID 0000.0001) %MON ke_max                       =   3.8466788772790E-05
(PID.TID 0000.0001) %MON ke_mean                      =   6.5893885400907E-07
(PID.TID 0000.0001) %MON ke_vol                       =   4.4009158039362E+15
(PID.TID 0000.0001) // =======================================================
(PID.TID 0000.0001) // End MONITOR dynamic field statistics
(PID.TID 0000.0001) // =======================================================
 cg2d_nsa: Sum(rhs),rhsMax =  -5.47818875169873E-04  1.61756159398061E-03
 cg2d_nsa: Sum(rhs),rhsMax =   7.99729206428621E-05  1.53363856597824E-03
 cg2d_nsa: Sum(rhs),rhsMax =  -4.03103056700378E-04  1.42794064564248E-03
 cg2d_nsa: Sum(rhs),rhsMax =  -1.88087816398002E-03  1.49223780561562E-03
 cg2d_nsa: Sum(rhs),rhsMax =  -4.04408898756440E-03  1.56210440474790E-03
 cg2d_nsa: Sum(rhs),rhsMax =  -6.45462888982739E-03  1.63424213142115E-03
 cg2d_nsa: Sum(rhs),rhsMax =  -8.63394917056602E-03  1.70505819058160E-03
 cg2d_nsa: Sum(rhs),rhsMax =  -1.01577899820896E-02  1.77167127664522E-03
 cg2d_nsa: Sum(rhs),rhsMax =  -1.07385064674389E-02  1.83257530192717E-03
 cg2d_nsa: Sum(rhs),rhsMax =  -1.02790482911620E-02  1.88791212260517E-03
 cg2d_nsa: Sum(rhs),rhsMax =  -8.88852268464210E-03  1.93938684114083E-03
 cg2d_nsa: Sum(rhs),rhsMax =  -6.85700209343233E-03  2.06671962577103E-03
(PID.TID 0000.0001)      cg2d_init_res =   7.38296268922710E-04
(PID.TID 0000.0001)      cg2d_iters(min,last) =      -1      13
(PID.TID 0000.0001)      cg2d_last_res =   3.02006244747237E-15
(PID.TID 0000.0001) // =======================================================
(PID.TID 0000.0001) // Begin MONITOR dynamic field statistics
(PID.TID 0000.0001) // =======================================================
(PID.TID 0000.0001) %MON time_tsnumber                =                    24
(PID.TID 0000.0001) %MON time_secondsf                =   8.6400000000000E+04
(PID.TID 0000.0001) %MON dynstat_eta_max              =   5.7844409914181E-04
(PID.TID 0000.0001) %MON dynstat_eta_min              =   3.2645567144751E-04
(PID.TID 0000.0001) %MON dynstat_eta_mean             =   4.4433373565442E-04
(PID.TID 0000.0001) %MON dynstat_eta_sd               =   8.4819538622942E-05
(PID.TID 0000.0001) %MON dynstat_eta_del2             =   2.5434520733128E-05
(PID.TID 0000.0001) %MON dynstat_uvel_max             =   6.5151898296067E-05
(PID.TID 0000.0001) %MON dynstat_uvel_min             =  -6.4423447243209E-03
(PID.TID 0000.0001) %MON dynstat_uvel_mean            =  -1.7305543645239E-04
(PID.TID 0000.0001) %MON dynstat_uvel_sd              =   7.2504378753718E-04
(PID.TID 0000.0001) %MON dynstat_uvel_del2            =   1.1004612939226E-04
(PID.TID 0000.0001) %MON dynstat_vvel_max             =   1.1439540226055E-02
(PID.TID 0000.0001) %MON dynstat_vvel_min             =  -3.6232539802023E-05
(PID.TID 0000.0001) %MON dynstat_vvel_mean            =   2.5158127316130E-04
(PID.TID 0000.0001) %MON dynstat_vvel_sd              =   1.5360302494970E-03
(PID.TID 0000.0001) %MON dynstat_vvel_del2            =   1.0978867361765E-04
(PID.TID 0000.0001) %MON dynstat_wvel_max             =   9.2350759874277E-07
(PID.TID 0000.0001) %MON dynstat_wvel_min             =  -6.9451553150755E-07
(PID.TID 0000.0001) %MON dynstat_wvel_mean            =   2.9978036956702E-10
(PID.TID 0000.0001) %MON dynstat_wvel_sd              =   5.8448049831739E-07
(PID.TID 0000.0001) %MON dynstat_wvel_del2            =   1.7177942065444E-07
(PID.TID 0000.0001) %MON dynstat_theta_max            =   4.0000000000000E+00
(PID.TID 0000.0001) %MON dynstat_theta_min            =   4.0000000000000E+00
(PID.TID 0000.0001) %MON dynstat_theta_mean           =   4.0000000000000E+00
(PID.TID 0000.0001) %MON dynstat_theta_sd             =   0.0000000000000E+00
(PID.TID 0000.0001) %MON dynstat_theta_del2           =   0.0000000000000E+00
(PID.TID 0000.0001) %MON dynstat_salt_max             =   3.5000000000000E+01
(PID.TID 0000.0001) %MON dynstat_salt_min             =   3.5000000000000E+01
(PID.TID 0000.0001) %MON dynstat_salt_mean            =   3.5000000000000E+01
(PID.TID 0000.0001) %MON dynstat_salt_sd              =   0.0000000000000E+00
(PID.TID 0000.0001) %MON dynstat_salt_del2            =   0.0000000000000E+00
(PID.TID 0000.0001) %MON advcfl_uvel_max              =   1.1596220503778E-04
(PID.TID 0000.0001) %MON advcfl_vvel_max              =   2.0591172406899E-04
(PID.TID 0000.0001) %MON advcfl_wvel_max              =   1.1362383865866E-05
(PID.TID 0000.0001) %MON advcfl_W_hf_max              =   2.8405959664665E-05
(PID.TID 0000.0001) %MON pe_b_mean                    =   2.2806493248586E-10
(PID.TID 0000.0001) %MON ke_max                       =   6.7073102014281E-05
(PID.TID 0000.0001) %MON ke_mean                      =   1.4891593711536E-06
(PID.TID 0000.0001) %MON ke_vol                       =   4.4009158039362E+15
(PID.TID 0000.0001) // =======================================================
(PID.TID 0000.0001) // End MONITOR dynamic field statistics
(PID.TID 0000.0001) // =======================================================
 cg2d_nsa: Sum(rhs),rhsMax =  -4.59527343840648E-03  2.17651147351270E-03
 cg2d_nsa: Sum(rhs),rhsMax =  -2.55199123164009E-03  2.23681621027622E-03
 cg2d_nsa: Sum(rhs),rhsMax =  -1.12489762897494E-03  2.25047700750366E-03
 cg2d_nsa: Sum(rhs),rhsMax =  -5.83637557917001E-04  2.23911227450568E-03
 cg2d_nsa: Sum(rhs),rhsMax =  -1.01911454537642E-03  2.31619526841969E-03
 cg2d_nsa: Sum(rhs),rhsMax =  -2.32886289156781E-03  2.39332628007074E-03
 cg2d_nsa: Sum(rhs),rhsMax =  -4.24067142204376E-03  2.46478012464754E-03
 cg2d_nsa: Sum(rhs),rhsMax =  -6.36913438142652E-03  2.52475933144516E-03
 cg2d_nsa: Sum(rhs),rhsMax =  -8.29342191396727E-03  2.56860713643226E-03
 cg2d_nsa: Sum(rhs),rhsMax =  -9.64059753908283E-03  2.59379160397445E-03
 cg2d_nsa: Sum(rhs),rhsMax =  -1.01580044298846E-02  2.60046741362487E-03
 cg2d_nsa: Sum(rhs),rhsMax =  -9.76069657793556E-03  2.59154640793844E-03
(PID.TID 0000.0001)      cg2d_init_res =   6.35007956522179E-04
(PID.TID 0000.0001)      cg2d_iters(min,last) =      -1      13
(PID.TID 0000.0001)      cg2d_last_res =   9.10005753517429E-15
(PID.TID 0000.0001) // =======================================================
(PID.TID 0000.0001) // Begin MONITOR dynamic field statistics
(PID.TID 0000.0001) // =======================================================
(PID.TID 0000.0001) %MON time_tsnumber                =                    36
(PID.TID 0000.0001) %MON time_secondsf                =   1.2960000000000E+05
(PID.TID 0000.0001) %MON dynstat_eta_max              =   7.5683589974798E-04
(PID.TID 0000.0001) %MON dynstat_eta_min              =   5.2707966276417E-04
(PID.TID 0000.0001) %MON dynstat_eta_mean             =   6.3249313825023E-04
(PID.TID 0000.0001) %MON dynstat_eta_sd               =   8.3516314618321E-05
(PID.TID 0000.0001) %MON dynstat_eta_del2             =   2.5033363264908E-05
(PID.TID 0000.0001) %MON dynstat_uvel_max             =   1.1017175873705E-04
(PID.TID 0000.0001) %MON dynstat_uvel_min             =  -1.8824991490100E-03
(PID.TID 0000.0001) %MON dynstat_uvel_mean            =  -6.1659569046493E-05
(PID.TID 0000.0001) %MON dynstat_uvel_sd              =   2.2870914719586E-04
(PID.TID 0000.0001) %MON dynstat_uvel_del2            =   3.9633223303025E-05
(PID.TID 0000.0001) %MON dynstat_vvel_max             =   1.2945920215711E-02
(PID.TID 0000.0001) %MON dynstat_vvel_min             =  -8.2727723080359E-05
(PID.TID 0000.0001) %MON dynstat_vvel_mean            =   3.5225427665140E-04
(PID.TID 0000.0001) %MON dynstat_vvel_sd              =   1.8328644922005E-03
(PID.TID 0000.0001) %MON dynstat_vvel_del2            =   8.6123311049334E-05
(PID.TID 0000.0001) %MON dynstat_wvel_max             =   8.9738361997433E-07
(PID.TID 0000.0001) %MON dynstat_wvel_min             =  -1.3430262241473E-06
(PID.TID 0000.0001) %MON dynstat_wvel_mean            =   1.3654248903962E-09
(PID.TID 0000.0001) %MON dynstat_wvel_sd              =   6.2341093962327E-07
(PID.TID 0000.0001) %MON dynstat_wvel_del2            =   1.3429481256819E-07
(PID.TID 0000.0001) %MON dynstat_theta_max            =   4.0000000000000E+00
(PID.TID 0000.0001) %MON dynstat_theta_min            =   4.0000000000000E+00
(PID.TID 0000.0001) %MON dynstat_theta_mean           =   4.0000000000000E+00
(PID.TID 0000.0001) %MON dynstat_theta_sd             =   0.0000000000000E+00
(PID.TID 0000.0001) %MON dynstat_theta_del2           =   0.0000000000000E+00
(PID.TID 0000.0001) %MON dynstat_salt_max             =   3.5000000000000E+01
(PID.TID 0000.0001) %MON dynstat_salt_min             =   3.5000000000000E+01
(PID.TID 0000.0001) %MON dynstat_salt_mean            =   3.5000000000000E+01
(PID.TID 0000.0001) %MON dynstat_salt_sd              =   0.0000000000000E+00
(PID.TID 0000.0001) %MON dynstat_salt_del2            =   0.0000000000000E+00
(PID.TID 0000.0001) %MON advcfl_uvel_max              =   3.3884984682180E-05
(PID.TID 0000.0001) %MON advcfl_vvel_max              =   2.3302656388279E-04
(PID.TID 0000.0001) %MON advcfl_wvel_max              =   1.3709477562963E-05
(PID.TID 0000.0001) %MON advcfl_W_hf_max              =   3.4273693907409E-05
(PID.TID 0000.0001) %MON pe_b_mean                    =   4.5364321220806E-10
(PID.TID 0000.0001) %MON ke_max                       =   8.2643614189494E-05
(PID.TID 0000.0001) %MON ke_mean                      =   1.7697925493273E-06
(PID.TID 0000.0001) %MON ke_vol                       =   4.4009158039362E+15
(PID.TID 0000.0001) // =======================================================
(PID.TID 0000.0001) // End MONITOR dynamic field statistics
(PID.TID 0000.0001) // =======================================================
 cg2d_nsa: Sum(rhs),rhsMax =  -8.54505745552105E-03  2.57230689744724E-03
 cg2d_nsa: Sum(rhs),rhsMax =  -6.76655619430475E-03  2.57617678082104E-03
 cg2d_nsa: Sum(rhs),rhsMax =  -4.78666960323290E-03  2.60704657072955E-03
 cg2d_nsa: Sum(rhs),rhsMax =  -2.99995524088840E-03  2.55368004866345E-03
 cg2d_nsa: Sum(rhs),rhsMax =  -1.75595289833664E-03  2.53090267956823E-03
 cg2d_nsa: Sum(rhs),rhsMax =  -1.29134015721695E-03  2.55686897823141E-03
 cg2d_nsa: Sum(rhs),rhsMax =  -1.68547888761829E-03  2.59998586190743E-03
 cg2d_nsa: Sum(rhs),rhsMax =  -2.84766407415454E-03  2.65617340743755E-03
 cg2d_nsa: Sum(rhs),rhsMax =  -4.53801265541873E-03  2.71885907823436E-03
 cg2d_nsa: Sum(rhs),rhsMax =  -6.41728546911956E-03  2.78009792743559E-03
 cg2d_nsa: Sum(rhs),rhsMax =  -8.11533161694994E-03  2.83193125835560E-03
 cg2d_nsa: Sum(rhs),rhsMax =  -9.30436783640324E-03  2.86771962552011E-03
(PID.TID 0000.0001)      cg2d_init_res =   3.74553574934435E-04
(PID.TID 0000.0001)      cg2d_iters(min,last) =      -1      13
(PID.TID 0000.0001)      cg2d_last_res =   6.21603182408602E-15
(PID.TID 0000.0001) // =======================================================
(PID.TID 0000.0001) // Begin MONITOR dynamic field statistics
(PID.TID 0000.0001) // =======================================================
(PID.TID 0000.0001) %MON time_tsnumber                =                    48
(PID.TID 0000.0001) %MON time_secondsf                =   1.7280000000000E+05
(PID.TID 0000.0001) %MON dynstat_eta_max              =   7.3218056401943E-04
(PID.TID 0000.0001) %MON dynstat_eta_min              =   4.9822977761722E-04
(PID.TID 0000.0001) %MON dynstat_eta_mean             =   6.0292303579893E-04
(PID.TID 0000.0001) %MON dynstat_eta_sd               =   7.8046602125164E-05
(PID.TID 0000.0001) %MON dynstat_eta_del2             =   2.4641364541149E-05
(PID.TID 0000.0001) %MON dynstat_uvel_max             =   1.9248544283910E-03
(PID.TID 0000.0001) %MON dynstat_uvel_min             =  -1.2792540418602E-04
(PID.TID 0000.0001) %MON dynstat_uvel_mean            =   7.0497027805447E-05
(PID.TID 0000.0001) %MON dynstat_uvel_sd              =   2.4850443529030E-04
(PID.TID 0000.0001) %MON dynstat_uvel_del2            =   3.3444799754896E-05
(PID.TID 0000.0001) %MON dynstat_vvel_max             =   1.1901320554063E-02
(PID.TID 0000.0001) %MON dynstat_vvel_min             =  -6.9668483494383E-05
(PID.TID 0000.0001) %MON dynstat_vvel_mean            =   3.3010788731650E-04
(PID.TID 0000.0001) %MON dynstat_vvel_sd              =   1.7065545702993E-03
(PID.TID 0000.0001) %MON dynstat_vvel_del2            =   6.5564612266224E-05
(PID.TID 0000.0001) %MON dynstat_wvel_max             =   4.9685090687158E-07
(PID.TID 0000.0001) %MON dynstat_wvel_min             =  -4.9443036926692E-07
(PID.TID 0000.0001) %MON dynstat_wvel_mean            =   1.5273962854300E-09
(PID.TID 0000.0001) %MON dynstat_wvel_sd              =   3.0422423755207E-07
(PID.TID 0000.0001) %MON dynstat_wvel_del2            =   9.3466278474149E-08
(PID.TID 0000.0001) %MON dynstat_theta_max            =   4.0000000000000E+00
(PID.TID 0000.0001) %MON dynstat_theta_min            =   4.0000000000000E+00
(PID.TID 0000.0001) %MON dynstat_theta_mean           =   4.0000000000000E+00
(PID.TID 0000.0001) %MON dynstat_theta_sd             =   0.0000000000000E+00
(PID.TID 0000.0001) %MON dynstat_theta_del2           =   0.0000000000000E+00
(PID.TID 0000.0001) %MON dynstat_salt_max             =   3.5000000000000E+01
(PID.TID 0000.0001) %MON dynstat_salt_min             =   3.5000000000000E+01
(PID.TID 0000.0001) %MON dynstat_salt_mean            =   3.5000000000000E+01
(PID.TID 0000.0001) %MON dynstat_salt_sd              =   0.0000000000000E+00
(PID.TID 0000.0001) %MON dynstat_salt_del2            =   0.0000000000000E+00
(PID.TID 0000.0001) %MON advcfl_uvel_max              =   3.4647379711039E-05
(PID.TID 0000.0001) %MON advcfl_vvel_max              =   2.1422376997313E-04
(PID.TID 0000.0001) %MON advcfl_wvel_max              =   7.1546530589507E-06
(PID.TID 0000.0001) %MON advcfl_W_hf_max              =   1.7886632647377E-05
(PID.TID 0000.0001) %MON pe_b_mean                    =   4.1194257471500E-10
(PID.TID 0000.0001) %MON ke_max                       =   7.1206282534211E-05
(PID.TID 0000.0001) %MON ke_mean                      =   1.5440120019832E-06
(PID.TID 0000.0001) %MON ke_vol                       =   4.4009158039362E+15
(PID.TID 0000.0001) // =======================================================
(PID.TID 0000.0001) // End MONITOR dynamic field statistics
(PID.TID 0000.0001) // =======================================================
 cg2d_nsa: Sum(rhs),rhsMax =  -9.76260395685167E-03  2.88321602464443E-03
 cg2d_nsa: Sum(rhs),rhsMax =  -9.41588736356230E-03  2.87721816536720E-03
 cg2d_nsa: Sum(rhs),rhsMax =  -8.34958545223980E-03  2.85172238290814E-03
 cg2d_nsa: Sum(rhs),rhsMax =  -6.78891550008817E-03  2.90854929940380E-03
 cg2d_nsa: Sum(rhs),rhsMax =  -5.05216135263872E-03  2.93304374436109E-03
 cg2d_nsa: Sum(rhs),rhsMax =  -3.48645864282595E-03  2.88331760371237E-03
 cg2d_nsa: Sum(rhs),rhsMax =  -2.39907587794035E-03  2.77469260149385E-03
 cg2d_nsa: Sum(rhs),rhsMax =  -1.99776873390528E-03  2.64912183617287E-03
 cg2d_nsa: Sum(rhs),rhsMax =  -2.35175891840163E-03  2.63954764388291E-03
 cg2d_nsa: Sum(rhs),rhsMax =  -3.38063154231061E-03  2.64744430596754E-03
 cg2d_nsa: Sum(rhs),rhsMax =  -4.87283027737351E-03  2.67027733920110E-03
 cg2d_nsa: Sum(rhs),rhsMax =  -6.52958396346892E-03  2.75143061474967E-03
(PID.TID 0000.0001)      cg2d_init_res =   3.87000977845191E-04
(PID.TID 0000.0001)      cg2d_iters(min,last) =      -1      13
(PID.TID 0000.0001)      cg2d_last_res =   4.63270156889552E-15
(PID.TID 0000.0001) // =======================================================
(PID.TID 0000.0001) // Begin MONITOR dynamic field statistics
(PID.TID 0000.0001) // =======================================================
(PID.TID 0000.0001) %MON time_tsnumber                =                    60
(PID.TID 0000.0001) %MON time_secondsf                =   2.1600000000000E+05
(PID.TID 0000.0001) %MON dynstat_eta_max              =   5.4828424295001E-04
(PID.TID 0000.0001) %MON dynstat_eta_min              =   3.1608260959568E-04
(PID.TID 0000.0001) %MON dynstat_eta_mean             =   4.2311704083279E-04
(PID.TID 0000.0001) %MON dynstat_eta_sd               =   7.6021531398253E-05
(PID.TID 0000.0001) %MON dynstat_eta_del2             =   2.4738613943640E-05
(PID.TID 0000.0001) %MON dynstat_uvel_max             =   2.7288294900146E-03
(PID.TID 0000.0001) %MON dynstat_uvel_min             =  -1.2114285505434E-04
(PID.TID 0000.0001) %MON dynstat_uvel_mean            =   1.2893377535399E-04
(PID.TID 0000.0001) %MON dynstat_uvel_sd              =   4.0696885562914E-04
(PID.TID 0000.0001) %MON dynstat_uvel_del2            =   3.5433335872052E-05
(PID.TID 0000.0001) %MON dynstat_vvel_max             =   1.0106263993756E-02
(PID.TID 0000.0001) %MON dynstat_vvel_min             =  -6.2255851308839E-05
(PID.TID 0000.0001) %MON dynstat_vvel_mean            =   2.2474672332632E-04
(PID.TID 0000.0001) %MON dynstat_vvel_sd              =   1.4009675880380E-03
(PID.TID 0000.0001) %MON dynstat_vvel_del2            =   7.4564925679901E-05
(PID.TID 0000.0001) %MON dynstat_wvel_max             =   5.5237348191875E-07
(PID.TID 0000.0001) %MON dynstat_wvel_min             =  -4.6673927253004E-07
(PID.TID 0000.0001) %MON dynstat_wvel_mean            =   1.5796752344285E-09
(PID.TID 0000.0001) %MON dynstat_wvel_sd              =   3.6299293145321E-07
(PID.TID 0000.0001) %MON dynstat_wvel_del2            =   1.1316095842770E-07
(PID.TID 0000.0001) %MON dynstat_theta_max            =   4.0000000000000E+00
(PID.TID 0000.0001) %MON dynstat_theta_min            =   4.0000000000000E+00
(PID.TID 0000.0001) %MON dynstat_theta_mean           =   4.0000000000000E+00
(PID.TID 0000.0001) %MON dynstat_theta_sd             =   0.0000000000000E+00
(PID.TID 0000.0001) %MON dynstat_theta_del2           =   0.0000000000000E+00
(PID.TID 0000.0001) %MON dynstat_salt_max             =   3.5000000000000E+01
(PID.TID 0000.0001) %MON dynstat_salt_min             =   3.5000000000000E+01
(PID.TID 0000.0001) %MON dynstat_salt_mean            =   3.5000000000000E+01
(PID.TID 0000.0001) %MON dynstat_salt_sd              =   0.0000000000000E+00
(PID.TID 0000.0001) %MON dynstat_salt_del2            =   0.0000000000000E+00
(PID.TID 0000.0001) %MON advcfl_uvel_max              =   4.9118930820262E-05
(PID.TID 0000.0001) %MON advcfl_vvel_max              =   1.8191275188761E-04
(PID.TID 0000.0001) %MON advcfl_wvel_max              =   7.9541781396301E-06
(PID.TID 0000.0001) %MON advcfl_W_hf_max              =   1.9885445349075E-05
(PID.TID 0000.0001) %MON pe_b_mean                    =   2.0597527059138E-10
(PID.TID 0000.0001) %MON ke_max                       =   5.1390232612228E-05
(PID.TID 0000.0001) %MON ke_mean                      =   1.0977344201290E-06
(PID.TID 0000.0001) %MON ke_vol                       =   4.4009158039362E+15
(PID.TID 0000.0001) // =======================================================
(PID.TID 0000.0001) // End MONITOR dynamic field statistics
(PID.TID 0000.0001) // =======================================================
 cg2d_nsa: Sum(rhs),rhsMax =  -8.02517513098642E-03  2.84716527327018E-03
 cg2d_nsa: Sum(rhs),rhsMax =  -9.07141270983088E-03  2.92480128291437E-03
 cg2d_nsa: Sum(rhs),rhsMax =  -9.47356461821928E-03  2.97120288151901E-03
 cg2d_nsa: Sum(rhs),rhsMax =  -9.16691600902542E-03  2.97966804344266E-03
 cg2d_nsa: Sum(rhs),rhsMax =  -8.22712340670304E-03  3.00381237938477E-03
 cg2d_nsa: Sum(rhs),rhsMax =  -6.85280737694790E-03  3.08036411819214E-03
 cg2d_nsa: Sum(rhs),rhsMax =  -5.32430727535908E-03  3.09182671069863E-03
 cg2d_nsa: Sum(rhs),rhsMax =  -3.94713137597638E-03  3.03934310027989E-03
 cg2d_nsa: Sum(rhs),rhsMax =  -2.99148618581432E-03  2.93659606044134E-03
 cg2d_nsa: Sum(rhs),rhsMax =  -2.63983309994827E-03  2.80689805753235E-03
 cg2d_nsa: Sum(rhs),rhsMax =  -2.95262908029430E-03  2.68543416568998E-03
 cg2d_nsa: Sum(rhs),rhsMax =  -3.85865392657745E-03  2.73031558404110E-03
(PID.TID 0000.0001)      cg2d_init_res =   4.30920038630311E-04
(PID.TID 0000.0001)      cg2d_iters(min,last) =      -1      13
(PID.TID 0000.0001)      cg2d_last_res =   8.99277728322388E-15
(PID.TID 0000.0001) // =======================================================
(PID.TID 0000.0001) // Begin MONITOR dynamic field statistics
(PID.TID 0000.0001) // =======================================================
(PID.TID 0000.0001) %MON time_tsnumber                =                    72
(PID.TID 0000.0001) %MON time_secondsf                =   2.5920000000000E+05
(PID.TID 0000.0001) %MON dynstat_eta_max              =   3.7790009794168E-04
(PID.TID 0000.0001) %MON dynstat_eta_min              =   1.3231706287119E-04
(PID.TID 0000.0001) %MON dynstat_eta_mean             =   2.5004077444222E-04
(PID.TID 0000.0001) %MON dynstat_eta_sd               =   8.0571173087401E-05
(PID.TID 0000.0001) %MON dynstat_eta_del2             =   2.6404495262344E-05
(PID.TID 0000.0001) %MON dynstat_uvel_max             =   1.9955823121302E-03
(PID.TID 0000.0001) %MON dynstat_uvel_min             =  -1.3640912778971E-04
(PID.TID 0000.0001) %MON dynstat_uvel_mean            =   8.8422255890739E-05
(PID.TID 0000.0001) %MON dynstat_uvel_sd              =   2.9325825811855E-04
(PID.TID 0000.0001) %MON dynstat_uvel_del2            =   3.6572005871864E-05
(PID.TID 0000.0001) %MON dynstat_vvel_max             =   8.6911295027387E-03
(PID.TID 0000.0001) %MON dynstat_vvel_min             =  -5.0539731968706E-04
(PID.TID 0000.0001) %MON dynstat_vvel_mean            =   1.2460065344146E-04
(PID.TID 0000.0001) %MON dynstat_vvel_sd              =   1.1879888738441E-03
(PID.TID 0000.0001) %MON dynstat_vvel_del2            =   8.3616920738784E-05
(PID.TID 0000.0001) %MON dynstat_wvel_max             =   6.4508941647130E-07
(PID.TID 0000.0001) %MON dynstat_wvel_min             =  -6.4756150474033E-07
(PID.TID 0000.0001) %MON dynstat_wvel_mean            =  -2.6077652932922E-10
(PID.TID 0000.0001) %MON dynstat_wvel_sd              =   4.6051545928214E-07
(PID.TID 0000.0001) %MON dynstat_wvel_del2            =   1.3793014602317E-07
(PID.TID 0000.0001) %MON dynstat_theta_max            =   4.0000000000000E+00
(PID.TID 0000.0001) %MON dynstat_theta_min            =   4.0000000000000E+00
(PID.TID 0000.0001) %MON dynstat_theta_mean           =   4.0000000000000E+00
(PID.TID 0000.0001) %MON dynstat_theta_sd             =   0.0000000000000E+00
(PID.TID 0000.0001) %MON dynstat_theta_del2           =   0.0000000000000E+00
(PID.TID 0000.0001) %MON dynstat_salt_max             =   3.5000000000000E+01
(PID.TID 0000.0001) %MON dynstat_salt_min             =   3.5000000000000E+01
(PID.TID 0000.0001) %MON dynstat_salt_mean            =   3.5000000000000E+01
(PID.TID 0000.0001) %MON dynstat_salt_sd              =   0.0000000000000E+00
(PID.TID 0000.0001) %MON dynstat_salt_del2            =   0.0000000000000E+00
(PID.TID 0000.0001) %MON advcfl_uvel_max              =   3.5920481618343E-05
(PID.TID 0000.0001) %MON advcfl_vvel_max              =   1.5644033104930E-04
(PID.TID 0000.0001) %MON advcfl_wvel_max              =   8.5110634449566E-06
(PID.TID 0000.0001) %MON advcfl_W_hf_max              =   2.1277658612391E-05
(PID.TID 0000.0001) %MON pe_b_mean                    =   7.6916800819369E-11
(PID.TID 0000.0001) %MON ke_max                       =   3.5946007866524E-05
(PID.TID 0000.0001) %MON ke_mean                      =   7.6033089425347E-07
(PID.TID 0000.0001) %MON ke_vol                       =   4.4009158039362E+15
(PID.TID 0000.0001) // =======================================================
(PID.TID 0000.0001) // End MONITOR dynamic field statistics
(PID.TID 0000.0001) // =======================================================
 cg2d_nsa: Sum(rhs),rhsMax =  -5.17138145567531E-03  2.80043602330375E-03
 cg2d_nsa: Sum(rhs),rhsMax =  -6.62770809530579E-03  2.88238464267999E-03
 cg2d_nsa: Sum(rhs),rhsMax =  -7.94102502267931E-03  2.96047703775097E-03
 cg2d_nsa: Sum(rhs),rhsMax =  -8.85794593306007E-03  3.01993446707144E-03
 cg2d_nsa: Sum(rhs),rhsMax =  -9.20747823510136E-03  3.04982329923301E-03
 cg2d_nsa: Sum(rhs),rhsMax =  -8.93311477978064E-03  3.04517980952895E-03
 cg2d_nsa: Sum(rhs),rhsMax =  -8.10185289229750E-03  3.11258929633955E-03
 cg2d_nsa: Sum(rhs),rhsMax =  -6.88878938747751E-03  3.17297132779808E-03
 cg2d_nsa: Sum(rhs),rhsMax =  -5.54076191478552E-03  3.17471656388758E-03
 cg2d_nsa: Sum(rhs),rhsMax =  -4.32655868503513E-03  3.11938175605144E-03
 cg2d_nsa: Sum(rhs),rhsMax =  -3.48371970540533E-03  3.01971788867662E-03
 cg2d_nsa: Sum(rhs),rhsMax =  -3.17244073804406E-03  2.89700828093700E-03
(PID.TID 0000.0001)      cg2d_init_res =   3.26375601400709E-04
(PID.TID 0000.0001)      cg2d_iters(min,last) =      -1      13
(PID.TID 0000.0001)      cg2d_last_res =   5.69487326468757E-15
(PID.TID 0000.0001) // =======================================================
(PID.TID 0000.0001) // Begin MONITOR dynamic field statistics
(PID.TID 0000.0001) // =======================================================
(PID.TID 0000.0001) %MON time_tsnumber                =                    84
(PID.TID 0000.0001) %MON time_secondsf                =   3.0240000000000E+05
(PID.TID 0000.0001) %MON dynstat_eta_max              =   3.4496299546789E-04
(PID.TID 0000.0001) %MON dynstat_eta_min              =   7.4134342845407E-05
(PID.TID 0000.0001) %MON dynstat_eta_mean             =   2.0557415982526E-04
(PID.TID 0000.0001) %MON dynstat_eta_sd               =   8.8100507720976E-05
(PID.TID 0000.0001) %MON dynstat_eta_del2             =   2.8543317260059E-05
(PID.TID 0000.0001) %MON dynstat_uvel_max             =   6.8864774445142E-04
(PID.TID 0000.0001) %MON dynstat_uvel_min             =  -1.4129559309464E-04
(PID.TID 0000.0001) %MON dynstat_uvel_mean            =  -3.8327746747322E-06
(PID.TID 0000.0001) %MON dynstat_uvel_sd              =   9.4189818208682E-05
(PID.TID 0000.0001) %MON dynstat_uvel_del2            =   3.7218495673533E-05
(PID.TID 0000.0001) %MON dynstat_vvel_max             =   8.6135811988826E-03
(PID.TID 0000.0001) %MON dynstat_vvel_min             =  -8.5669436088247E-04
(PID.TID 0000.0001) %MON dynstat_vvel_mean            =   9.6958006170657E-05
(PID.TID 0000.0001) %MON dynstat_vvel_sd              =   1.1574324285740E-03
(PID.TID 0000.0001) %MON dynstat_vvel_del2            =   8.8014226290276E-05
(PID.TID 0000.0001) %MON dynstat_wvel_max             =   8.2320161940636E-07
(PID.TID 0000.0001) %MON dynstat_wvel_min             =  -9.8370575077075E-07
(PID.TID 0000.0001) %MON dynstat_wvel_mean            =  -2.5457275460685E-09
(PID.TID 0000.0001) %MON dynstat_wvel_sd              =   6.1789233431121E-07
(PID.TID 0000.0001) %MON dynstat_wvel_del2            =   1.4400985568394E-07
(PID.TID 0000.0001) %MON dynstat_theta_max            =   4.0000000000000E+00
(PID.TID 0000.0001) %MON dynstat_theta_min            =   4.0000000000000E+00
(PID.TID 0000.0001) %MON dynstat_theta_mean           =   4.0000000000000E+00
(PID.TID 0000.0001) %MON dynstat_theta_sd             =   0.0000000000000E+00
(PID.TID 0000.0001) %MON dynstat_theta_del2           =   0.0000000000000E+00
(PID.TID 0000.0001) %MON dynstat_salt_max             =   3.5000000000000E+01
(PID.TID 0000.0001) %MON dynstat_salt_min             =   3.5000000000000E+01
(PID.TID 0000.0001) %MON dynstat_salt_mean            =   3.5000000000000E+01
(PID.TID 0000.0001) %MON dynstat_salt_sd              =   0.0000000000000E+00
(PID.TID 0000.0001) %MON dynstat_salt_del2            =   0.0000000000000E+00
(PID.TID 0000.0001) %MON advcfl_uvel_max              =   1.2395659400125E-05
(PID.TID 0000.0001) %MON advcfl_vvel_max              =   1.5504446157989E-04
(PID.TID 0000.0001) %MON advcfl_wvel_max              =   9.1766573574813E-06
(PID.TID 0000.0001) %MON advcfl_W_hf_max              =   2.2941643393703E-05
(PID.TID 0000.0001) %MON pe_b_mean                    =   5.5752041820865E-11
(PID.TID 0000.0001) %MON ke_max                       =   3.2735346501268E-05
(PID.TID 0000.0001) %MON ke_mean                      =   6.7896854684554E-07
(PID.TID 0000.0001) %MON ke_vol                       =   4.4009158039362E+15
(PID.TID 0000.0001) // =======================================================
(PID.TID 0000.0001) // End MONITOR dynamic field statistics
(PID.TID 0000.0001) // =======================================================
 cg2d_nsa: Sum(rhs),rhsMax =  -3.44550667496142E-03  2.77676422525419E-03
 cg2d_nsa: Sum(rhs),rhsMax =  -4.23987160392793E-03  2.78119166951153E-03
 cg2d_nsa: Sum(rhs),rhsMax =  -5.39114876456473E-03  2.84461356555619E-03
 cg2d_nsa: Sum(rhs),rhsMax =  -6.66774884152479E-03  2.91823911939351E-03
 cg2d_nsa: Sum(rhs),rhsMax =  -7.81760236842725E-03  2.98773885252150E-03
 cg2d_nsa: Sum(rhs),rhsMax =  -8.61805666712761E-03  3.03980211306567E-03
 cg2d_nsa: Sum(rhs),rhsMax =  -8.91908494164321E-03  3.06473925782711E-03
 cg2d_nsa: Sum(rhs),rhsMax =  -8.67143940447221E-03  3.06396596594009E-03
 cg2d_nsa: Sum(rhs),rhsMax =  -7.93449177587552E-03  3.16208626061731E-03
 cg2d_nsa: Sum(rhs),rhsMax =  -6.86259143936530E-03  3.21610125512187E-03
 cg2d_nsa: Sum(rhs),rhsMax =  -5.67301288451233E-03  3.21680816914900E-03
 cg2d_nsa: Sum(rhs),rhsMax =  -4.60212422195993E-03  3.16554822315724E-03
(PID.TID 0000.0001)      cg2d_init_res =   2.44479592849763E-04
(PID.TID 0000.0001)      cg2d_iters(min,last) =      -1      13
(PID.TID 0000.0001)      cg2d_last_res =   2.88668665694011E-15
(PID.TID 0000.0001) // =======================================================
(PID.TID 0000.0001) // Begin MONITOR dynamic field statistics
(PID.TID 0000.0001) // =======================================================
(PID.TID 0000.0001) %MON time_tsnumber                =                    96
(PID.TID 0000.0001) %MON time_secondsf                =   3.4560000000000E+05
(PID.TID 0000.0001) %MON dynstat_eta_max              =   4.4654051835817E-04
(PID.TID 0000.0001) %MON dynstat_eta_min              =   1.5700674404450E-04
(PID.TID 0000.0001) %MON dynstat_eta_mean             =   2.9821764958300E-04
(PID.TID 0000.0001) %MON dynstat_eta_sd               =   9.2660200390913E-05
(PID.TID 0000.0001) %MON dynstat_eta_del2             =   2.9680811277824E-05
(PID.TID 0000.0001) %MON dynstat_uvel_max             =   1.0807724845439E-04
(PID.TID 0000.0001) %MON dynstat_uvel_min             =  -1.0175595375407E-03
(PID.TID 0000.0001) %MON dynstat_uvel_mean            =  -7.4599955322609E-05
(PID.TID 0000.0001) %MON dynstat_uvel_sd              =   1.8343549928408E-04
(PID.TID 0000.0001) %MON dynstat_uvel_del2            =   4.4467881218793E-05
(PID.TID 0000.0001) %MON dynstat_vvel_max             =   9.1013480210514E-03
(PID.TID 0000.0001) %MON dynstat_vvel_min             =  -5.5643408645226E-04
(PID.TID 0000.0001) %MON dynstat_vvel_mean            =   1.4634953025330E-04
(PID.TID 0000.0001) %MON dynstat_vvel_sd              =   1.2315233259217E-03
(PID.TID 0000.0001) %MON dynstat_vvel_del2            =   8.3331467880126E-05
(PID.TID 0000.0001) %MON dynstat_wvel_max             =   7.6869580724562E-07
(PID.TID 0000.0001) %MON dynstat_wvel_min             =  -7.8065149598885E-07
(PID.TID 0000.0001) %MON dynstat_wvel_mean            =  -2.2256314277873E-09
(PID.TID 0000.0001) %MON dynstat_wvel_sd              =   5.1787779963691E-07
(PID.TID 0000.0001) %MON dynstat_wvel_del2            =   1.3036496423987E-07
(PID.TID 0000.0001) %MON dynstat_theta_max            =   4.0000000000000E+00
(PID.TID 0000.0001) %MON dynstat_theta_min            =   4.0000000000000E+00
(PID.TID 0000.0001) %MON dynstat_theta_mean           =   4.0000000000000E+00
(PID.TID 0000.0001) %MON dynstat_theta_sd             =   0.0000000000000E+00
(PID.TID 0000.0001) %MON dynstat_theta_del2           =   0.0000000000000E+00
(PID.TID 0000.0001) %MON dynstat_salt_max             =   3.5000000000000E+01
(PID.TID 0000.0001) %MON dynstat_salt_min             =   3.5000000000000E+01
(PID.TID 0000.0001) %MON dynstat_salt_mean            =   3.5000000000000E+01
(PID.TID 0000.0001) %MON dynstat_salt_sd              =   0.0000000000000E+00
(PID.TID 0000.0001) %MON dynstat_salt_del2            =   0.0000000000000E+00
(PID.TID 0000.0001) %MON advcfl_uvel_max              =   1.8316071675732E-05
(PID.TID 0000.0001) %MON advcfl_vvel_max              =   1.6382426437893E-04
(PID.TID 0000.0001) %MON advcfl_wvel_max              =   8.6214295890898E-06
(PID.TID 0000.0001) %MON advcfl_W_hf_max              =   2.1553573972724E-05
(PID.TID 0000.0001) %MON pe_b_mean                    =   1.0868965644356E-10
(PID.TID 0000.0001) %MON ke_max                       =   3.7094004719551E-05
(PID.TID 0000.0001) %MON ke_mean                      =   7.8864081151317E-07
(PID.TID 0000.0001) %MON ke_vol                       =   4.4009158039362E+15
(PID.TID 0000.0001) // =======================================================
(PID.TID 0000.0001) // End MONITOR dynamic field statistics
(PID.TID 0000.0001) // =======================================================
 cg2d_nsa: Sum(rhs),rhsMax =  -3.85860139912961E-03  3.07378664558317E-03
 cg2d_nsa: Sum(rhs),rhsMax =  -3.58293297477733E-03  2.96071720766658E-03
 cg2d_nsa: Sum(rhs),rhsMax =  -3.82105745081318E-03  2.84938997898949E-03
 cg2d_nsa: Sum(rhs),rhsMax =  -4.51705713557021E-03  2.80618860570211E-03
(PID.TID 0000.0001) %CHECKPOINT       100 ckptA
(PID.TID 0000.0001)   early fc =  0.000000000000000D+00
 --> objf_test(bi,bj)   =  0.473809587569147D-01
(PID.TID 0000.0001)   local fc =  0.473809587569147D-01
(PID.TID 0000.0001)  global fc =  0.473809587569147D-01
(PID.TID 0000.0001) SOLVE_FOR_PRESSURE: putPmEinXvector =    F
 cg2d_nsa: Sum(rhs),rhsMax =   0.00000000000000E+00  0.00000000000000E+00
 cg2d_nsa: Sum(rhs),rhsMax =  -1.50873054610922E-03  6.03492218443701E-05
 cg2d_nsa: Sum(rhs),rhsMax =  -3.96041768353671E-03  2.18766023587220E-04
 cg2d_nsa: Sum(rhs),rhsMax =  -6.70151564470256E-03  4.29236468104834E-04
 cg2d_nsa: Sum(rhs),rhsMax =  -9.17158903539774E-03  6.43184796144661E-04
 cg2d_nsa: Sum(rhs),rhsMax =  -1.08944466273386E-02  8.17951762916730E-04
 cg2d_nsa: Sum(rhs),rhsMax =  -1.15449833390060E-02  9.31105228517862E-04
 cg2d_nsa: Sum(rhs),rhsMax =  -1.10127562438197E-02  9.89364856739475E-04
 cg2d_nsa: Sum(rhs),rhsMax =  -9.42153118113688E-03  1.22456378128443E-03
 cg2d_nsa: Sum(rhs),rhsMax =  -7.10092879417250E-03  1.44777510270361E-03
 cg2d_nsa: Sum(rhs),rhsMax =  -4.51794202872277E-03  1.58982062902970E-03
 cg2d_nsa: Sum(rhs),rhsMax =  -2.18275828108507E-03  1.64357697426163E-03
 cg2d_nsa: Sum(rhs),rhsMax =  -5.47818875169873E-04  1.61756159398061E-03
 cg2d_nsa: Sum(rhs),rhsMax =   7.99729206428621E-05  1.53363856597824E-03
 cg2d_nsa: Sum(rhs),rhsMax =  -4.03103056700378E-04  1.42794064564248E-03
 cg2d_nsa: Sum(rhs),rhsMax =  -1.88087816398002E-03  1.49223780561562E-03
 cg2d_nsa: Sum(rhs),rhsMax =  -4.04408898756440E-03  1.56210440474790E-03
 cg2d_nsa: Sum(rhs),rhsMax =  -6.45462888982739E-03  1.63424213142115E-03
 cg2d_nsa: Sum(rhs),rhsMax =  -8.63394917056602E-03  1.70505819058160E-03
 cg2d_nsa: Sum(rhs),rhsMax =  -1.01577899820896E-02  1.77167127664522E-03
 cg2d_nsa: Sum(rhs),rhsMax =  -1.07385064674389E-02  1.83257530192717E-03
 cg2d_nsa: Sum(rhs),rhsMax =  -1.02790482911620E-02  1.88791212260517E-03
 cg2d_nsa: Sum(rhs),rhsMax =  -8.88852268464210E-03  1.93938684114083E-03
 cg2d_nsa: Sum(rhs),rhsMax =  -6.85700209343233E-03  2.06671962577103E-03
 cg2d_nsa: Sum(rhs),rhsMax =  -4.59527343840648E-03  2.17651147351270E-03
 cg2d_nsa: Sum(rhs),rhsMax =  -2.55199123164009E-03  2.23681621027622E-03
 cg2d_nsa: Sum(rhs),rhsMax =  -1.12489762897494E-03  2.25047700750366E-03
 cg2d_nsa: Sum(rhs),rhsMax =  -5.83637557917001E-04  2.23911227450568E-03
 cg2d_nsa: Sum(rhs),rhsMax =  -1.01911454537642E-03  2.31619526841969E-03
 cg2d_nsa: Sum(rhs),rhsMax =  -2.32886289156781E-03  2.39332628007074E-03
 cg2d_nsa: Sum(rhs),rhsMax =  -4.24067142204376E-03  2.46478012464754E-03
 cg2d_nsa: Sum(rhs),rhsMax =  -6.36913438142652E-03  2.52475933144516E-03
 cg2d_nsa: Sum(rhs),rhsMax =  -8.29342191396727E-03  2.56860713643226E-03
 cg2d_nsa: Sum(rhs),rhsMax =  -9.64059753908283E-03  2.59379160397445E-03
 cg2d_nsa: Sum(rhs),rhsMax =  -1.01580044298846E-02  2.60046741362487E-03
 cg2d_nsa: Sum(rhs),rhsMax =  -9.76069657793556E-03  2.59154640793844E-03
 cg2d_nsa: Sum(rhs),rhsMax =  -8.54505745552105E-03  2.57230689744724E-03
 cg2d_nsa: Sum(rhs),rhsMax =  -6.76655619430475E-03  2.57617678082104E-03
 cg2d_nsa: Sum(rhs),rhsMax =  -4.78666960323290E-03  2.60704657072955E-03
 cg2d_nsa: Sum(rhs),rhsMax =  -2.99995524088840E-03  2.55368004866345E-03
 cg2d_nsa: Sum(rhs),rhsMax =  -1.75595289833664E-03  2.53090267956823E-03
 cg2d_nsa: Sum(rhs),rhsMax =  -1.29134015721695E-03  2.55686897823141E-03
 cg2d_nsa: Sum(rhs),rhsMax =  -1.68547888761829E-03  2.59998586190743E-03
 cg2d_nsa: Sum(rhs),rhsMax =  -2.84766407415454E-03  2.65617340743755E-03
 cg2d_nsa: Sum(rhs),rhsMax =  -4.53801265541873E-03  2.71885907823436E-03
 cg2d_nsa: Sum(rhs),rhsMax =  -6.41728546911956E-03  2.78009792743559E-03
 cg2d_nsa: Sum(rhs),rhsMax =  -8.11533161694994E-03  2.83193125835560E-03
 cg2d_nsa: Sum(rhs),rhsMax =  -9.30436783640324E-03  2.86771962552011E-03
 cg2d_nsa: Sum(rhs),rhsMax =  -9.76260395685167E-03  2.88321602464443E-03
 cg2d_nsa: Sum(rhs),rhsMax =  -9.41588736356230E-03  2.87721816536720E-03
 cg2d_nsa: Sum(rhs),rhsMax =  -8.34958545223980E-03  2.85172238290814E-03
 cg2d_nsa: Sum(rhs),rhsMax =  -6.78891550008817E-03  2.90854929940380E-03
 cg2d_nsa: Sum(rhs),rhsMax =  -5.05216135263872E-03  2.93304374436109E-03
 cg2d_nsa: Sum(rhs),rhsMax =  -3.48645864282595E-03  2.88331760371237E-03
 cg2d_nsa: Sum(rhs),rhsMax =  -2.39907587794035E-03  2.77469260149385E-03
 cg2d_nsa: Sum(rhs),rhsMax =  -1.99776873390528E-03  2.64912183617287E-03
 cg2d_nsa: Sum(rhs),rhsMax =  -2.35175891840163E-03  2.63954764388291E-03
 cg2d_nsa: Sum(rhs),rhsMax =  -3.38063154231061E-03  2.64744430596754E-03
 cg2d_nsa: Sum(rhs),rhsMax =  -4.87283027737351E-03  2.67027733920110E-03
 cg2d_nsa: Sum(rhs),rhsMax =  -6.52958396346892E-03  2.75143061474967E-03
 cg2d_nsa: Sum(rhs),rhsMax =  -8.02517513098642E-03  2.84716527327018E-03
 cg2d_nsa: Sum(rhs),rhsMax =  -9.07141270983088E-03  2.92480128291437E-03
 cg2d_nsa: Sum(rhs),rhsMax =  -9.47356461821928E-03  2.97120288151901E-03
 cg2d_nsa: Sum(rhs),rhsMax =  -9.16691600902542E-03  2.97966804344266E-03
 cg2d_nsa: Sum(rhs),rhsMax =  -8.22712340670304E-03  3.00381237938477E-03
 cg2d_nsa: Sum(rhs),rhsMax =  -6.85280737694790E-03  3.08036411819214E-03
 cg2d_nsa: Sum(rhs),rhsMax =  -5.32430727535908E-03  3.09182671069863E-03
 cg2d_nsa: Sum(rhs),rhsMax =  -3.94713137597638E-03  3.03934310027989E-03
 cg2d_nsa: Sum(rhs),rhsMax =  -2.99148618581432E-03  2.93659606044134E-03
 cg2d_nsa: Sum(rhs),rhsMax =  -2.63983309994827E-03  2.80689805753235E-03
 cg2d_nsa: Sum(rhs),rhsMax =  -2.95262908029430E-03  2.68543416568998E-03
 cg2d_nsa: Sum(rhs),rhsMax =  -3.85865392657745E-03  2.73031558404110E-03
 cg2d_nsa: Sum(rhs),rhsMax =  -5.17138145567531E-03  2.80043602330375E-03
 cg2d_nsa: Sum(rhs),rhsMax =  -6.62770809530579E-03  2.88238464267999E-03
 cg2d_nsa: Sum(rhs),rhsMax =  -7.94102502267931E-03  2.96047703775097E-03
 cg2d_nsa: Sum(rhs),rhsMax =  -8.85794593306007E-03  3.01993446707144E-03
 cg2d_nsa: Sum(rhs),rhsMax =  -9.20747823510136E-03  3.04982329923301E-03
 cg2d_nsa: Sum(rhs),rhsMax =  -8.93311477978064E-03  3.04517980952895E-03
 cg2d_nsa: Sum(rhs),rhsMax =  -8.10185289229750E-03  3.11258929633955E-03
 cg2d_nsa: Sum(rhs),rhsMax =  -6.88878938747751E-03  3.17297132779808E-03
 cg2d_nsa: Sum(rhs),rhsMax =  -5.54076191478552E-03  3.17471656388758E-03
 cg2d_nsa: Sum(rhs),rhsMax =  -4.32655868503513E-03  3.11938175605144E-03
 cg2d_nsa: Sum(rhs),rhsMax =  -3.48371970540533E-03  3.01971788867662E-03
 cg2d_nsa: Sum(rhs),rhsMax =  -3.17244073804406E-03  2.89700828093700E-03
 cg2d_nsa: Sum(rhs),rhsMax =  -3.44550667496142E-03  2.77676422525419E-03
 cg2d_nsa: Sum(rhs),rhsMax =  -4.23987160392793E-03  2.78119166951153E-03
 cg2d_nsa: Sum(rhs),rhsMax =  -5.39114876456473E-03  2.84461356555619E-03
 cg2d_nsa: Sum(rhs),rhsMax =  -6.66774884152479E-03  2.91823911939351E-03
 cg2d_nsa: Sum(rhs),rhsMax =  -7.81760236842725E-03  2.98773885252150E-03
 cg2d_nsa: Sum(rhs),rhsMax =  -8.61805666712761E-03  3.03980211306567E-03
 cg2d_nsa: Sum(rhs),rhsMax =  -8.91908494164321E-03  3.06473925782711E-03
 cg2d_nsa: Sum(rhs),rhsMax =  -8.67143940447221E-03  3.06396596594009E-03
 cg2d_nsa: Sum(rhs),rhsMax =  -7.93449177587552E-03  3.16208626061731E-03
 cg2d_nsa: Sum(rhs),rhsMax =  -6.86259143936530E-03  3.21610125512187E-03
 cg2d_nsa: Sum(rhs),rhsMax =  -5.67301288451233E-03  3.21680816914900E-03
 cg2d_nsa: Sum(rhs),rhsMax =  -4.60212422195993E-03  3.16554822315724E-03
 cg2d_nsa: Sum(rhs),rhsMax =  -3.85860139912961E-03  3.07378664558317E-03
 cg2d_nsa: Sum(rhs),rhsMax =  -3.58293297477733E-03  2.96071720766658E-03
 cg2d_nsa: Sum(rhs),rhsMax =  -3.82105745081318E-03  2.84938997898949E-03
 cg2d_nsa: Sum(rhs),rhsMax =  -4.51705713557021E-03  2.80618860570211E-03
(PID.TID 0000.0001) Did not write pickup because writePickupAtEnd = FALSE
(PID.TID 0000.0001) Did not write pickup because writePickupAtEnd = FALSE
(PID.TID 0000.0001) Did not write pickup because writePickupAtEnd = FALSE
                     ctrl_depth_ini: ctrl update R_low,
                                     adding the control vector.
(PID.TID 0000.0001) Start initial hydrostatic pressure computation
(PID.TID 0000.0001) Pressure is predetermined for buoyancyRelation OCEANIC
(PID.TID 0000.0001) 
(PID.TID 0000.0001) Start initial hydrostatic pressure computation
(PID.TID 0000.0001) Pressure is predetermined for buoyancyRelation OCEANIC
(PID.TID 0000.0001) 
(PID.TID 0000.0001) Start initial hydrostatic pressure computation
(PID.TID 0000.0001) Pressure is predetermined for buoyancyRelation OCEANIC
(PID.TID 0000.0001) 
(PID.TID 0000.0001) Start initial hydrostatic pressure computation
(PID.TID 0000.0001) Pressure is predetermined for buoyancyRelation OCEANIC
(PID.TID 0000.0001) 
 ph-pack: packing ecco_cost
 ph-pack: packing ecco_ctrl
(PID.TID 0000.0001) // =======================================================
(PID.TID 0000.0001) // Gradient-check starts (grdchk_main)
(PID.TID 0000.0001) // =======================================================
(PID.TID 0000.0001) grdchk reference fc: fcref       =  4.73809587569147E-02
grad-res -------------------------------
 grad-res  proc    #    i    j    k   bi   bj iobc       fc ref            fc + eps           fc - eps
 grad-res  proc    #    i    j    k   bi   bj iobc      adj grad            fd grad          1 - fd/adj
(PID.TID 0000.0001) ====== Starts gradient-check number   1 (=ichknum) =======
 ph-test icomp, ncvarcomp, ichknum            1          25           1
 ph-grd _loc: bi, bj, icomptest, ichknum            1           1           0           1
 ph-grd -->hit<--            1           1           1           1
(PID.TID 0000.0001) grdchk pos: i,j,k=    1    1    1 ; bi,bj=   1   1 ; iobc=  1 ; rec=   1
                     ctrl_depth_ini: ctrl update R_low,
                                     adding the control vector.
(PID.TID 0000.0001) Start initial hydrostatic pressure computation
(PID.TID 0000.0001) Pressure is predetermined for buoyancyRelation OCEANIC
(PID.TID 0000.0001) 
(PID.TID 0000.0001) // =======================================================
(PID.TID 0000.0001) // Model current state
(PID.TID 0000.0001) // =======================================================
(PID.TID 0000.0001) 
(PID.TID 0000.0001) SOLVE_FOR_PRESSURE: putPmEinXvector =    F
 cg2d_nsa: Sum(rhs),rhsMax =   0.00000000000000E+00  0.00000000000000E+00
 cg2d_nsa: Sum(rhs),rhsMax =  -1.50873054610922E-03  6.03492218443701E-05
 cg2d_nsa: Sum(rhs),rhsMax =  -3.96041768353671E-03  2.18766023587220E-04
 cg2d_nsa: Sum(rhs),rhsMax =  -6.70151564470138E-03  4.29236467488742E-04
 cg2d_nsa: Sum(rhs),rhsMax =  -9.17158903539461E-03  6.43184794955368E-04
 cg2d_nsa: Sum(rhs),rhsMax =  -1.08944466273340E-02  8.17951761612664E-04
 cg2d_nsa: Sum(rhs),rhsMax =  -1.15449833390010E-02  9.31105227737208E-04
 cg2d_nsa: Sum(rhs),rhsMax =  -1.10127562438162E-02  9.89364856869623E-04
 cg2d_nsa: Sum(rhs),rhsMax =  -9.42153118113775E-03  1.22456378106171E-03
 cg2d_nsa: Sum(rhs),rhsMax =  -7.10092879418124E-03  1.44777510269911E-03
 cg2d_nsa: Sum(rhs),rhsMax =  -4.51794202874265E-03  1.58982062947529E-03
 cg2d_nsa: Sum(rhs),rhsMax =  -2.18275828111734E-03  1.64357697541161E-03
 cg2d_nsa: Sum(rhs),rhsMax =  -5.47818875211491E-04  1.61756159607136E-03
 cg2d_nsa: Sum(rhs),rhsMax =   7.99729206021186E-05  1.53363856918730E-03
 cg2d_nsa: Sum(rhs),rhsMax =  -4.03103056720131E-04  1.42794064483594E-03
 cg2d_nsa: Sum(rhs),rhsMax =  -1.88087816394659E-03  1.49223780427673E-03
 cg2d_nsa: Sum(rhs),rhsMax =  -4.04408898743257E-03  1.56210440285155E-03
 cg2d_nsa: Sum(rhs),rhsMax =  -6.45462888953957E-03  1.63424212900175E-03
 cg2d_nsa: Sum(rhs),rhsMax =  -8.63394917005467E-03  1.70505818772917E-03
 cg2d_nsa: Sum(rhs),rhsMax =  -1.01577899812812E-02  1.77167127349054E-03
 cg2d_nsa: Sum(rhs),rhsMax =  -1.07385064662589E-02  1.83257529861844E-03
 cg2d_nsa: Sum(rhs),rhsMax =  -1.02790482895395E-02  1.88791211928040E-03
 cg2d_nsa: Sum(rhs),rhsMax =  -8.88852268251408E-03  1.93938683790124E-03
 cg2d_nsa: Sum(rhs),rhsMax =  -6.85700209074559E-03  2.06671963530633E-03
 cg2d_nsa: Sum(rhs),rhsMax =  -4.59527343511731E-03  2.17651148376972E-03
 cg2d_nsa: Sum(rhs),rhsMax =  -2.55199122771137E-03  2.23681622160623E-03
 cg2d_nsa: Sum(rhs),rhsMax =  -1.12489762437080E-03  2.25047702025798E-03
 cg2d_nsa: Sum(rhs),rhsMax =  -5.83637552596128E-04  2.23911227109950E-03
 cg2d_nsa: Sum(rhs),rhsMax =  -1.01911453928500E-03  2.31619526455370E-03
 cg2d_nsa: Sum(rhs),rhsMax =  -2.32886288463355E-03  2.39332627560820E-03
 cg2d_nsa: Sum(rhs),rhsMax =  -4.24067141417215E-03  2.46478011950523E-03
 cg2d_nsa: Sum(rhs),rhsMax =  -6.36913437250035E-03  2.52475932560697E-03
 cg2d_nsa: Sum(rhs),rhsMax =  -8.29342190384970E-03  2.56860712995045E-03
 cg2d_nsa: Sum(rhs),rhsMax =  -9.64059752762362E-03  2.59379159695890E-03
 cg2d_nsa: Sum(rhs),rhsMax =  -1.01580044169287E-02  2.60046740622219E-03
 cg2d_nsa: Sum(rhs),rhsMax =  -9.76069656333228E-03  2.59154640030558E-03
 cg2d_nsa: Sum(rhs),rhsMax =  -8.54505743913250E-03  2.57230688972431E-03
 cg2d_nsa: Sum(rhs),rhsMax =  -6.76655617601167E-03  2.57617678614299E-03
 cg2d_nsa: Sum(rhs),rhsMax =  -4.78666958293681E-03  2.60704657565790E-03
 cg2d_nsa: Sum(rhs),rhsMax =  -2.99995521850954E-03  2.55368005309183E-03
 cg2d_nsa: Sum(rhs),rhsMax =  -1.75595287380805E-03  2.53090267194913E-03
 cg2d_nsa: Sum(rhs),rhsMax =  -1.29134013047550E-03  2.55686897050816E-03
 cg2d_nsa: Sum(rhs),rhsMax =  -1.68547885859457E-03  2.59998585397648E-03
 cg2d_nsa: Sum(rhs),rhsMax =  -2.84766404276326E-03  2.65617339920663E-03
 cg2d_nsa: Sum(rhs),rhsMax =  -4.53801262155154E-03  2.71885906964117E-03
 cg2d_nsa: Sum(rhs),rhsMax =  -6.41728543264188E-03  2.78009791845927E-03
 cg2d_nsa: Sum(rhs),rhsMax =  -8.11533157770232E-03  2.83193124901895E-03
 cg2d_nsa: Sum(rhs),rhsMax =  -9.30436779420724E-03  2.86771961588286E-03
 cg2d_nsa: Sum(rhs),rhsMax =  -9.76260391151921E-03  2.88321601478928E-03
 cg2d_nsa: Sum(rhs),rhsMax =  -9.41588731490689E-03  2.87721815538191E-03
 cg2d_nsa: Sum(rhs),rhsMax =  -8.34958540008749E-03  2.85172237286800E-03
 cg2d_nsa: Sum(rhs),rhsMax =  -6.78891544428611E-03  2.90854930502974E-03
 cg2d_nsa: Sum(rhs),rhsMax =  -5.05216129305996E-03  2.93304374942356E-03
 cg2d_nsa: Sum(rhs),rhsMax =  -3.48645857936935E-03  2.88331760809233E-03
 cg2d_nsa: Sum(rhs),rhsMax =  -2.39907581052582E-03  2.77469260519579E-03
 cg2d_nsa: Sum(rhs),rhsMax =  -1.99776866246515E-03  2.64912182597163E-03
 cg2d_nsa: Sum(rhs),rhsMax =  -2.35175884286995E-03  2.63954763352608E-03
 cg2d_nsa: Sum(rhs),rhsMax =  -3.38063146261235E-03  2.64744429542217E-03
 cg2d_nsa: Sum(rhs),rhsMax =  -4.87283019341600E-03  2.67027732846099E-03
 cg2d_nsa: Sum(rhs),rhsMax =  -6.52958387513699E-03  2.75143054651393E-03
 cg2d_nsa: Sum(rhs),rhsMax =  -8.02517503814236E-03  2.84716520454155E-03
 cg2d_nsa: Sum(rhs),rhsMax =  -9.07141261231919E-03  2.92480121322825E-03
 cg2d_nsa: Sum(rhs),rhsMax =  -9.47356451587533E-03  2.97120281033472E-03
 cg2d_nsa: Sum(rhs),rhsMax =  -9.16691590168637E-03  2.97966797026583E-03
 cg2d_nsa: Sum(rhs),rhsMax =  -8.22712329421863E-03  3.00381238341775E-03
 cg2d_nsa: Sum(rhs),rhsMax =  -6.85280725918932E-03  3.08036412163280E-03
 cg2d_nsa: Sum(rhs),rhsMax =  -5.32430715222395E-03  3.09182671335300E-03
 cg2d_nsa: Sum(rhs),rhsMax =  -3.94713124738891E-03  3.03934310207195E-03
 cg2d_nsa: Sum(rhs),rhsMax =  -2.99148605172061E-03  2.93659606142850E-03
 cg2d_nsa: Sum(rhs),rhsMax =  -2.63983296030783E-03  2.80689805789317E-03
 cg2d_nsa: Sum(rhs),rhsMax =  -2.95262893506933E-03  2.68543408135181E-03
 cg2d_nsa: Sum(rhs),rhsMax =  -3.85865377572216E-03  2.73031549979264E-03
 cg2d_nsa: Sum(rhs),rhsMax =  -5.17138129912759E-03  2.80043593919785E-03
 cg2d_nsa: Sum(rhs),rhsMax =  -6.62770793298264E-03  2.88238455849348E-03
 cg2d_nsa: Sum(rhs),rhsMax =  -7.94102485447737E-03  2.96047695302632E-03
 cg2d_nsa: Sum(rhs),rhsMax =  -8.85794575886097E-03  3.01993438120737E-03
 cg2d_nsa: Sum(rhs),rhsMax =  -9.20747805478085E-03  3.04982321160573E-03
 cg2d_nsa: Sum(rhs),rhsMax =  -8.93311459321980E-03  3.04517971961935E-03
 cg2d_nsa: Sum(rhs),rhsMax =  -8.10185269939374E-03  3.11258929644994E-03
 cg2d_nsa: Sum(rhs),rhsMax =  -6.88878918815300E-03  3.17297132696764E-03
 cg2d_nsa: Sum(rhs),rhsMax =  -5.54076170899129E-03  3.17471656193041E-03
 cg2d_nsa: Sum(rhs),rhsMax =  -4.32655847275006E-03  3.11938175292692E-03
 cg2d_nsa: Sum(rhs),rhsMax =  -3.48371948663003E-03  3.01971788449936E-03
 cg2d_nsa: Sum(rhs),rhsMax =  -3.17244051279073E-03  2.89700827595530E-03
 cg2d_nsa: Sum(rhs),rhsMax =  -3.44550644324173E-03  2.77676421980125E-03
 cg2d_nsa: Sum(rhs),rhsMax =  -4.23987136574139E-03  2.78119156868109E-03
 cg2d_nsa: Sum(rhs),rhsMax =  -5.39114851988965E-03  2.84461346509753E-03
 cg2d_nsa: Sum(rhs),rhsMax =  -6.66774859031404E-03  2.91823901906971E-03
 cg2d_nsa: Sum(rhs),rhsMax =  -7.81760211060947E-03  2.98773875185476E-03
 cg2d_nsa: Sum(rhs),rhsMax =  -8.61805640261389E-03  3.03980201143323E-03
 cg2d_nsa: Sum(rhs),rhsMax =  -8.91908467033798E-03  3.06473915458509E-03
 cg2d_nsa: Sum(rhs),rhsMax =  -8.67143912628621E-03  3.06396596110164E-03
 cg2d_nsa: Sum(rhs),rhsMax =  -7.93449149073829E-03  3.16208625498577E-03
 cg2d_nsa: Sum(rhs),rhsMax =  -6.86259114723480E-03  3.21610124836298E-03
 cg2d_nsa: Sum(rhs),rhsMax =  -5.67301258537960E-03  3.21680816104889E-03
 cg2d_nsa: Sum(rhs),rhsMax =  -4.60212391584780E-03  3.16554821366416E-03
 cg2d_nsa: Sum(rhs),rhsMax =  -3.85860108608553E-03  3.07378663481757E-03
 cg2d_nsa: Sum(rhs),rhsMax =  -3.58293265486185E-03  2.96071719589749E-03
 cg2d_nsa: Sum(rhs),rhsMax =  -3.82105712408590E-03  2.84938996658177E-03
 cg2d_nsa: Sum(rhs),rhsMax =  -4.51705680207616E-03  2.80618848943852E-03
(PID.TID 0000.0001) Did not write pickup because writePickupAtEnd = FALSE
(PID.TID 0000.0001)   early fc =  0.000000000000000D+00
 --> objf_test(bi,bj)   =  0.473809593230969D-01
(PID.TID 0000.0001)   local fc =  0.473809593230969D-01
(PID.TID 0000.0001)  global fc =  0.473809593230969D-01
(PID.TID 0000.0001) grdchk perturb(+)fc: fcpertplus  =  4.73809593230969E-02
                     ctrl_depth_ini: ctrl update R_low,
                                     adding the control vector.
(PID.TID 0000.0001) Start initial hydrostatic pressure computation
(PID.TID 0000.0001) Pressure is predetermined for buoyancyRelation OCEANIC
(PID.TID 0000.0001) 
(PID.TID 0000.0001) // =======================================================
(PID.TID 0000.0001) // Model current state
(PID.TID 0000.0001) // =======================================================
(PID.TID 0000.0001) 
(PID.TID 0000.0001) SOLVE_FOR_PRESSURE: putPmEinXvector =    F
 cg2d_nsa: Sum(rhs),rhsMax =   0.00000000000000E+00  0.00000000000000E+00
 cg2d_nsa: Sum(rhs),rhsMax =  -1.50873054610922E-03  6.03492218443701E-05
 cg2d_nsa: Sum(rhs),rhsMax =  -3.96041768353671E-03  2.18766023587219E-04
 cg2d_nsa: Sum(rhs),rhsMax =  -6.70151564470377E-03  4.29236468720922E-04
 cg2d_nsa: Sum(rhs),rhsMax =  -9.17158903540093E-03  6.43184797333949E-04
 cg2d_nsa: Sum(rhs),rhsMax =  -1.08944466273432E-02  8.17951764220796E-04
 cg2d_nsa: Sum(rhs),rhsMax =  -1.15449833390109E-02  9.31105229298516E-04
 cg2d_nsa: Sum(rhs),rhsMax =  -1.10127562438232E-02  9.89364856609334E-04
 cg2d_nsa: Sum(rhs),rhsMax =  -9.42153118113605E-03  1.22456378150714E-03
 cg2d_nsa: Sum(rhs),rhsMax =  -7.10092879416377E-03  1.44777510270814E-03
 cg2d_nsa: Sum(rhs),rhsMax =  -4.51794202870289E-03  1.58982062858412E-03
 cg2d_nsa: Sum(rhs),rhsMax =  -2.18275828105275E-03  1.64357697311164E-03
 cg2d_nsa: Sum(rhs),rhsMax =  -5.47818875128218E-04  1.61756159188988E-03
 cg2d_nsa: Sum(rhs),rhsMax =   7.99729206836555E-05  1.53363856276919E-03
 cg2d_nsa: Sum(rhs),rhsMax =  -4.03103056680585E-04  1.42794064644902E-03
 cg2d_nsa: Sum(rhs),rhsMax =  -1.88087816401342E-03  1.49223780695450E-03
 cg2d_nsa: Sum(rhs),rhsMax =  -4.04408898769620E-03  1.56210440664426E-03
 cg2d_nsa: Sum(rhs),rhsMax =  -6.45462889011519E-03  1.63424213384056E-03
 cg2d_nsa: Sum(rhs),rhsMax =  -8.63394917107733E-03  1.70505819343404E-03
 cg2d_nsa: Sum(rhs),rhsMax =  -1.01577899828979E-02  1.77167127979990E-03
 cg2d_nsa: Sum(rhs),rhsMax =  -1.07385064686189E-02  1.83257530523591E-03
 cg2d_nsa: Sum(rhs),rhsMax =  -1.02790482927845E-02  1.88791212592995E-03
 cg2d_nsa: Sum(rhs),rhsMax =  -8.88852268677008E-03  1.93938684438042E-03
 cg2d_nsa: Sum(rhs),rhsMax =  -6.85700209611900E-03  2.06671961623574E-03
 cg2d_nsa: Sum(rhs),rhsMax =  -4.59527344169556E-03  2.17651146325569E-03
 cg2d_nsa: Sum(rhs),rhsMax =  -2.55199123556872E-03  2.23681619894620E-03
 cg2d_nsa: Sum(rhs),rhsMax =  -1.12489763357898E-03  2.25047699474935E-03
 cg2d_nsa: Sum(rhs),rhsMax =  -5.83637563237776E-04  2.23911227791186E-03
 cg2d_nsa: Sum(rhs),rhsMax =  -1.01911455146773E-03  2.31619527228567E-03
 cg2d_nsa: Sum(rhs),rhsMax =  -2.32886289850197E-03  2.39332628453329E-03
 cg2d_nsa: Sum(rhs),rhsMax =  -4.24067142991527E-03  2.46478012978984E-03
 cg2d_nsa: Sum(rhs),rhsMax =  -6.36913439035257E-03  2.52475933728335E-03
 cg2d_nsa: Sum(rhs),rhsMax =  -8.29342192408473E-03  2.56860714291404E-03
 cg2d_nsa: Sum(rhs),rhsMax =  -9.64059755054189E-03  2.59379161099000E-03
 cg2d_nsa: Sum(rhs),rhsMax =  -1.01580044428404E-02  2.60046742102755E-03
 cg2d_nsa: Sum(rhs),rhsMax =  -9.76069659253873E-03  2.59154641557129E-03
 cg2d_nsa: Sum(rhs),rhsMax =  -8.54505747190950E-03  2.57230690517015E-03
 cg2d_nsa: Sum(rhs),rhsMax =  -6.76655621259773E-03  2.57617677549908E-03
 cg2d_nsa: Sum(rhs),rhsMax =  -4.78666962352892E-03  2.60704656580122E-03
 cg2d_nsa: Sum(rhs),rhsMax =  -2.99995526326717E-03  2.55368004423507E-03
 cg2d_nsa: Sum(rhs),rhsMax =  -1.75595292286517E-03  2.53090268718731E-03
 cg2d_nsa: Sum(rhs),rhsMax =  -1.29134018395833E-03  2.55686898595466E-03
 cg2d_nsa: Sum(rhs),rhsMax =  -1.68547891664193E-03  2.59998586983837E-03
 cg2d_nsa: Sum(rhs),rhsMax =  -2.84766410554575E-03  2.65617341566846E-03
 cg2d_nsa: Sum(rhs),rhsMax =  -4.53801268928584E-03  2.71885908682754E-03
 cg2d_nsa: Sum(rhs),rhsMax =  -6.41728550559718E-03  2.78009793641193E-03
 cg2d_nsa: Sum(rhs),rhsMax =  -8.11533165619751E-03  2.83193126769227E-03
 cg2d_nsa: Sum(rhs),rhsMax =  -9.30436787859923E-03  2.86771963515735E-03
 cg2d_nsa: Sum(rhs),rhsMax =  -9.76260400218411E-03  2.88321603449960E-03
 cg2d_nsa: Sum(rhs),rhsMax =  -9.41588741221766E-03  2.87721817535245E-03
 cg2d_nsa: Sum(rhs),rhsMax =  -8.34958550439207E-03  2.85172239294824E-03
 cg2d_nsa: Sum(rhs),rhsMax =  -6.78891555589017E-03  2.90854929377785E-03
 cg2d_nsa: Sum(rhs),rhsMax =  -5.05216141221741E-03  2.93304373929864E-03
 cg2d_nsa: Sum(rhs),rhsMax =  -3.48645870628246E-03  2.88331759933239E-03
 cg2d_nsa: Sum(rhs),rhsMax =  -2.39907594535478E-03  2.77469259779189E-03
 cg2d_nsa: Sum(rhs),rhsMax =  -1.99776880534531E-03  2.64912184637411E-03
 cg2d_nsa: Sum(rhs),rhsMax =  -2.35175899393324E-03  2.63954765423974E-03
 cg2d_nsa: Sum(rhs),rhsMax =  -3.38063162200879E-03  2.64744431651291E-03
 cg2d_nsa: Sum(rhs),rhsMax =  -4.87283036133093E-03  2.67027734994121E-03
 cg2d_nsa: Sum(rhs),rhsMax =  -6.52958405180076E-03  2.75143068298541E-03
 cg2d_nsa: Sum(rhs),rhsMax =  -8.02517522383038E-03  2.84716534199880E-03
 cg2d_nsa: Sum(rhs),rhsMax =  -9.07141280734246E-03  2.92480135260048E-03
 cg2d_nsa: Sum(rhs),rhsMax =  -9.47356472056307E-03  2.97120295270329E-03
 cg2d_nsa: Sum(rhs),rhsMax =  -9.16691611636434E-03  2.97966811661949E-03
 cg2d_nsa: Sum(rhs),rhsMax =  -8.22712351918731E-03  3.00381237535178E-03
 cg2d_nsa: Sum(rhs),rhsMax =  -6.85280749470633E-03  3.08036411475148E-03
 cg2d_nsa: Sum(rhs),rhsMax =  -5.32430739849406E-03  3.09182670804423E-03
 cg2d_nsa: Sum(rhs),rhsMax =  -3.94713150456370E-03  3.03934309848782E-03
 cg2d_nsa: Sum(rhs),rhsMax =  -2.99148631990783E-03  2.93659605945416E-03
 cg2d_nsa: Sum(rhs),rhsMax =  -2.63983323958852E-03  2.80689805717152E-03
 cg2d_nsa: Sum(rhs),rhsMax =  -2.95262922551908E-03  2.68543425002815E-03
 cg2d_nsa: Sum(rhs),rhsMax =  -3.85865407743252E-03  2.73031566828955E-03
 cg2d_nsa: Sum(rhs),rhsMax =  -5.17138161222282E-03  2.80043610740963E-03
 cg2d_nsa: Sum(rhs),rhsMax =  -6.62770825762873E-03  2.88238472686649E-03
 cg2d_nsa: Sum(rhs),rhsMax =  -7.94102519088104E-03  2.96047712247560E-03
 cg2d_nsa: Sum(rhs),rhsMax =  -8.85794610725897E-03  3.01993455293549E-03
 cg2d_nsa: Sum(rhs),rhsMax =  -9.20747841542174E-03  3.04982338686028E-03
 cg2d_nsa: Sum(rhs),rhsMax =  -8.93311496634132E-03  3.04517989943855E-03
 cg2d_nsa: Sum(rhs),rhsMax =  -8.10185308520107E-03  3.11258929622915E-03
 cg2d_nsa: Sum(rhs),rhsMax =  -6.88878958680187E-03  3.17297132862852E-03
 cg2d_nsa: Sum(rhs),rhsMax =  -5.54076212057961E-03  3.17471656584476E-03
 cg2d_nsa: Sum(rhs),rhsMax =  -4.32655889732003E-03  3.11938175917593E-03
 cg2d_nsa: Sum(rhs),rhsMax =  -3.48371992418046E-03  3.01971789285386E-03
 cg2d_nsa: Sum(rhs),rhsMax =  -3.17244096329724E-03  2.89700828591868E-03
 cg2d_nsa: Sum(rhs),rhsMax =  -3.44550690668093E-03  2.77676423070713E-03
 cg2d_nsa: Sum(rhs),rhsMax =  -4.23987184211433E-03  2.78119177034196E-03
 cg2d_nsa: Sum(rhs),rhsMax =  -5.39114900923966E-03  2.84461366601485E-03
 cg2d_nsa: Sum(rhs),rhsMax =  -6.66774909273540E-03  2.91823921971732E-03
 cg2d_nsa: Sum(rhs),rhsMax =  -7.81760262624490E-03  2.98773895318824E-03
 cg2d_nsa: Sum(rhs),rhsMax =  -8.61805693164119E-03  3.03980221469812E-03
 cg2d_nsa: Sum(rhs),rhsMax =  -8.91908521294829E-03  3.06473936106915E-03
 cg2d_nsa: Sum(rhs),rhsMax =  -8.67143968265808E-03  3.06396597077855E-03
 cg2d_nsa: Sum(rhs),rhsMax =  -7.93449206101261E-03  3.16208626624884E-03
 cg2d_nsa: Sum(rhs),rhsMax =  -6.86259173149566E-03  3.21610126188076E-03
 cg2d_nsa: Sum(rhs),rhsMax =  -5.67301318364491E-03  3.21680817724908E-03
 cg2d_nsa: Sum(rhs),rhsMax =  -4.60212452807195E-03  3.16554823265030E-03
 cg2d_nsa: Sum(rhs),rhsMax =  -3.85860171217358E-03  3.07378665634878E-03
 cg2d_nsa: Sum(rhs),rhsMax =  -3.58293329469273E-03  2.96071721943564E-03
 cg2d_nsa: Sum(rhs),rhsMax =  -3.82105777754038E-03  2.84938999139719E-03
 cg2d_nsa: Sum(rhs),rhsMax =  -4.51705746906418E-03  2.80618872196568E-03
(PID.TID 0000.0001) Did not write pickup because writePickupAtEnd = FALSE
(PID.TID 0000.0001)   early fc =  0.000000000000000D+00
 --> objf_test(bi,bj)   =  0.473809581907324D-01
(PID.TID 0000.0001)   local fc =  0.473809581907324D-01
(PID.TID 0000.0001)  global fc =  0.473809581907324D-01
(PID.TID 0000.0001) grdchk perturb(-)fc: fcpertminus =  4.73809581907324E-02
grad-res -------------------------------
 grad-res     0    1    1    1    1    1    1    1   4.73809587569E-02  4.73809593231E-02  4.73809581907E-02
 grad-res     0    1    1    1    0    1    1    1   5.66182268558E-06  5.66182278144E-06 -1.69312097675E-08
(PID.TID 0000.0001)  ADM  ref_cost_function      =  4.73809587569147E-02
(PID.TID 0000.0001)  ADM  adjoint_gradient       =  5.66182268558272E-06
(PID.TID 0000.0001)  ADM  finite-diff_grad       =  5.66182278144423E-06
(PID.TID 0000.0001) ====== End of gradient-check number   1 (ierr=  0) =======
(PID.TID 0000.0001) ====== Starts gradient-check number   2 (=ichknum) =======
 ph-test icomp, ncvarcomp, ichknum            4          25           2
 ph-grd _loc: bi, bj, icomptest, ichknum            1           1           1           2
 ph-grd -->hit<--            4           1           1           1
(PID.TID 0000.0001) grdchk pos: i,j,k=    4    1    1 ; bi,bj=   1   1 ; iobc=  1 ; rec=   1
                     ctrl_depth_ini: ctrl update R_low,
                                     adding the control vector.
(PID.TID 0000.0001) Start initial hydrostatic pressure computation
(PID.TID 0000.0001) Pressure is predetermined for buoyancyRelation OCEANIC
(PID.TID 0000.0001) 
(PID.TID 0000.0001) // =======================================================
(PID.TID 0000.0001) // Model current state
(PID.TID 0000.0001) // =======================================================
(PID.TID 0000.0001) 
(PID.TID 0000.0001) SOLVE_FOR_PRESSURE: putPmEinXvector =    F
 cg2d_nsa: Sum(rhs),rhsMax =   0.00000000000000E+00  0.00000000000000E+00
 cg2d_nsa: Sum(rhs),rhsMax =  -1.50873054610922E-03  6.03492218443701E-05
 cg2d_nsa: Sum(rhs),rhsMax =  -3.96041768353671E-03  2.18766023587220E-04
 cg2d_nsa: Sum(rhs),rhsMax =  -6.70151564470985E-03  4.29236468120608E-04
 cg2d_nsa: Sum(rhs),rhsMax =  -9.17158903540681E-03  6.43184796173781E-04
 cg2d_nsa: Sum(rhs),rhsMax =  -1.08944466273309E-02  8.17951763010787E-04
 cg2d_nsa: Sum(rhs),rhsMax =  -1.15449833389539E-02  9.31105228758608E-04
 cg2d_nsa: Sum(rhs),rhsMax =  -1.10127562436925E-02  9.89364856920780E-04
 cg2d_nsa: Sum(rhs),rhsMax =  -9.42153118090900E-03  1.22456378186794E-03
 cg2d_nsa: Sum(rhs),rhsMax =  -7.10092879383176E-03  1.44777510334630E-03
 cg2d_nsa: Sum(rhs),rhsMax =  -4.51794202827625E-03  1.58982062959724E-03
 cg2d_nsa: Sum(rhs),rhsMax =  -2.18275828056080E-03  1.64357697457643E-03
 cg2d_nsa: Sum(rhs),rhsMax =  -5.47818874613423E-04  1.61756159384465E-03
 cg2d_nsa: Sum(rhs),rhsMax =   7.99729211766823E-05  1.53363856520277E-03
 cg2d_nsa: Sum(rhs),rhsMax =  -4.03103056241608E-04  1.42794063208180E-03
 cg2d_nsa: Sum(rhs),rhsMax =  -1.88087816363374E-03  1.49223779028213E-03
 cg2d_nsa: Sum(rhs),rhsMax =  -4.04408898734254E-03  1.56210438853546E-03
 cg2d_nsa: Sum(rhs),rhsMax =  -6.45462888971060E-03  1.63424211534215E-03
 cg2d_nsa: Sum(rhs),rhsMax =  -8.63394917050451E-03  1.70505817559923E-03
 cg2d_nsa: Sum(rhs),rhsMax =  -1.01577899820112E-02  1.77167126350288E-03
 cg2d_nsa: Sum(rhs),rhsMax =  -1.07385064672630E-02  1.83257529100700E-03
 cg2d_nsa: Sum(rhs),rhsMax =  -1.02790482908174E-02  1.88791211384394E-03
 cg2d_nsa: Sum(rhs),rhsMax =  -8.88852268408457E-03  1.93938683402173E-03
 cg2d_nsa: Sum(rhs),rhsMax =  -6.85700209265914E-03  2.06671962014826E-03
 cg2d_nsa: Sum(rhs),rhsMax =  -4.59527343746412E-03  2.17651146776350E-03
 cg2d_nsa: Sum(rhs),rhsMax =  -2.55199123062332E-03  2.23681620422028E-03
 cg2d_nsa: Sum(rhs),rhsMax =  -1.12489762801699E-03  2.25047700090579E-03
 cg2d_nsa: Sum(rhs),rhsMax =  -5.83637557172172E-04  2.23911226023411E-03
 cg2d_nsa: Sum(rhs),rhsMax =  -1.01911454499833E-03  2.31619525057637E-03
 cg2d_nsa: Sum(rhs),rhsMax =  -2.32886289168741E-03  2.39332625889250E-03
 cg2d_nsa: Sum(rhs),rhsMax =  -4.24067142275136E-03  2.46478010082058E-03
 cg2d_nsa: Sum(rhs),rhsMax =  -6.36913438276180E-03  2.52475930598483E-03
 cg2d_nsa: Sum(rhs),rhsMax =  -8.29342191591937E-03  2.56860711050734E-03
 cg2d_nsa: Sum(rhs),rhsMax =  -9.64059754160104E-03  2.59379157870800E-03
 cg2d_nsa: Sum(rhs),rhsMax =  -1.01580044328977E-02  2.60046738990698E-03
 cg2d_nsa: Sum(rhs),rhsMax =  -9.76069658137627E-03  2.59154638628436E-03
 cg2d_nsa: Sum(rhs),rhsMax =  -8.54505745935095E-03  2.57230687792512E-03
 cg2d_nsa: Sum(rhs),rhsMax =  -6.76655619853467E-03  2.57617678823099E-03
 cg2d_nsa: Sum(rhs),rhsMax =  -4.78666960793459E-03  2.60704657821872E-03
 cg2d_nsa: Sum(rhs),rhsMax =  -2.99995524619506E-03  2.55368005623052E-03
 cg2d_nsa: Sum(rhs),rhsMax =  -1.75595290443198E-03  2.53090266210142E-03
 cg2d_nsa: Sum(rhs),rhsMax =  -1.29134016431446E-03  2.55686895908837E-03
 cg2d_nsa: Sum(rhs),rhsMax =  -1.68547889593482E-03  2.59998584054388E-03
 cg2d_nsa: Sum(rhs),rhsMax =  -2.84766408388307E-03  2.65617338366665E-03
 cg2d_nsa: Sum(rhs),rhsMax =  -4.53801266670565E-03  2.71885905223599E-03
 cg2d_nsa: Sum(rhs),rhsMax =  -6.41728548205094E-03  2.78009789969750E-03
 cg2d_nsa: Sum(rhs),rhsMax =  -8.11533163154949E-03  2.83193122956114E-03
 cg2d_nsa: Sum(rhs),rhsMax =  -9.30436785264246E-03  2.86771959640692E-03
 cg2d_nsa: Sum(rhs),rhsMax =  -9.76260397467010E-03  2.88321599586268E-03
 cg2d_nsa: Sum(rhs),rhsMax =  -9.41588738289399E-03  2.87721813736482E-03
 cg2d_nsa: Sum(rhs),rhsMax =  -8.34958547304081E-03  2.85172235586414E-03
 cg2d_nsa: Sum(rhs),rhsMax =  -6.78891552235926E-03  2.90854931139277E-03
 cg2d_nsa: Sum(rhs),rhsMax =  -5.05216137643910E-03  2.93304375657958E-03
 cg2d_nsa: Sum(rhs),rhsMax =  -3.48645866827514E-03  2.88331761615468E-03
 cg2d_nsa: Sum(rhs),rhsMax =  -2.39907590520765E-03  2.77469261418109E-03
 cg2d_nsa: Sum(rhs),rhsMax =  -1.99776876318910E-03  2.64912180937078E-03
 cg2d_nsa: Sum(rhs),rhsMax =  -2.35175894990260E-03  2.63954761605400E-03
 cg2d_nsa: Sum(rhs),rhsMax =  -3.38063157620391E-03  2.64744427711027E-03
 cg2d_nsa: Sum(rhs),rhsMax =  -4.87283031378604E-03  2.67027730952194E-03
 cg2d_nsa: Sum(rhs),rhsMax =  -6.52958400246564E-03  2.75143066683093E-03
 cg2d_nsa: Sum(rhs),rhsMax =  -8.02517517256883E-03  2.84716532501711E-03
 cg2d_nsa: Sum(rhs),rhsMax =  -9.07141275394778E-03  2.92480133476302E-03
 cg2d_nsa: Sum(rhs),rhsMax =  -9.47356466478763E-03  2.97120293399576E-03
 cg2d_nsa: Sum(rhs),rhsMax =  -9.16691605795709E-03  2.97966809704802E-03
 cg2d_nsa: Sum(rhs),rhsMax =  -8.22712345793193E-03  3.00381239580819E-03
 cg2d_nsa: Sum(rhs),rhsMax =  -6.85280743045202E-03  3.08036413490131E-03
 cg2d_nsa: Sum(rhs),rhsMax =  -5.32430733117302E-03  3.09182672769897E-03
 cg2d_nsa: Sum(rhs),rhsMax =  -3.94713143419157E-03  3.03934311759828E-03
 cg2d_nsa: Sum(rhs),rhsMax =  -2.99148624656701E-03  2.93659607812137E-03
 cg2d_nsa: Sum(rhs),rhsMax =  -2.63983316339790E-03  2.80689807562560E-03
 cg2d_nsa: Sum(rhs),rhsMax =  -2.95262914659626E-03  2.68543422549723E-03
 cg2d_nsa: Sum(rhs),rhsMax =  -3.85865399585612E-03  2.73031564307394E-03
 cg2d_nsa: Sum(rhs),rhsMax =  -5.17138152800286E-03  2.80043608144609E-03
 cg2d_nsa: Sum(rhs),rhsMax =  -6.62770817069104E-03  2.88238470008209E-03
 cg2d_nsa: Sum(rhs),rhsMax =  -7.94102510106914E-03  2.96047709480207E-03
 cg2d_nsa: Sum(rhs),rhsMax =  -8.85794601435311E-03  3.01993452432347E-03
 cg2d_nsa: Sum(rhs),rhsMax =  -9.20747831917135E-03  3.04982335729075E-03
 cg2d_nsa: Sum(rhs),rhsMax =  -8.93311486650460E-03  3.04517986892896E-03
 cg2d_nsa: Sum(rhs),rhsMax =  -8.10185298158325E-03  3.11258931821411E-03
 cg2d_nsa: Sum(rhs),rhsMax =  -6.88878947928477E-03  3.17297134992252E-03
 cg2d_nsa: Sum(rhs),rhsMax =  -5.54076200913604E-03  3.17471658627482E-03
 cg2d_nsa: Sum(rhs),rhsMax =  -4.32655878201007E-03  3.11938177874007E-03
 cg2d_nsa: Sum(rhs),rhsMax =  -3.48371980512996E-03  3.01971791172388E-03
 cg2d_nsa: Sum(rhs),rhsMax =  -3.17244084066298E-03  2.89700830440805E-03
 cg2d_nsa: Sum(rhs),rhsMax =  -3.44550678060908E-03  2.77676424920953E-03
 cg2d_nsa: Sum(rhs),rhsMax =  -4.23987171270059E-03  2.78119173488315E-03
 cg2d_nsa: Sum(rhs),rhsMax =  -5.39114887649935E-03  2.84461363001457E-03
 cg2d_nsa: Sum(rhs),rhsMax =  -6.66774895658946E-03  2.91823918309634E-03
 cg2d_nsa: Sum(rhs),rhsMax =  -7.81760248652506E-03  2.98773891586120E-03
 cg2d_nsa: Sum(rhs),rhsMax =  -8.61805678811347E-03  3.03980217658984E-03
 cg2d_nsa: Sum(rhs),rhsMax =  -8.91908506535040E-03  3.06473932212888E-03
 cg2d_nsa: Sum(rhs),rhsMax =  -8.67143953074334E-03  3.06396599312106E-03
 cg2d_nsa: Sum(rhs),rhsMax =  -7.93449190459186E-03  3.16208628805002E-03
 cg2d_nsa: Sum(rhs),rhsMax =  -6.86259157046862E-03  3.21610128277771E-03
 cg2d_nsa: Sum(rhs),rhsMax =  -5.67301301801465E-03  3.21680819702746E-03
 cg2d_nsa: Sum(rhs),rhsMax =  -4.60212435793943E-03  3.16554825128510E-03
 cg2d_nsa: Sum(rhs),rhsMax =  -3.85860153771303E-03  3.07378667400834E-03
 cg2d_nsa: Sum(rhs),rhsMax =  -3.58293311611265E-03  2.96071723644807E-03
 cg2d_nsa: Sum(rhs),rhsMax =  -3.82105759503765E-03  2.84939000818560E-03
 cg2d_nsa: Sum(rhs),rhsMax =  -4.51705728278022E-03  2.80618867741285E-03
(PID.TID 0000.0001) Did not write pickup because writePickupAtEnd = FALSE
(PID.TID 0000.0001)   early fc =  0.000000000000000D+00
 --> objf_test(bi,bj)   =  0.473809587541174D-01
(PID.TID 0000.0001)   local fc =  0.473809587541174D-01
(PID.TID 0000.0001)  global fc =  0.473809587541174D-01
(PID.TID 0000.0001) grdchk perturb(+)fc: fcpertplus  =  4.73809587541174E-02
                     ctrl_depth_ini: ctrl update R_low,
                                     adding the control vector.
(PID.TID 0000.0001) Start initial hydrostatic pressure computation
(PID.TID 0000.0001) Pressure is predetermined for buoyancyRelation OCEANIC
(PID.TID 0000.0001) 
(PID.TID 0000.0001) // =======================================================
(PID.TID 0000.0001) // Model current state
(PID.TID 0000.0001) // =======================================================
(PID.TID 0000.0001) 
(PID.TID 0000.0001) SOLVE_FOR_PRESSURE: putPmEinXvector =    F
 cg2d_nsa: Sum(rhs),rhsMax =   0.00000000000000E+00  0.00000000000000E+00
 cg2d_nsa: Sum(rhs),rhsMax =  -1.50873054610922E-03  6.03492218443701E-05
 cg2d_nsa: Sum(rhs),rhsMax =  -3.96041768353671E-03  2.18766023587220E-04
 cg2d_nsa: Sum(rhs),rhsMax =  -6.70151564469530E-03  4.29236468089057E-04
 cg2d_nsa: Sum(rhs),rhsMax =  -9.17158903538871E-03  6.43184796115542E-04
 cg2d_nsa: Sum(rhs),rhsMax =  -1.08944466273463E-02  8.17951762822661E-04
 cg2d_nsa: Sum(rhs),rhsMax =  -1.15449833390581E-02  9.31105228277124E-04
 cg2d_nsa: Sum(rhs),rhsMax =  -1.10127562439470E-02  9.89364856558175E-04
 cg2d_nsa: Sum(rhs),rhsMax =  -9.42153118136480E-03  1.22456378070089E-03
 cg2d_nsa: Sum(rhs),rhsMax =  -7.10092879451325E-03  1.44777510206094E-03
 cg2d_nsa: Sum(rhs),rhsMax =  -4.51794202916928E-03  1.58982062846217E-03
 cg2d_nsa: Sum(rhs),rhsMax =  -2.18275828160931E-03  1.64357697394683E-03
 cg2d_nsa: Sum(rhs),rhsMax =  -5.47818875726312E-04  1.61756159411659E-03
 cg2d_nsa: Sum(rhs),rhsMax =   7.99729201090648E-05  1.53363856675371E-03
 cg2d_nsa: Sum(rhs),rhsMax =  -4.03103057159128E-04  1.42794065920316E-03
 cg2d_nsa: Sum(rhs),rhsMax =  -1.88087816432629E-03  1.49223782094909E-03
 cg2d_nsa: Sum(rhs),rhsMax =  -4.04408898778625E-03  1.56210442096034E-03
 cg2d_nsa: Sum(rhs),rhsMax =  -6.45462888994418E-03  1.63424214750016E-03
 cg2d_nsa: Sum(rhs),rhsMax =  -8.63394917062748E-03  1.70505820556397E-03
 cg2d_nsa: Sum(rhs),rhsMax =  -1.01577899821679E-02  1.77167128978755E-03
 cg2d_nsa: Sum(rhs),rhsMax =  -1.07385064676147E-02  1.83257531284734E-03
 cg2d_nsa: Sum(rhs),rhsMax =  -1.02790482915066E-02  1.88791213136641E-03
 cg2d_nsa: Sum(rhs),rhsMax =  -8.88852268519962E-03  1.93938684825995E-03
 cg2d_nsa: Sum(rhs),rhsMax =  -6.85700209420546E-03  2.06671963139382E-03
 cg2d_nsa: Sum(rhs),rhsMax =  -4.59527343934876E-03  2.17651147926191E-03
 cg2d_nsa: Sum(rhs),rhsMax =  -2.55199123265675E-03  2.23681621633214E-03
 cg2d_nsa: Sum(rhs),rhsMax =  -1.12489762993277E-03  2.25047701410154E-03
 cg2d_nsa: Sum(rhs),rhsMax =  -5.83637558661711E-04  2.23911228877723E-03
 cg2d_nsa: Sum(rhs),rhsMax =  -1.01911454575437E-03  2.31619528626299E-03
 cg2d_nsa: Sum(rhs),rhsMax =  -2.32886289144808E-03  2.39332630124898E-03
 cg2d_nsa: Sum(rhs),rhsMax =  -4.24067142133602E-03  2.46478014847448E-03
 cg2d_nsa: Sum(rhs),rhsMax =  -6.36913438009110E-03  2.52475935690550E-03
 cg2d_nsa: Sum(rhs),rhsMax =  -8.29342191201502E-03  2.56860716235716E-03
 cg2d_nsa: Sum(rhs),rhsMax =  -9.64059753656446E-03  2.59379162924091E-03
 cg2d_nsa: Sum(rhs),rhsMax =  -1.01580044268714E-02  2.60046743734277E-03
 cg2d_nsa: Sum(rhs),rhsMax =  -9.76069657449471E-03  2.59154642959251E-03
 cg2d_nsa: Sum(rhs),rhsMax =  -8.54505745169101E-03  2.57230691696935E-03
 cg2d_nsa: Sum(rhs),rhsMax =  -6.76655619007470E-03  2.57617677341109E-03
 cg2d_nsa: Sum(rhs),rhsMax =  -4.78666959853109E-03  2.60704656324039E-03
 cg2d_nsa: Sum(rhs),rhsMax =  -2.99995523558161E-03  2.55368004109638E-03
 cg2d_nsa: Sum(rhs),rhsMax =  -1.75595289224119E-03  2.53090269703503E-03
 cg2d_nsa: Sum(rhs),rhsMax =  -1.29134015011933E-03  2.55686899737444E-03
 cg2d_nsa: Sum(rhs),rhsMax =  -1.68547887930164E-03  2.59998588327097E-03
 cg2d_nsa: Sum(rhs),rhsMax =  -2.84766406442588E-03  2.65617343120844E-03
 cg2d_nsa: Sum(rhs),rhsMax =  -4.53801264413166E-03  2.71885910423272E-03
 cg2d_nsa: Sum(rhs),rhsMax =  -6.41728545618802E-03  2.78009795517369E-03
 cg2d_nsa: Sum(rhs),rhsMax =  -8.11533160235023E-03  2.83193128715007E-03
 cg2d_nsa: Sum(rhs),rhsMax =  -9.30436782016389E-03  2.86771965463329E-03
 cg2d_nsa: Sum(rhs),rhsMax =  -9.76260393903310E-03  2.88321605342619E-03
 cg2d_nsa: Sum(rhs),rhsMax =  -9.41588734423042E-03  2.87721819336956E-03
 cg2d_nsa: Sum(rhs),rhsMax =  -8.34958543143864E-03  2.85172240995213E-03
 cg2d_nsa: Sum(rhs),rhsMax =  -6.78891547781694E-03  2.90854928741484E-03
 cg2d_nsa: Sum(rhs),rhsMax =  -5.05216132883818E-03  2.93304373214262E-03
 cg2d_nsa: Sum(rhs),rhsMax =  -3.48645861737659E-03  2.88331759127004E-03
 cg2d_nsa: Sum(rhs),rhsMax =  -2.39907585067287E-03  2.77469258880660E-03
 cg2d_nsa: Sum(rhs),rhsMax =  -1.99776870462128E-03  2.64912186297494E-03
 cg2d_nsa: Sum(rhs),rhsMax =  -2.35175888690051E-03  2.63954767171181E-03
 cg2d_nsa: Sum(rhs),rhsMax =  -3.38063150841713E-03  2.64744433482480E-03
 cg2d_nsa: Sum(rhs),rhsMax =  -4.87283024096080E-03  2.67027736888026E-03
 cg2d_nsa: Sum(rhs),rhsMax =  -6.52958392447203E-03  2.75143056266841E-03
 cg2d_nsa: Sum(rhs),rhsMax =  -8.02517508940383E-03  2.84716522152324E-03
 cg2d_nsa: Sum(rhs),rhsMax =  -9.07141266571380E-03  2.92480123106570E-03
 cg2d_nsa: Sum(rhs),rhsMax =  -9.47356457165072E-03  2.97120282904225E-03
 cg2d_nsa: Sum(rhs),rhsMax =  -9.16691596009359E-03  2.97966798983730E-03
 cg2d_nsa: Sum(rhs),rhsMax =  -8.22712335547397E-03  3.00381236296135E-03
 cg2d_nsa: Sum(rhs),rhsMax =  -6.85280732344357E-03  3.08036410148295E-03
 cg2d_nsa: Sum(rhs),rhsMax =  -5.32430721954491E-03  3.09182669369828E-03
 cg2d_nsa: Sum(rhs),rhsMax =  -3.94713131776098E-03  3.03934308296148E-03
 cg2d_nsa: Sum(rhs),rhsMax =  -2.99148612506138E-03  2.93659604276130E-03
 cg2d_nsa: Sum(rhs),rhsMax =  -2.63983303649840E-03  2.80689803943910E-03
 cg2d_nsa: Sum(rhs),rhsMax =  -2.95262901399211E-03  2.68543410588274E-03
 cg2d_nsa: Sum(rhs),rhsMax =  -3.85865385729852E-03  2.73031552500825E-03
 cg2d_nsa: Sum(rhs),rhsMax =  -5.17138138334750E-03  2.80043596516138E-03
 cg2d_nsa: Sum(rhs),rhsMax =  -6.62770801992027E-03  2.88238458527786E-03
 cg2d_nsa: Sum(rhs),rhsMax =  -7.94102494428922E-03  2.96047698069986E-03
 cg2d_nsa: Sum(rhs),rhsMax =  -8.85794585176678E-03  3.01993440981939E-03
 cg2d_nsa: Sum(rhs),rhsMax =  -9.20747815103119E-03  3.04982324117524E-03
 cg2d_nsa: Sum(rhs),rhsMax =  -8.93311469305651E-03  3.04517975012894E-03
 cg2d_nsa: Sum(rhs),rhsMax =  -8.10185280301154E-03  3.11258927446501E-03
 cg2d_nsa: Sum(rhs),rhsMax =  -6.88878929567007E-03  3.17297130567365E-03
 cg2d_nsa: Sum(rhs),rhsMax =  -5.54076182043483E-03  3.17471654150033E-03
 cg2d_nsa: Sum(rhs),rhsMax =  -4.32655858806000E-03  3.11938173336280E-03
 cg2d_nsa: Sum(rhs),rhsMax =  -3.48371960568050E-03  3.01971786562933E-03
 cg2d_nsa: Sum(rhs),rhsMax =  -3.17244063542496E-03  2.89700825746594E-03
 cg2d_nsa: Sum(rhs),rhsMax =  -3.44550656931356E-03  2.77676420129885E-03
 cg2d_nsa: Sum(rhs),rhsMax =  -4.23987149515509E-03  2.78119160413989E-03
 cg2d_nsa: Sum(rhs),rhsMax =  -5.39114865262992E-03  2.84461350109780E-03
 cg2d_nsa: Sum(rhs),rhsMax =  -6.66774872645994E-03  2.91823905569070E-03
 cg2d_nsa: Sum(rhs),rhsMax =  -7.81760225032928E-03  2.98773878918181E-03
 cg2d_nsa: Sum(rhs),rhsMax =  -8.61805654614159E-03  3.03980204954149E-03
 cg2d_nsa: Sum(rhs),rhsMax =  -8.91908481793588E-03  3.06473919352534E-03
 cg2d_nsa: Sum(rhs),rhsMax =  -8.67143927820097E-03  3.06396593875913E-03
 cg2d_nsa: Sum(rhs),rhsMax =  -7.93449164715908E-03  3.16208623318460E-03
 cg2d_nsa: Sum(rhs),rhsMax =  -6.86259130826189E-03  3.21610122746604E-03
 cg2d_nsa: Sum(rhs),rhsMax =  -5.67301275100991E-03  3.21680814127050E-03
 cg2d_nsa: Sum(rhs),rhsMax =  -4.60212408598035E-03  3.16554819502937E-03
 cg2d_nsa: Sum(rhs),rhsMax =  -3.85860126054611E-03  3.07378661715802E-03
 cg2d_nsa: Sum(rhs),rhsMax =  -3.58293283344194E-03  2.96071717888506E-03
 cg2d_nsa: Sum(rhs),rhsMax =  -3.82105730658864E-03  2.84938994979338E-03
 cg2d_nsa: Sum(rhs),rhsMax =  -4.51705698836015E-03  2.80618853399135E-03
(PID.TID 0000.0001) Did not write pickup because writePickupAtEnd = FALSE
(PID.TID 0000.0001)   early fc =  0.000000000000000D+00
 --> objf_test(bi,bj)   =  0.473809587597120D-01
(PID.TID 0000.0001)   local fc =  0.473809587597120D-01
(PID.TID 0000.0001)  global fc =  0.473809587597120D-01
(PID.TID 0000.0001) grdchk perturb(-)fc: fcpertminus =  4.73809587597120E-02
grad-res -------------------------------
 grad-res     0    2    4    1    1    1    1    1   4.73809587569E-02  4.73809587541E-02  4.73809587597E-02
 grad-res     0    2    2    4    0    1    1    1  -2.79728334994E-08 -2.79732834119E-08 -1.60839085415E-05
(PID.TID 0000.0001)  ADM  ref_cost_function      =  4.73809587569147E-02
(PID.TID 0000.0001)  ADM  adjoint_gradient       = -2.79728334993684E-08
(PID.TID 0000.0001)  ADM  finite-diff_grad       = -2.79732834118640E-08
(PID.TID 0000.0001) ====== End of gradient-check number   2 (ierr=  0) =======
(PID.TID 0000.0001) ====== Starts gradient-check number   3 (=ichknum) =======
 ph-test icomp, ncvarcomp, ichknum            7          25           3
 ph-grd _loc: bi, bj, icomptest, ichknum            1           1           4           3
 ph-grd -->hit<--            2           2           1           1
(PID.TID 0000.0001) grdchk pos: i,j,k=    2    2    1 ; bi,bj=   1   1 ; iobc=  1 ; rec=   1
                     ctrl_depth_ini: ctrl update R_low,
                                     adding the control vector.
(PID.TID 0000.0001) Start initial hydrostatic pressure computation
(PID.TID 0000.0001) Pressure is predetermined for buoyancyRelation OCEANIC
(PID.TID 0000.0001) 
(PID.TID 0000.0001) // =======================================================
(PID.TID 0000.0001) // Model current state
(PID.TID 0000.0001) // =======================================================
(PID.TID 0000.0001) 
(PID.TID 0000.0001) SOLVE_FOR_PRESSURE: putPmEinXvector =    F
 cg2d_nsa: Sum(rhs),rhsMax =   0.00000000000000E+00  0.00000000000000E+00
 cg2d_nsa: Sum(rhs),rhsMax =  -1.50873054610922E-03  6.03492218443701E-05
 cg2d_nsa: Sum(rhs),rhsMax =  -3.96041768353671E-03  2.18766023587220E-04
 cg2d_nsa: Sum(rhs),rhsMax =  -6.70151564470508E-03  4.29236468025056E-04
 cg2d_nsa: Sum(rhs),rhsMax =  -9.17158903540554E-03  6.43184796286698E-04
 cg2d_nsa: Sum(rhs),rhsMax =  -1.08944466273514E-02  8.17951763425890E-04
 cg2d_nsa: Sum(rhs),rhsMax =  -1.15449833390181E-02  9.31105229292591E-04
 cg2d_nsa: Sum(rhs),rhsMax =  -1.10127562438195E-02  9.89364856770914E-04
 cg2d_nsa: Sum(rhs),rhsMax =  -9.42153118110726E-03  1.22456378174849E-03
 cg2d_nsa: Sum(rhs),rhsMax =  -7.10092879409309E-03  1.44777510364872E-03
 cg2d_nsa: Sum(rhs),rhsMax =  -4.51794202857255E-03  1.58982063059862E-03
 cg2d_nsa: Sum(rhs),rhsMax =  -2.18275828084481E-03  1.64357697653889E-03
 cg2d_nsa: Sum(rhs),rhsMax =  -5.47818874823358E-04  1.61756159696458E-03
 cg2d_nsa: Sum(rhs),rhsMax =   7.99729211095812E-05  1.53363856956798E-03
 cg2d_nsa: Sum(rhs),rhsMax =  -4.03103056098901E-04  1.42794064715163E-03
 cg2d_nsa: Sum(rhs),rhsMax =  -1.88087816322375E-03  1.49223780757669E-03
 cg2d_nsa: Sum(rhs),rhsMax =  -4.04408898662196E-03  1.56210440714608E-03
 cg2d_nsa: Sum(rhs),rhsMax =  -6.45462888865043E-03  1.63424213419175E-03
 cg2d_nsa: Sum(rhs),rhsMax =  -8.63394916908531E-03  1.70505819361303E-03
 cg2d_nsa: Sum(rhs),rhsMax =  -1.01577899802141E-02  1.77167127979026E-03
 cg2d_nsa: Sum(rhs),rhsMax =  -1.07385064650584E-02  1.83257530502134E-03
 cg2d_nsa: Sum(rhs),rhsMax =  -1.02790482881537E-02  1.88791212548928E-03
 cg2d_nsa: Sum(rhs),rhsMax =  -8.88852268087998E-03  1.93938684368390E-03
 cg2d_nsa: Sum(rhs),rhsMax =  -6.85700208879764E-03  2.06671962668400E-03
 cg2d_nsa: Sum(rhs),rhsMax =  -4.59527343279774E-03  2.17651147479474E-03
 cg2d_nsa: Sum(rhs),rhsMax =  -2.55199122498019E-03  2.23681621217739E-03
 cg2d_nsa: Sum(rhs),rhsMax =  -1.12489762121375E-03  2.25047701016918E-03
 cg2d_nsa: Sum(rhs),rhsMax =  -5.83637549028805E-04  2.23911227524952E-03
 cg2d_nsa: Sum(rhs),rhsMax =  -1.01911453535227E-03  2.31619526910977E-03
 cg2d_nsa: Sum(rhs),rhsMax =  -2.32886288040415E-03  2.39332628083492E-03
 cg2d_nsa: Sum(rhs),rhsMax =  -4.24067140972942E-03  2.46478012557888E-03
 cg2d_nsa: Sum(rhs),rhsMax =  -6.36913436793068E-03  2.52475933258584E-03
 cg2d_nsa: Sum(rhs),rhsMax =  -8.29342189923087E-03  2.56860713776653E-03
 cg2d_nsa: Sum(rhs),rhsMax =  -9.64059752301533E-03  2.59379160543209E-03
 cg2d_nsa: Sum(rhs),rhsMax =  -1.01580044123672E-02  2.60046741509384E-03
 cg2d_nsa: Sum(rhs),rhsMax =  -9.76069655883011E-03  2.59154640928461E-03
 cg2d_nsa: Sum(rhs),rhsMax =  -8.54505743468395E-03  2.57230689853732E-03
 cg2d_nsa: Sum(rhs),rhsMax =  -6.76655617160231E-03  2.57617677939447E-03
 cg2d_nsa: Sum(rhs),rhsMax =  -4.78666957855585E-03  2.60704656903799E-03
 cg2d_nsa: Sum(rhs),rhsMax =  -2.99995521416227E-03  2.55368004681545E-03
 cg2d_nsa: Sum(rhs),rhsMax =  -1.75595286952608E-03  2.53090267895886E-03
 cg2d_nsa: Sum(rhs),rhsMax =  -1.29134012632269E-03  2.55686897725427E-03
 cg2d_nsa: Sum(rhs),rhsMax =  -1.68547885466755E-03  2.59998586065409E-03
 cg2d_nsa: Sum(rhs),rhsMax =  -2.84766403918636E-03  2.65617340600636E-03
 cg2d_nsa: Sum(rhs),rhsMax =  -4.53801261846729E-03  2.71885907671244E-03
 cg2d_nsa: Sum(rhs),rhsMax =  -6.41728543019879E-03  2.78009792588466E-03
 cg2d_nsa: Sum(rhs),rhsMax =  -8.11533157604243E-03  2.83193125680390E-03
 cg2d_nsa: Sum(rhs),rhsMax =  -9.30436779345595E-03  2.86771962396175E-03
 cg2d_nsa: Sum(rhs),rhsMax =  -9.76260391177907E-03  2.88321602304557E-03
 cg2d_nsa: Sum(rhs),rhsMax =  -9.41588731625687E-03  2.87721816367725E-03
 cg2d_nsa: Sum(rhs),rhsMax =  -8.34958540258744E-03  2.85172238107343E-03
 cg2d_nsa: Sum(rhs),rhsMax =  -6.78891544798541E-03  2.90854929466649E-03
 cg2d_nsa: Sum(rhs),rhsMax =  -5.05216129800850E-03  2.93304373930574E-03
 cg2d_nsa: Sum(rhs),rhsMax =  -3.48645858562844E-03  2.88331759838869E-03
 cg2d_nsa: Sum(rhs),rhsMax =  -2.39907581817646E-03  2.77469259593636E-03
 cg2d_nsa: Sum(rhs),rhsMax =  -1.99776867161218E-03  2.64912183336820E-03
 cg2d_nsa: Sum(rhs),rhsMax =  -2.35175885364091E-03  2.63954764095825E-03
 cg2d_nsa: Sum(rhs),rhsMax =  -3.38063147515148E-03  2.64744430295531E-03
 cg2d_nsa: Sum(rhs),rhsMax =  -4.87283020787448E-03  2.67027733611769E-03
 cg2d_nsa: Sum(rhs),rhsMax =  -6.52958389166165E-03  2.75143059969391E-03
 cg2d_nsa: Sum(rhs),rhsMax =  -8.02517505686514E-03  2.84716525795708E-03
 cg2d_nsa: Sum(rhs),rhsMax =  -9.07141263334976E-03  2.92480126739092E-03
 cg2d_nsa: Sum(rhs),rhsMax =  -9.47356453929843E-03  2.97120286582925E-03
 cg2d_nsa: Sum(rhs),rhsMax =  -9.16691592756434E-03  2.97966802761858E-03
 cg2d_nsa: Sum(rhs),rhsMax =  -8.22712332259894E-03  3.00381237077360E-03
 cg2d_nsa: Sum(rhs),rhsMax =  -6.85280729011540E-03  3.08036410936944E-03
 cg2d_nsa: Sum(rhs),rhsMax =  -5.32430718574697E-03  3.09182670171178E-03
 cg2d_nsa: Sum(rhs),rhsMax =  -3.94713128357805E-03  3.03934309115727E-03
 cg2d_nsa: Sum(rhs),rhsMax =  -2.99148609066957E-03  2.93659605118575E-03
 cg2d_nsa: Sum(rhs),rhsMax =  -2.63983300213607E-03  2.80689804811975E-03
 cg2d_nsa: Sum(rhs),rhsMax =  -2.95262897991747E-03  2.68543414837375E-03
 cg2d_nsa: Sum(rhs),rhsMax =  -3.85865382374255E-03  2.73031556639493E-03
 cg2d_nsa: Sum(rhs),rhsMax =  -5.17138135047166E-03  2.80043600534942E-03
 cg2d_nsa: Sum(rhs),rhsMax =  -6.62770798778774E-03  2.88238462446375E-03
 cg2d_nsa: Sum(rhs),rhsMax =  -7.94102491285559E-03  2.96047701933664E-03
 cg2d_nsa: Sum(rhs),rhsMax =  -8.85794582089247E-03  3.01993444852997E-03
 cg2d_nsa: Sum(rhs),rhsMax =  -9.20747812051319E-03  3.04982328063053E-03
 cg2d_nsa: Sum(rhs),rhsMax =  -8.93311466267328E-03  3.04517979091543E-03
 cg2d_nsa: Sum(rhs),rhsMax =  -8.10185277257233E-03  3.11258928416096E-03
 cg2d_nsa: Sum(rhs),rhsMax =  -6.88878926505827E-03  3.17297131549519E-03
 cg2d_nsa: Sum(rhs),rhsMax =  -5.54076178963705E-03  3.17471655152774E-03
 cg2d_nsa: Sum(rhs),rhsMax =  -4.32655855717449E-03  3.11938174367784E-03
 cg2d_nsa: Sum(rhs),rhsMax =  -3.48371957490313E-03  3.01971787630129E-03
 cg2d_nsa: Sum(rhs),rhsMax =  -3.17244060501531E-03  2.89700826853981E-03
 cg2d_nsa: Sum(rhs),rhsMax =  -3.44550653954782E-03  2.77676421278793E-03
 cg2d_nsa: Sum(rhs),rhsMax =  -4.23987146627503E-03  2.78119165004019E-03
 cg2d_nsa: Sum(rhs),rhsMax =  -5.39114862479821E-03  2.84461354583898E-03
 cg2d_nsa: Sum(rhs),rhsMax =  -6.66774869973087E-03  2.91823909946231E-03
 cg2d_nsa: Sum(rhs),rhsMax =  -7.81760222464093E-03  2.98773883242844E-03
 cg2d_nsa: Sum(rhs),rhsMax =  -8.61805652133118E-03  3.03980209287352E-03
 cg2d_nsa: Sum(rhs),rhsMax =  -8.91908479377544E-03  3.06473923759770E-03
 cg2d_nsa: Sum(rhs),rhsMax =  -8.67143925444640E-03  3.06396595180034E-03
 cg2d_nsa: Sum(rhs),rhsMax =  -7.93449162360278E-03  3.16208624632646E-03
 cg2d_nsa: Sum(rhs),rhsMax =  -6.86259128477861E-03  3.21610124075388E-03
 cg2d_nsa: Sum(rhs),rhsMax =  -5.67301272758647E-03  3.21680815476967E-03
 cg2d_nsa: Sum(rhs),rhsMax =  -4.60212406272324E-03  3.16554820881329E-03
 cg2d_nsa: Sum(rhs),rhsMax =  -3.85860123766519E-03  3.07378663129524E-03
 cg2d_nsa: Sum(rhs),rhsMax =  -3.58293281121357E-03  2.96071719342761E-03
 cg2d_nsa: Sum(rhs),rhsMax =  -3.82105728530525E-03  2.84938996476852E-03
 cg2d_nsa: Sum(rhs),rhsMax =  -4.51705696827628E-03  2.80618858507283E-03
(PID.TID 0000.0001) Did not write pickup because writePickupAtEnd = FALSE
(PID.TID 0000.0001)   early fc =  0.000000000000000D+00
 --> objf_test(bi,bj)   =  0.473809588673604D-01
(PID.TID 0000.0001)   local fc =  0.473809588673604D-01
(PID.TID 0000.0001)  global fc =  0.473809588673604D-01
(PID.TID 0000.0001) grdchk perturb(+)fc: fcpertplus  =  4.73809588673604E-02
                     ctrl_depth_ini: ctrl update R_low,
                                     adding the control vector.
(PID.TID 0000.0001) Start initial hydrostatic pressure computation
(PID.TID 0000.0001) Pressure is predetermined for buoyancyRelation OCEANIC
(PID.TID 0000.0001) 
(PID.TID 0000.0001) // =======================================================
(PID.TID 0000.0001) // Model current state
(PID.TID 0000.0001) // =======================================================
(PID.TID 0000.0001) 
(PID.TID 0000.0001) SOLVE_FOR_PRESSURE: putPmEinXvector =    F
 cg2d_nsa: Sum(rhs),rhsMax =   0.00000000000000E+00  0.00000000000000E+00
 cg2d_nsa: Sum(rhs),rhsMax =  -1.50873054610922E-03  6.03492218443701E-05
 cg2d_nsa: Sum(rhs),rhsMax =  -3.96041768353670E-03  2.18766023587221E-04
 cg2d_nsa: Sum(rhs),rhsMax =  -6.70151564470008E-03  4.29236468184619E-04
 cg2d_nsa: Sum(rhs),rhsMax =  -9.17158903539001E-03  6.43184796002619E-04
 cg2d_nsa: Sum(rhs),rhsMax =  -1.08944466273259E-02  8.17951762407566E-04
 cg2d_nsa: Sum(rhs),rhsMax =  -1.15449833389939E-02  9.31105227743137E-04
 cg2d_nsa: Sum(rhs),rhsMax =  -1.10127562438201E-02  9.89364856708048E-04
 cg2d_nsa: Sum(rhs),rhsMax =  -9.42153118116665E-03  1.22456378082036E-03
 cg2d_nsa: Sum(rhs),rhsMax =  -7.10092879425203E-03  1.44777510175853E-03
 cg2d_nsa: Sum(rhs),rhsMax =  -4.51794202887309E-03  1.58982062746078E-03
 cg2d_nsa: Sum(rhs),rhsMax =  -2.18275828132541E-03  1.64357697198436E-03
 cg2d_nsa: Sum(rhs),rhsMax =  -5.47818875516488E-04  1.61756159099666E-03
 cg2d_nsa: Sum(rhs),rhsMax =   7.99729201760522E-05  1.53363856238851E-03
 cg2d_nsa: Sum(rhs),rhsMax =  -4.03103057301958E-04  1.42794064413333E-03
 cg2d_nsa: Sum(rhs),rhsMax =  -1.88087816473640E-03  1.49223780365454E-03
 cg2d_nsa: Sum(rhs),rhsMax =  -4.04408898850696E-03  1.56210440234974E-03
 cg2d_nsa: Sum(rhs),rhsMax =  -6.45462889100447E-03  1.63424212865056E-03
 cg2d_nsa: Sum(rhs),rhsMax =  -8.63394917204683E-03  1.70505818755017E-03
 cg2d_nsa: Sum(rhs),rhsMax =  -1.01577899839652E-02  1.77167127350018E-03
 cg2d_nsa: Sum(rhs),rhsMax =  -1.07385064698195E-02  1.83257529883301E-03
 cg2d_nsa: Sum(rhs),rhsMax =  -1.02790482941704E-02  1.88791211972108E-03
 cg2d_nsa: Sum(rhs),rhsMax =  -8.88852268840431E-03  1.93938683859778E-03
 cg2d_nsa: Sum(rhs),rhsMax =  -6.85700209806707E-03  2.06671962485808E-03
 cg2d_nsa: Sum(rhs),rhsMax =  -4.59527344401525E-03  2.17651147223067E-03
 cg2d_nsa: Sum(rhs),rhsMax =  -2.55199123830003E-03  2.23681620837505E-03
 cg2d_nsa: Sum(rhs),rhsMax =  -1.12489763673615E-03  2.25047700483816E-03
 cg2d_nsa: Sum(rhs),rhsMax =  -5.83637566805217E-04  2.23911227376183E-03
 cg2d_nsa: Sum(rhs),rhsMax =  -1.01911455540058E-03  2.31619526772960E-03
 cg2d_nsa: Sum(rhs),rhsMax =  -2.32886290273148E-03  2.39332627930657E-03
 cg2d_nsa: Sum(rhs),rhsMax =  -4.24067143435810E-03  2.46478012371619E-03
 cg2d_nsa: Sum(rhs),rhsMax =  -6.36913439492235E-03  2.52475933030449E-03
 cg2d_nsa: Sum(rhs),rhsMax =  -8.29342192870365E-03  2.56860713509796E-03
 cg2d_nsa: Sum(rhs),rhsMax =  -9.64059755515029E-03  2.59379160251681E-03
 cg2d_nsa: Sum(rhs),rhsMax =  -1.01580044474020E-02  2.60046741215591E-03
 cg2d_nsa: Sum(rhs),rhsMax =  -9.76069659704102E-03  2.59154640659224E-03
 cg2d_nsa: Sum(rhs),rhsMax =  -8.54505747635815E-03  2.57230689635715E-03
 cg2d_nsa: Sum(rhs),rhsMax =  -6.76655621700719E-03  2.57617678224761E-03
 cg2d_nsa: Sum(rhs),rhsMax =  -4.78666962790999E-03  2.60704657242112E-03
 cg2d_nsa: Sum(rhs),rhsMax =  -2.99995526761456E-03  2.55368005051144E-03
 cg2d_nsa: Sum(rhs),rhsMax =  -1.75595292714726E-03  2.53090268017759E-03
 cg2d_nsa: Sum(rhs),rhsMax =  -1.29134018811126E-03  2.55686897920855E-03
 cg2d_nsa: Sum(rhs),rhsMax =  -1.68547892056907E-03  2.59998586316077E-03
 cg2d_nsa: Sum(rhs),rhsMax =  -2.84766410912277E-03  2.65617340886874E-03
 cg2d_nsa: Sum(rhs),rhsMax =  -4.53801269237020E-03  2.71885907975627E-03
 cg2d_nsa: Sum(rhs),rhsMax =  -6.41728550804036E-03  2.78009792898653E-03
 cg2d_nsa: Sum(rhs),rhsMax =  -8.11533165785746E-03  2.83193125990731E-03
 cg2d_nsa: Sum(rhs),rhsMax =  -9.30436787935058E-03  2.86771962707846E-03
 cg2d_nsa: Sum(rhs),rhsMax =  -9.76260400192430E-03  2.88321602624330E-03
 cg2d_nsa: Sum(rhs),rhsMax =  -9.41588741086771E-03  2.87721816705714E-03
 cg2d_nsa: Sum(rhs),rhsMax =  -8.34958550189220E-03  2.85172238474282E-03
 cg2d_nsa: Sum(rhs),rhsMax =  -6.78891555219098E-03  2.90854930414112E-03
 cg2d_nsa: Sum(rhs),rhsMax =  -5.05216140726895E-03  2.93304374941645E-03
 cg2d_nsa: Sum(rhs),rhsMax =  -3.48645870002348E-03  2.88331760903605E-03
 cg2d_nsa: Sum(rhs),rhsMax =  -2.39907593770424E-03  2.77469260705133E-03
 cg2d_nsa: Sum(rhs),rhsMax =  -1.99776879619838E-03  2.64912183897753E-03
 cg2d_nsa: Sum(rhs),rhsMax =  -2.35175898316236E-03  2.63954764680757E-03
 cg2d_nsa: Sum(rhs),rhsMax =  -3.38063160946973E-03  2.64744430897977E-03
 cg2d_nsa: Sum(rhs),rhsMax =  -4.87283034687254E-03  2.67027734228451E-03
 cg2d_nsa: Sum(rhs),rhsMax =  -6.52958403527620E-03  2.75143062980544E-03
 cg2d_nsa: Sum(rhs),rhsMax =  -8.02517520510770E-03  2.84716528858327E-03
 cg2d_nsa: Sum(rhs),rhsMax =  -9.07141278631198E-03  2.92480129843782E-03
 cg2d_nsa: Sum(rhs),rhsMax =  -9.47356469714009E-03  2.97120289720877E-03
 cg2d_nsa: Sum(rhs),rhsMax =  -9.16691609048651E-03  2.97966805926677E-03
 cg2d_nsa: Sum(rhs),rhsMax =  -8.22712349080715E-03  3.00381238799593E-03
 cg2d_nsa: Sum(rhs),rhsMax =  -6.85280746378039E-03  3.08036412701485E-03
 cg2d_nsa: Sum(rhs),rhsMax =  -5.32430736497118E-03  3.09182671968548E-03
 cg2d_nsa: Sum(rhs),rhsMax =  -3.94713146837469E-03  3.03934310940249E-03
 cg2d_nsa: Sum(rhs),rhsMax =  -2.99148628095902E-03  2.93659606969691E-03
 cg2d_nsa: Sum(rhs),rhsMax =  -2.63983319776043E-03  2.80689806694495E-03
 cg2d_nsa: Sum(rhs),rhsMax =  -2.95262918067110E-03  2.68543418300622E-03
 cg2d_nsa: Sum(rhs),rhsMax =  -3.85865402941229E-03  2.73031560168728E-03
 cg2d_nsa: Sum(rhs),rhsMax =  -5.17138156087890E-03  2.80043604125806E-03
 cg2d_nsa: Sum(rhs),rhsMax =  -6.62770820282377E-03  2.88238466089623E-03
 cg2d_nsa: Sum(rhs),rhsMax =  -7.94102513250297E-03  2.96047705616531E-03
 cg2d_nsa: Sum(rhs),rhsMax =  -8.85794604522763E-03  3.01993448561291E-03
 cg2d_nsa: Sum(rhs),rhsMax =  -9.20747834968954E-03  3.04982331783547E-03
 cg2d_nsa: Sum(rhs),rhsMax =  -8.93311489688798E-03  3.04517982814246E-03
 cg2d_nsa: Sum(rhs),rhsMax =  -8.10185301202266E-03  3.11258930851816E-03
 cg2d_nsa: Sum(rhs),rhsMax =  -6.88878950989677E-03  3.17297134010097E-03
 cg2d_nsa: Sum(rhs),rhsMax =  -5.54076203993402E-03  3.17471657624743E-03
 cg2d_nsa: Sum(rhs),rhsMax =  -4.32655881289576E-03  3.11938176842503E-03
 cg2d_nsa: Sum(rhs),rhsMax =  -3.48371983590753E-03  3.01971790105193E-03
 cg2d_nsa: Sum(rhs),rhsMax =  -3.17244087107281E-03  2.89700829333419E-03
 cg2d_nsa: Sum(rhs),rhsMax =  -3.44550681037498E-03  2.77676423772045E-03
 cg2d_nsa: Sum(rhs),rhsMax =  -4.23987174158082E-03  2.78119168898287E-03
 cg2d_nsa: Sum(rhs),rhsMax =  -5.39114890433124E-03  2.84461358527340E-03
 cg2d_nsa: Sum(rhs),rhsMax =  -6.66774898331868E-03  2.91823913932473E-03
 cg2d_nsa: Sum(rhs),rhsMax =  -7.81760251221355E-03  2.98773887261456E-03
 cg2d_nsa: Sum(rhs),rhsMax =  -8.61805681292402E-03  3.03980213325782E-03
 cg2d_nsa: Sum(rhs),rhsMax =  -8.91908508951096E-03  3.06473927805653E-03
 cg2d_nsa: Sum(rhs),rhsMax =  -8.67143955449804E-03  3.06396598007984E-03
 cg2d_nsa: Sum(rhs),rhsMax =  -7.93449192814826E-03  3.16208627490814E-03
 cg2d_nsa: Sum(rhs),rhsMax =  -6.86259159395197E-03  3.21610126948985E-03
 cg2d_nsa: Sum(rhs),rhsMax =  -5.67301304143816E-03  3.21680818352831E-03
 cg2d_nsa: Sum(rhs),rhsMax =  -4.60212438119663E-03  3.16554823750117E-03
 cg2d_nsa: Sum(rhs),rhsMax =  -3.85860156059404E-03  3.07378665987111E-03
 cg2d_nsa: Sum(rhs),rhsMax =  -3.58293313834112E-03  2.96071722190553E-03
 cg2d_nsa: Sum(rhs),rhsMax =  -3.82105761632114E-03  2.84938999321046E-03
 cg2d_nsa: Sum(rhs),rhsMax =  -4.51705730286418E-03  2.80618862633138E-03
(PID.TID 0000.0001) Did not write pickup because writePickupAtEnd = FALSE
(PID.TID 0000.0001)   early fc =  0.000000000000000D+00
 --> objf_test(bi,bj)   =  0.473809586464691D-01
(PID.TID 0000.0001)   local fc =  0.473809586464691D-01
(PID.TID 0000.0001)  global fc =  0.473809586464691D-01
(PID.TID 0000.0001) grdchk perturb(-)fc: fcpertminus =  4.73809586464691E-02
grad-res -------------------------------
 grad-res     0    3    2    2    1    1    1    1   4.73809587569E-02  4.73809588674E-02  4.73809586465E-02
 grad-res     0    3    3    7    0    1    1    1   1.10445729241E-06  1.10445624868E-06  9.45012967546E-07
(PID.TID 0000.0001)  ADM  ref_cost_function      =  4.73809587569147E-02
(PID.TID 0000.0001)  ADM  adjoint_gradient       =  1.10445729240596E-06
(PID.TID 0000.0001)  ADM  finite-diff_grad       =  1.10445624867950E-06
(PID.TID 0000.0001) ====== End of gradient-check number   3 (ierr=  0) =======
(PID.TID 0000.0001) ====== Starts gradient-check number   4 (=ichknum) =======
 ph-test icomp, ncvarcomp, ichknum           10          25           4
 ph-grd _loc: bi, bj, icomptest, ichknum            1           1           7           4
 ph-grd -->hit<--            5           2           1           1
(PID.TID 0000.0001) grdchk pos: i,j,k=    5    2    1 ; bi,bj=   1   1 ; iobc=  1 ; rec=   1
                     ctrl_depth_ini: ctrl update R_low,
                                     adding the control vector.
(PID.TID 0000.0001) Start initial hydrostatic pressure computation
(PID.TID 0000.0001) Pressure is predetermined for buoyancyRelation OCEANIC
(PID.TID 0000.0001) 
(PID.TID 0000.0001) // =======================================================
(PID.TID 0000.0001) // Model current state
(PID.TID 0000.0001) // =======================================================
(PID.TID 0000.0001) 
(PID.TID 0000.0001) SOLVE_FOR_PRESSURE: putPmEinXvector =    F
 cg2d_nsa: Sum(rhs),rhsMax =   0.00000000000000E+00  0.00000000000000E+00
 cg2d_nsa: Sum(rhs),rhsMax =  -1.50873054610922E-03  6.03492218443701E-05
 cg2d_nsa: Sum(rhs),rhsMax =  -3.96041768353671E-03  2.18766023587220E-04
 cg2d_nsa: Sum(rhs),rhsMax =  -6.70151564470219E-03  4.29236468106495E-04
 cg2d_nsa: Sum(rhs),rhsMax =  -9.17158903539911E-03  6.43184796148055E-04
 cg2d_nsa: Sum(rhs),rhsMax =  -1.08944466273456E-02  8.17951762915387E-04
 cg2d_nsa: Sum(rhs),rhsMax =  -1.15449833390224E-02  9.31105228506722E-04
 cg2d_nsa: Sum(rhs),rhsMax =  -1.10127562438472E-02  9.89364856773515E-04
 cg2d_nsa: Sum(rhs),rhsMax =  -9.42153118117355E-03  1.22456378133151E-03
 cg2d_nsa: Sum(rhs),rhsMax =  -7.10092879421205E-03  1.44777510277573E-03
 cg2d_nsa: Sum(rhs),rhsMax =  -4.51794202875482E-03  1.58982062913096E-03
 cg2d_nsa: Sum(rhs),rhsMax =  -2.18275828109636E-03  1.64357697439578E-03
 cg2d_nsa: Sum(rhs),rhsMax =  -5.47818875146255E-04  1.61756159415157E-03
 cg2d_nsa: Sum(rhs),rhsMax =   7.99729207141323E-05  1.53363856619078E-03
 cg2d_nsa: Sum(rhs),rhsMax =  -4.03103056572233E-04  1.42794064560221E-03
 cg2d_nsa: Sum(rhs),rhsMax =  -1.88087816379060E-03  1.49223780508560E-03
 cg2d_nsa: Sum(rhs),rhsMax =  -4.04408898731434E-03  1.56210440360744E-03
 cg2d_nsa: Sum(rhs),rhsMax =  -6.45462888952147E-03  1.63424212961429E-03
 cg2d_nsa: Sum(rhs),rhsMax =  -8.63394917021129E-03  1.70505818813498E-03
 cg2d_nsa: Sum(rhs),rhsMax =  -1.01577899816932E-02  1.77167127367218E-03
 cg2d_nsa: Sum(rhs),rhsMax =  -1.07385064670059E-02  1.83257529861634E-03
 cg2d_nsa: Sum(rhs),rhsMax =  -1.02790482906943E-02  1.88791211919490E-03
 cg2d_nsa: Sum(rhs),rhsMax =  -8.88852268413837E-03  1.93938683788348E-03
 cg2d_nsa: Sum(rhs),rhsMax =  -6.85700209288957E-03  2.06671962700908E-03
 cg2d_nsa: Sum(rhs),rhsMax =  -4.59527343782259E-03  2.17651147490551E-03
 cg2d_nsa: Sum(rhs),rhsMax =  -2.55199123101707E-03  2.23681621182265E-03
 cg2d_nsa: Sum(rhs),rhsMax =  -1.12489762832202E-03  2.25047700920089E-03
 cg2d_nsa: Sum(rhs),rhsMax =  -5.83637557252934E-04  2.23911227388772E-03
 cg2d_nsa: Sum(rhs),rhsMax =  -1.01911454473042E-03  2.31619526810840E-03
 cg2d_nsa: Sum(rhs),rhsMax =  -2.32886289097877E-03  2.39332627984857E-03
 cg2d_nsa: Sum(rhs),rhsMax =  -4.24067142155785E-03  2.46478012430212E-03
 cg2d_nsa: Sum(rhs),rhsMax =  -6.36913438109364E-03  2.52475933080777E-03
 cg2d_nsa: Sum(rhs),rhsMax =  -8.29342191383713E-03  2.56860713540735E-03
 cg2d_nsa: Sum(rhs),rhsMax =  -9.64059753920144E-03  2.59379160255515E-03
 cg2d_nsa: Sum(rhs),rhsMax =  -1.01580044302923E-02  2.60046741189201E-03
 cg2d_nsa: Sum(rhs),rhsMax =  -9.76069657866649E-03  2.59154640604385E-03
 cg2d_nsa: Sum(rhs),rhsMax =  -8.54505745660539E-03  2.57230689558478E-03
 cg2d_nsa: Sum(rhs),rhsMax =  -6.76655619577218E-03  2.57617678828393E-03
 cg2d_nsa: Sum(rhs),rhsMax =  -4.78666960511734E-03  2.60704657852569E-03
 cg2d_nsa: Sum(rhs),rhsMax =  -2.99995524323275E-03  2.55368005689418E-03
 cg2d_nsa: Sum(rhs),rhsMax =  -1.75595290119650E-03  2.53090267943617E-03
 cg2d_nsa: Sum(rhs),rhsMax =  -1.29134016066228E-03  2.55686897863997E-03
 cg2d_nsa: Sum(rhs),rhsMax =  -1.68547889173276E-03  2.59998586276711E-03
 cg2d_nsa: Sum(rhs),rhsMax =  -2.84766407903226E-03  2.65617340861997E-03
 cg2d_nsa: Sum(rhs),rhsMax =  -4.53801266115904E-03  2.71885907960035E-03
 cg2d_nsa: Sum(rhs),rhsMax =  -6.41728547582089E-03  2.78009792886299E-03
 cg2d_nsa: Sum(rhs),rhsMax =  -8.11533162470379E-03  2.83193125976109E-03
 cg2d_nsa: Sum(rhs),rhsMax =  -9.30436784528983E-03  2.86771962687108E-03
 cg2d_nsa: Sum(rhs),rhsMax =  -9.76260396693787E-03  2.88321602595921E-03
 cg2d_nsa: Sum(rhs),rhsMax =  -9.41588737490267E-03  2.87721816670432E-03
 cg2d_nsa: Sum(rhs),rhsMax =  -8.34958546488054E-03  2.85172238434780E-03
 cg2d_nsa: Sum(rhs),rhsMax =  -6.78891551407293E-03  2.90854931348874E-03
 cg2d_nsa: Sum(rhs),rhsMax =  -5.05216136801553E-03  2.93304375891603E-03
 cg2d_nsa: Sum(rhs),rhsMax =  -3.48645865965360E-03  2.88331761878724E-03
 cg2d_nsa: Sum(rhs),rhsMax =  -2.39907589629268E-03  2.77469261712956E-03
 cg2d_nsa: Sum(rhs),rhsMax =  -1.99776875387262E-03  2.64912183875854E-03
 cg2d_nsa: Sum(rhs),rhsMax =  -2.35175894008868E-03  2.63954764660035E-03
 cg2d_nsa: Sum(rhs),rhsMax =  -3.38063156583123E-03  2.64744430874296E-03
 cg2d_nsa: Sum(rhs),rhsMax =  -4.87283030284331E-03  2.67027734197697E-03
 cg2d_nsa: Sum(rhs),rhsMax =  -6.52958399099704E-03  2.75143062417528E-03
 cg2d_nsa: Sum(rhs),rhsMax =  -8.02517516066821E-03  2.84716528406008E-03
 cg2d_nsa: Sum(rhs),rhsMax =  -9.07141274174296E-03  2.92480129524291E-03
 cg2d_nsa: Sum(rhs),rhsMax =  -9.47356465241821E-03  2.97120289532927E-03
 cg2d_nsa: Sum(rhs),rhsMax =  -9.16691604555021E-03  2.97966805845015E-03
 cg2d_nsa: Sum(rhs),rhsMax =  -8.22712344558114E-03  3.00381240031686E-03
 cg2d_nsa: Sum(rhs),rhsMax =  -6.85280741820357E-03  3.08036413970036E-03
 cg2d_nsa: Sum(rhs),rhsMax =  -5.32430731902251E-03  3.09182673282267E-03
 cg2d_nsa: Sum(rhs),rhsMax =  -3.94713142209153E-03  3.03934312304832E-03
 cg2d_nsa: Sum(rhs),rhsMax =  -2.99148623444395E-03  2.93659608386470E-03
 cg2d_nsa: Sum(rhs),rhsMax =  -2.63983315117504E-03  2.80689808159988E-03
 cg2d_nsa: Sum(rhs),rhsMax =  -2.95262913421747E-03  2.68543417906676E-03
 cg2d_nsa: Sum(rhs),rhsMax =  -3.85865398330581E-03  2.73031559772019E-03
 cg2d_nsa: Sum(rhs),rhsMax =  -5.17138151531770E-03  2.80043603789614E-03
 cg2d_nsa: Sum(rhs),rhsMax =  -6.62770815796091E-03  2.88238465873283E-03
 cg2d_nsa: Sum(rhs),rhsMax =  -7.94102508842711E-03  2.96047705563278E-03
 cg2d_nsa: Sum(rhs),rhsMax =  -8.85794600195627E-03  3.01993448689118E-03
 cg2d_nsa: Sum(rhs),rhsMax =  -9.20747830717652E-03  3.04982332080981E-03
 cg2d_nsa: Sum(rhs),rhsMax =  -8.93311485504388E-03  3.04517983241944E-03
 cg2d_nsa: Sum(rhs),rhsMax =  -8.10185297074440E-03  3.11258932483375E-03
 cg2d_nsa: Sum(rhs),rhsMax =  -6.88878946910066E-03  3.17297135685645E-03
 cg2d_nsa: Sum(rhs),rhsMax =  -5.54076199958544E-03  3.17471659355863E-03
 cg2d_nsa: Sum(rhs),rhsMax =  -4.32655877302965E-03  3.11938178636880E-03
 cg2d_nsa: Sum(rhs),rhsMax =  -3.48371979663540E-03  3.01971791965178E-03
 cg2d_nsa: Sum(rhs),rhsMax =  -3.17244083257465E-03  2.89700831255622E-03
 cg2d_nsa: Sum(rhs),rhsMax =  -3.44550677287734E-03  2.77676425748020E-03
 cg2d_nsa: Sum(rhs),rhsMax =  -4.23987170532535E-03  2.78119168828634E-03
 cg2d_nsa: Sum(rhs),rhsMax =  -5.39114886953983E-03  2.84461358491884E-03
 cg2d_nsa: Sum(rhs),rhsMax =  -6.66774895016204E-03  2.91823913996405E-03
 cg2d_nsa: Sum(rhs),rhsMax =  -7.81760248078943E-03  2.98773887474307E-03
 cg2d_nsa: Sum(rhs),rhsMax =  -8.61805678324972E-03  3.03980213711976E-03
 cg2d_nsa: Sum(rhs),rhsMax =  -8.91908506153152E-03  3.06473928360065E-03
 cg2d_nsa: Sum(rhs),rhsMax =  -8.67143952810876E-03  3.06396600111896E-03
 cg2d_nsa: Sum(rhs),rhsMax =  -7.93449190322706E-03  3.16208629621326E-03
 cg2d_nsa: Sum(rhs),rhsMax =  -6.86259157039532E-03  3.21610129118157E-03
 cg2d_nsa: Sum(rhs),rhsMax =  -5.67301301919341E-03  3.21680820571721E-03
 cg2d_nsa: Sum(rhs),rhsMax =  -4.60212436028416E-03  3.16554826026742E-03
 cg2d_nsa: Sum(rhs),rhsMax =  -3.85860154111490E-03  3.07378668325034E-03
 cg2d_nsa: Sum(rhs),rhsMax =  -3.58293312046846E-03  2.96071724588409E-03
 cg2d_nsa: Sum(rhs),rhsMax =  -3.82105760027706E-03  2.84939001773009E-03
 cg2d_nsa: Sum(rhs),rhsMax =  -4.51705728888654E-03  2.80618862900468E-03
(PID.TID 0000.0001) Did not write pickup because writePickupAtEnd = FALSE
(PID.TID 0000.0001)   early fc =  0.000000000000000D+00
 --> objf_test(bi,bj)   =  0.473809587747841D-01
(PID.TID 0000.0001)   local fc =  0.473809587747841D-01
(PID.TID 0000.0001)  global fc =  0.473809587747841D-01
(PID.TID 0000.0001) grdchk perturb(+)fc: fcpertplus  =  4.73809587747841E-02
                     ctrl_depth_ini: ctrl update R_low,
                                     adding the control vector.
(PID.TID 0000.0001) Start initial hydrostatic pressure computation
(PID.TID 0000.0001) Pressure is predetermined for buoyancyRelation OCEANIC
(PID.TID 0000.0001) 
(PID.TID 0000.0001) // =======================================================
(PID.TID 0000.0001) // Model current state
(PID.TID 0000.0001) // =======================================================
(PID.TID 0000.0001) 
(PID.TID 0000.0001) SOLVE_FOR_PRESSURE: putPmEinXvector =    F
 cg2d_nsa: Sum(rhs),rhsMax =   0.00000000000000E+00  0.00000000000000E+00
 cg2d_nsa: Sum(rhs),rhsMax =  -1.50873054610922E-03  6.03492218443701E-05
 cg2d_nsa: Sum(rhs),rhsMax =  -3.96041768353670E-03  2.18766023587220E-04
 cg2d_nsa: Sum(rhs),rhsMax =  -6.70151564470296E-03  4.29236468103164E-04
 cg2d_nsa: Sum(rhs),rhsMax =  -9.17158903539643E-03  6.43184796141265E-04
 cg2d_nsa: Sum(rhs),rhsMax =  -1.08944466273316E-02  8.17951762918062E-04
 cg2d_nsa: Sum(rhs),rhsMax =  -1.15449833389895E-02  9.31105228529007E-04
 cg2d_nsa: Sum(rhs),rhsMax =  -1.10127562437922E-02  9.89364856705426E-04
 cg2d_nsa: Sum(rhs),rhsMax =  -9.42153118110027E-03  1.22456378123732E-03
 cg2d_nsa: Sum(rhs),rhsMax =  -7.10092879413298E-03  1.44777510263151E-03
 cg2d_nsa: Sum(rhs),rhsMax =  -4.51794202869072E-03  1.58982062892845E-03
 cg2d_nsa: Sum(rhs),rhsMax =  -2.18275828107377E-03  1.64357697412748E-03
 cg2d_nsa: Sum(rhs),rhsMax =  -5.47818875193495E-04  1.61756159380967E-03
 cg2d_nsa: Sum(rhs),rhsMax =   7.99729205715947E-05  1.53363856576571E-03
 cg2d_nsa: Sum(rhs),rhsMax =  -4.03103056828527E-04  1.42794064568275E-03
 cg2d_nsa: Sum(rhs),rhsMax =  -1.88087816416945E-03  1.49223780614562E-03
 cg2d_nsa: Sum(rhs),rhsMax =  -4.04408898781447E-03  1.56210440588837E-03
 cg2d_nsa: Sum(rhs),rhsMax =  -6.45462889013332E-03  1.63424213322801E-03
 cg2d_nsa: Sum(rhs),rhsMax =  -8.63394917092071E-03  1.70505819302823E-03
 cg2d_nsa: Sum(rhs),rhsMax =  -1.01577899824860E-02  1.77167127961827E-03
 cg2d_nsa: Sum(rhs),rhsMax =  -1.07385064678719E-02  1.83257530523800E-03
 cg2d_nsa: Sum(rhs),rhsMax =  -1.02790482916297E-02  1.88791212601546E-03
 cg2d_nsa: Sum(rhs),rhsMax =  -8.88852268514585E-03  1.93938684439819E-03
 cg2d_nsa: Sum(rhs),rhsMax =  -6.85700209397504E-03  2.06671962453299E-03
 cg2d_nsa: Sum(rhs),rhsMax =  -4.59527343899030E-03  2.17651147211991E-03
 cg2d_nsa: Sum(rhs),rhsMax =  -2.55199123226302E-03  2.23681620872978E-03
 cg2d_nsa: Sum(rhs),rhsMax =  -1.12489762962778E-03  2.25047700580645E-03
 cg2d_nsa: Sum(rhs),rhsMax =  -5.83637558580984E-04  2.23911227512363E-03
 cg2d_nsa: Sum(rhs),rhsMax =  -1.01911454602233E-03  2.31619526873096E-03
 cg2d_nsa: Sum(rhs),rhsMax =  -2.32886289215677E-03  2.39332628029292E-03
 cg2d_nsa: Sum(rhs),rhsMax =  -4.24067142252959E-03  2.46478012499295E-03
 cg2d_nsa: Sum(rhs),rhsMax =  -6.36913438175931E-03  2.52475933208255E-03
 cg2d_nsa: Sum(rhs),rhsMax =  -8.29342191409732E-03  2.56860713745715E-03
 cg2d_nsa: Sum(rhs),rhsMax =  -9.64059753896410E-03  2.59379160539375E-03
 cg2d_nsa: Sum(rhs),rhsMax =  -1.01580044294769E-02  2.60046741535772E-03
 cg2d_nsa: Sum(rhs),rhsMax =  -9.76069657720455E-03  2.59154640983301E-03
 cg2d_nsa: Sum(rhs),rhsMax =  -8.54505745443663E-03  2.57230689930968E-03
 cg2d_nsa: Sum(rhs),rhsMax =  -6.76655619283723E-03  2.57617677335815E-03
 cg2d_nsa: Sum(rhs),rhsMax =  -4.78666960134839E-03  2.60704656293341E-03
 cg2d_nsa: Sum(rhs),rhsMax =  -2.99995523854398E-03  2.55368004043270E-03
 cg2d_nsa: Sum(rhs),rhsMax =  -1.75595289547675E-03  2.53090267970028E-03
 cg2d_nsa: Sum(rhs),rhsMax =  -1.29134015377157E-03  2.55686897782285E-03
 cg2d_nsa: Sum(rhs),rhsMax =  -1.68547888350377E-03  2.59998586104774E-03
 cg2d_nsa: Sum(rhs),rhsMax =  -2.84766406927676E-03  2.65617340625514E-03
 cg2d_nsa: Sum(rhs),rhsMax =  -4.53801264967834E-03  2.71885907686837E-03
 cg2d_nsa: Sum(rhs),rhsMax =  -6.41728546241817E-03  2.78009792600819E-03
 cg2d_nsa: Sum(rhs),rhsMax =  -8.11533160919603E-03  2.83193125695012E-03
 cg2d_nsa: Sum(rhs),rhsMax =  -9.30436782751662E-03  2.86771962416914E-03
 cg2d_nsa: Sum(rhs),rhsMax =  -9.76260394676542E-03  2.88321602332966E-03
 cg2d_nsa: Sum(rhs),rhsMax =  -9.41588735222182E-03  2.87721816403006E-03
 cg2d_nsa: Sum(rhs),rhsMax =  -8.34958543959899E-03  2.85172238146844E-03
 cg2d_nsa: Sum(rhs),rhsMax =  -6.78891548610335E-03  2.90854928531885E-03
 cg2d_nsa: Sum(rhs),rhsMax =  -5.05216133726183E-03  2.93304372980616E-03
 cg2d_nsa: Sum(rhs),rhsMax =  -3.48645862599821E-03  2.88331758863748E-03
 cg2d_nsa: Sum(rhs),rhsMax =  -2.39907585958790E-03  2.77469258585812E-03
 cg2d_nsa: Sum(rhs),rhsMax =  -1.99776871393783E-03  2.64912183358718E-03
 cg2d_nsa: Sum(rhs),rhsMax =  -2.35175889671449E-03  2.63954764116546E-03
 cg2d_nsa: Sum(rhs),rhsMax =  -3.38063151878989E-03  2.64744430319211E-03
 cg2d_nsa: Sum(rhs),rhsMax =  -4.87283025190361E-03  2.67027733642522E-03
 cg2d_nsa: Sum(rhs),rhsMax =  -6.52958393594070E-03  2.75143060532405E-03
 cg2d_nsa: Sum(rhs),rhsMax =  -8.02517510130454E-03  2.84716526248027E-03
 cg2d_nsa: Sum(rhs),rhsMax =  -9.07141267791872E-03  2.92480127058582E-03
 cg2d_nsa: Sum(rhs),rhsMax =  -9.47356458402024E-03  2.97120286770874E-03
 cg2d_nsa: Sum(rhs),rhsMax =  -9.16691597250055E-03  2.97966802843518E-03
 cg2d_nsa: Sum(rhs),rhsMax =  -8.22712336782486E-03  3.00381235845267E-03
 cg2d_nsa: Sum(rhs),rhsMax =  -6.85280733569212E-03  3.08036409668389E-03
 cg2d_nsa: Sum(rhs),rhsMax =  -5.32430723169554E-03  3.09182668857457E-03
 cg2d_nsa: Sum(rhs),rhsMax =  -3.94713132986113E-03  3.03934307751144E-03
 cg2d_nsa: Sum(rhs),rhsMax =  -2.99148613718456E-03  2.93659603701796E-03
 cg2d_nsa: Sum(rhs),rhsMax =  -2.63983304872136E-03  2.80689803346481E-03
 cg2d_nsa: Sum(rhs),rhsMax =  -2.95262902637098E-03  2.68543415231321E-03
 cg2d_nsa: Sum(rhs),rhsMax =  -3.85865386984891E-03  2.73031557036201E-03
 cg2d_nsa: Sum(rhs),rhsMax =  -5.17138139603274E-03  2.80043600871134E-03
 cg2d_nsa: Sum(rhs),rhsMax =  -6.62770803265048E-03  2.88238462662714E-03
 cg2d_nsa: Sum(rhs),rhsMax =  -7.94102495693133E-03  2.96047701986914E-03
 cg2d_nsa: Sum(rhs),rhsMax =  -8.85794586416369E-03  3.01993444725168E-03
 cg2d_nsa: Sum(rhs),rhsMax =  -9.20747816302605E-03  3.04982327765620E-03
 cg2d_nsa: Sum(rhs),rhsMax =  -8.93311470451723E-03  3.04517978663847E-03
 cg2d_nsa: Sum(rhs),rhsMax =  -8.10185281385037E-03  3.11258926784536E-03
 cg2d_nsa: Sum(rhs),rhsMax =  -6.88878930585411E-03  3.17297129873972E-03
 cg2d_nsa: Sum(rhs),rhsMax =  -5.54076182998536E-03  3.17471653421652E-03
 cg2d_nsa: Sum(rhs),rhsMax =  -4.32655859704033E-03  3.11938172573404E-03
 cg2d_nsa: Sum(rhs),rhsMax =  -3.48371961417498E-03  3.01971785770142E-03
 cg2d_nsa: Sum(rhs),rhsMax =  -3.17244064351320E-03  2.89700824931777E-03
 cg2d_nsa: Sum(rhs),rhsMax =  -3.44550657704519E-03  2.77676419302817E-03
 cg2d_nsa: Sum(rhs),rhsMax =  -4.23987150253023E-03  2.78119165073669E-03
 cg2d_nsa: Sum(rhs),rhsMax =  -5.39114865958935E-03  2.84461354619353E-03
 cg2d_nsa: Sum(rhs),rhsMax =  -6.66774873288726E-03  2.91823909882297E-03
 cg2d_nsa: Sum(rhs),rhsMax =  -7.81760225606479E-03  2.98773883029992E-03
 cg2d_nsa: Sum(rhs),rhsMax =  -8.61805655100524E-03  3.03980208901157E-03
 cg2d_nsa: Sum(rhs),rhsMax =  -8.91908482175466E-03  3.06473923205359E-03
 cg2d_nsa: Sum(rhs),rhsMax =  -8.67143928083547E-03  3.06396593076121E-03
 cg2d_nsa: Sum(rhs),rhsMax =  -7.93449164852380E-03  3.16208622502132E-03
 cg2d_nsa: Sum(rhs),rhsMax =  -6.86259130833509E-03  3.21610121906216E-03
 cg2d_nsa: Sum(rhs),rhsMax =  -5.67301274983107E-03  3.21680813258076E-03
 cg2d_nsa: Sum(rhs),rhsMax =  -4.60212408363555E-03  3.16554818604705E-03
 cg2d_nsa: Sum(rhs),rhsMax =  -3.85860125714416E-03  3.07378660791600E-03
 cg2d_nsa: Sum(rhs),rhsMax =  -3.58293282908608E-03  2.96071716944905E-03
 cg2d_nsa: Sum(rhs),rhsMax =  -3.82105730134918E-03  2.84938994024888E-03
 cg2d_nsa: Sum(rhs),rhsMax =  -4.51705698225378E-03  2.80618858239951E-03
(PID.TID 0000.0001) Did not write pickup because writePickupAtEnd = FALSE
(PID.TID 0000.0001)   early fc =  0.000000000000000D+00
 --> objf_test(bi,bj)   =  0.473809587390453D-01
(PID.TID 0000.0001)   local fc =  0.473809587390453D-01
(PID.TID 0000.0001)  global fc =  0.473809587390453D-01
(PID.TID 0000.0001) grdchk perturb(-)fc: fcpertminus =  4.73809587390453E-02
grad-res -------------------------------
 grad-res     0    4    5    2    1    1    1    1   4.73809587569E-02  4.73809587748E-02  4.73809587390E-02
 grad-res     0    4    4   10    0    1    1    1   1.78692303723E-07  1.78693830566E-07 -8.54453810351E-06
(PID.TID 0000.0001)  ADM  ref_cost_function      =  4.73809587569147E-02
(PID.TID 0000.0001)  ADM  adjoint_gradient       =  1.78692303722703E-07
(PID.TID 0000.0001)  ADM  finite-diff_grad       =  1.78693830565901E-07
(PID.TID 0000.0001) ====== End of gradient-check number   4 (ierr=  0) =======
(PID.TID 0000.0001) ====== Starts gradient-check number   5 (=ichknum) =======
 ph-test icomp, ncvarcomp, ichknum           13          25           5
 ph-grd _loc: bi, bj, icomptest, ichknum            1           1          10           5
 ph-grd -->hit<--            3           3           1           1
(PID.TID 0000.0001) grdchk pos: i,j,k=    3    3    1 ; bi,bj=   1   1 ; iobc=  1 ; rec=   1
                     ctrl_depth_ini: ctrl update R_low,
                                     adding the control vector.
(PID.TID 0000.0001) Start initial hydrostatic pressure computation
(PID.TID 0000.0001) Pressure is predetermined for buoyancyRelation OCEANIC
(PID.TID 0000.0001) 
(PID.TID 0000.0001) // =======================================================
(PID.TID 0000.0001) // Model current state
(PID.TID 0000.0001) // =======================================================
(PID.TID 0000.0001) 
(PID.TID 0000.0001) SOLVE_FOR_PRESSURE: putPmEinXvector =    F
 cg2d_nsa: Sum(rhs),rhsMax =   0.00000000000000E+00  0.00000000000000E+00
 cg2d_nsa: Sum(rhs),rhsMax =  -1.50873054610922E-03  6.03492218443701E-05
 cg2d_nsa: Sum(rhs),rhsMax =  -3.96041768353671E-03  2.18766023587220E-04
 cg2d_nsa: Sum(rhs),rhsMax =  -6.70151564470258E-03  4.29236468116524E-04
 cg2d_nsa: Sum(rhs),rhsMax =  -9.17158903540607E-03  6.43184796168192E-04
 cg2d_nsa: Sum(rhs),rhsMax =  -1.08944466273687E-02  8.17951762948641E-04
 cg2d_nsa: Sum(rhs),rhsMax =  -1.15449833390675E-02  9.31105228561912E-04
 cg2d_nsa: Sum(rhs),rhsMax =  -1.10127562439104E-02  9.89364856789506E-04
 cg2d_nsa: Sum(rhs),rhsMax =  -9.42153118123592E-03  1.22456378127271E-03
 cg2d_nsa: Sum(rhs),rhsMax =  -7.10092879423775E-03  1.44777510284883E-03
 cg2d_nsa: Sum(rhs),rhsMax =  -4.51794202869284E-03  1.58982062942154E-03
 cg2d_nsa: Sum(rhs),rhsMax =  -2.18275828088759E-03  1.64357697496637E-03
 cg2d_nsa: Sum(rhs),rhsMax =  -5.47818874735069E-04  1.61756159501718E-03
 cg2d_nsa: Sum(rhs),rhsMax =   7.99729213657616E-05  1.53363856730016E-03
 cg2d_nsa: Sum(rhs),rhsMax =  -4.03103055674027E-04  1.42794064675866E-03
 cg2d_nsa: Sum(rhs),rhsMax =  -1.88087816268271E-03  1.49223780660848E-03
 cg2d_nsa: Sum(rhs),rhsMax =  -4.04408898608165E-03  1.56210440546220E-03
 cg2d_nsa: Sum(rhs),rhsMax =  -6.45462888829337E-03  1.63424213170845E-03
 cg2d_nsa: Sum(rhs),rhsMax =  -8.63394916914916E-03  1.70505819032108E-03
 cg2d_nsa: Sum(rhs),rhsMax =  -1.01577899809696E-02  1.77167127576069E-03
 cg2d_nsa: Sum(rhs),rhsMax =  -1.07385064667788E-02  1.83257530039708E-03
 cg2d_nsa: Sum(rhs),rhsMax =  -1.02790482910803E-02  1.88791212046357E-03
 cg2d_nsa: Sum(rhs),rhsMax =  -8.88852268519003E-03  1.93938683846901E-03
 cg2d_nsa: Sum(rhs),rhsMax =  -6.85700209458115E-03  2.06671962162547E-03
 cg2d_nsa: Sum(rhs),rhsMax =  -4.59527344004848E-03  2.17651146907994E-03
 cg2d_nsa: Sum(rhs),rhsMax =  -2.55199123360349E-03  2.23681620584433E-03
 cg2d_nsa: Sum(rhs),rhsMax =  -1.12489763105125E-03  2.25047700332287E-03
 cg2d_nsa: Sum(rhs),rhsMax =  -5.83637559896613E-04  2.23911227074163E-03
 cg2d_nsa: Sum(rhs),rhsMax =  -1.01911454708627E-03  2.31619526455952E-03
 cg2d_nsa: Sum(rhs),rhsMax =  -2.32886289290430E-03  2.39332627605534E-03
 cg2d_nsa: Sum(rhs),rhsMax =  -4.24067142299451E-03  2.46478012038930E-03
 cg2d_nsa: Sum(rhs),rhsMax =  -6.36913438207641E-03  2.52475932684688E-03
 cg2d_nsa: Sum(rhs),rhsMax =  -8.29342191448676E-03  2.56860713140684E-03
 cg2d_nsa: Sum(rhs),rhsMax =  -9.64059753969998E-03  2.59379159846181E-03
 cg2d_nsa: Sum(rhs),rhsMax =  -1.01580044308453E-02  2.60046740760248E-03
 cg2d_nsa: Sum(rhs),rhsMax =  -9.76069657945888E-03  2.59154640142405E-03
 cg2d_nsa: Sum(rhs),rhsMax =  -8.54505745775759E-03  2.57230689049338E-03
 cg2d_nsa: Sum(rhs),rhsMax =  -6.76655619730624E-03  2.57617678109688E-03
 cg2d_nsa: Sum(rhs),rhsMax =  -4.78666960693843E-03  2.60704657106680E-03
 cg2d_nsa: Sum(rhs),rhsMax =  -2.99995524513059E-03  2.55368004904443E-03
 cg2d_nsa: Sum(rhs),rhsMax =  -1.75595290286709E-03  2.53090267160347E-03
 cg2d_nsa: Sum(rhs),rhsMax =  -1.29134016174648E-03  2.55686897013330E-03
 cg2d_nsa: Sum(rhs),rhsMax =  -1.68547889186524E-03  2.59998585367135E-03
 cg2d_nsa: Sum(rhs),rhsMax =  -2.84766407789213E-03  2.65617339903827E-03
 cg2d_nsa: Sum(rhs),rhsMax =  -4.53801265851290E-03  2.71885906963828E-03
 cg2d_nsa: Sum(rhs),rhsMax =  -6.41728547155017E-03  2.78009791861476E-03
 cg2d_nsa: Sum(rhs),rhsMax =  -8.11533161881121E-03  2.83193124930002E-03
 cg2d_nsa: Sum(rhs),rhsMax =  -9.30436783788320E-03  2.86771961624527E-03
 cg2d_nsa: Sum(rhs),rhsMax =  -9.76260395819434E-03  2.88321601519215E-03
 cg2d_nsa: Sum(rhs),rhsMax =  -9.41588736501952E-03  2.87721815579917E-03
 cg2d_nsa: Sum(rhs),rhsMax =  -8.34958545402163E-03  2.85172237329379E-03
 cg2d_nsa: Sum(rhs),rhsMax =  -6.78891550232118E-03  2.90854929953954E-03
 cg2d_nsa: Sum(rhs),rhsMax =  -5.05216135533995E-03  2.93304374459950E-03
 cg2d_nsa: Sum(rhs),rhsMax =  -3.48645864589761E-03  2.88331760405581E-03
 cg2d_nsa: Sum(rhs),rhsMax =  -2.39907588118578E-03  2.77469260193004E-03
 cg2d_nsa: Sum(rhs),rhsMax =  -1.99776873706370E-03  2.64912182666519E-03
 cg2d_nsa: Sum(rhs),rhsMax =  -2.35175892119451E-03  2.63954763423720E-03
 cg2d_nsa: Sum(rhs),rhsMax =  -3.38063154449119E-03  2.64744429608563E-03
 cg2d_nsa: Sum(rhs),rhsMax =  -4.87283027876994E-03  2.67027732899982E-03
 cg2d_nsa: Sum(rhs),rhsMax =  -6.52958396401265E-03  2.75143061402958E-03
 cg2d_nsa: Sum(rhs),rhsMax =  -8.02517513072076E-03  2.84716527263119E-03
 cg2d_nsa: Sum(rhs),rhsMax =  -9.07141270889796E-03  2.92480128234206E-03
 cg2d_nsa: Sum(rhs),rhsMax =  -9.47356461682824E-03  2.97120288099203E-03
 cg2d_nsa: Sum(rhs),rhsMax =  -9.16691600740800E-03  2.97966804293752E-03
 cg2d_nsa: Sum(rhs),rhsMax =  -8.22712340506518E-03  3.00381237971116E-03
 cg2d_nsa: Sum(rhs),rhsMax =  -6.85280737542715E-03  3.08036411857777E-03
 cg2d_nsa: Sum(rhs),rhsMax =  -5.32430727399555E-03  3.09182671116810E-03
 cg2d_nsa: Sum(rhs),rhsMax =  -3.94713137470333E-03  3.03934310084618E-03
 cg2d_nsa: Sum(rhs),rhsMax =  -2.99148618446978E-03  2.93659606110372E-03
 cg2d_nsa: Sum(rhs),rhsMax =  -2.63983309830555E-03  2.80689805827686E-03
 cg2d_nsa: Sum(rhs),rhsMax =  -2.95262907810512E-03  2.68543416528468E-03
 cg2d_nsa: Sum(rhs),rhsMax =  -3.85865392361923E-03  2.73031558372792E-03
 cg2d_nsa: Sum(rhs),rhsMax =  -5.17138145179323E-03  2.80043602309709E-03
 cg2d_nsa: Sum(rhs),rhsMax =  -6.62770809044121E-03  2.88238464258253E-03
 cg2d_nsa: Sum(rhs),rhsMax =  -7.94102501687900E-03  2.96047703775295E-03
 cg2d_nsa: Sum(rhs),rhsMax =  -8.85794592646439E-03  3.01993446715244E-03
 cg2d_nsa: Sum(rhs),rhsMax =  -9.20747822791375E-03  3.04982329936589E-03
 cg2d_nsa: Sum(rhs),rhsMax =  -8.93311477222432E-03  3.04517980968515E-03
 cg2d_nsa: Sum(rhs),rhsMax =  -8.10185288456832E-03  3.11258929704662E-03
 cg2d_nsa: Sum(rhs),rhsMax =  -6.88878937970215E-03  3.17297132854959E-03
 cg2d_nsa: Sum(rhs),rhsMax =  -5.54076190699327E-03  3.17471656470416E-03
 cg2d_nsa: Sum(rhs),rhsMax =  -4.32655867714929E-03  3.11938175694415E-03
 cg2d_nsa: Sum(rhs),rhsMax =  -3.48371969725595E-03  3.01971788964476E-03
 cg2d_nsa: Sum(rhs),rhsMax =  -3.17244072939938E-03  2.89700828196838E-03
 cg2d_nsa: Sum(rhs),rhsMax =  -3.44550666557215E-03  2.77676422632772E-03
 cg2d_nsa: Sum(rhs),rhsMax =  -4.23987159357568E-03  2.78119166984591E-03
 cg2d_nsa: Sum(rhs),rhsMax =  -5.39114875310469E-03  2.84461356600658E-03
 cg2d_nsa: Sum(rhs),rhsMax =  -6.66774882891437E-03  2.91823911996505E-03
 cg2d_nsa: Sum(rhs),rhsMax =  -7.81760235473484E-03  2.98773885320591E-03
 cg2d_nsa: Sum(rhs),rhsMax =  -8.61805665251937E-03  3.03980211384290E-03
 cg2d_nsa: Sum(rhs),rhsMax =  -8.91908492635051E-03  3.06473925866928E-03
 cg2d_nsa: Sum(rhs),rhsMax =  -8.67143938874585E-03  3.06396596692237E-03
 cg2d_nsa: Sum(rhs),rhsMax =  -7.93449175993572E-03  3.16208626163629E-03
 cg2d_nsa: Sum(rhs),rhsMax =  -6.86259142335729E-03  3.21610125620427E-03
 cg2d_nsa: Sum(rhs),rhsMax =  -5.67301286847636E-03  3.21680817031461E-03
 cg2d_nsa: Sum(rhs),rhsMax =  -4.60212420582166E-03  3.16554822441483E-03
 cg2d_nsa: Sum(rhs),rhsMax =  -3.85860138271298E-03  3.07378664692857E-03
 cg2d_nsa: Sum(rhs),rhsMax =  -3.58293295783768E-03  2.96071720908326E-03
 cg2d_nsa: Sum(rhs),rhsMax =  -3.82105743308417E-03  2.84938998045175E-03
 cg2d_nsa: Sum(rhs),rhsMax =  -4.51705711681559E-03  2.80618860675593E-03
(PID.TID 0000.0001) Did not write pickup because writePickupAtEnd = FALSE
(PID.TID 0000.0001)   early fc =  0.000000000000000D+00
 --> objf_test(bi,bj)   =  0.473809591660644D-01
(PID.TID 0000.0001)   local fc =  0.473809591660644D-01
(PID.TID 0000.0001)  global fc =  0.473809591660644D-01
(PID.TID 0000.0001) grdchk perturb(+)fc: fcpertplus  =  4.73809591660644E-02
                     ctrl_depth_ini: ctrl update R_low,
                                     adding the control vector.
(PID.TID 0000.0001) Start initial hydrostatic pressure computation
(PID.TID 0000.0001) Pressure is predetermined for buoyancyRelation OCEANIC
(PID.TID 0000.0001) 
(PID.TID 0000.0001) // =======================================================
(PID.TID 0000.0001) // Model current state
(PID.TID 0000.0001) // =======================================================
(PID.TID 0000.0001) 
(PID.TID 0000.0001) SOLVE_FOR_PRESSURE: putPmEinXvector =    F
 cg2d_nsa: Sum(rhs),rhsMax =   0.00000000000000E+00  0.00000000000000E+00
 cg2d_nsa: Sum(rhs),rhsMax =  -1.50873054610922E-03  6.03492218443701E-05
 cg2d_nsa: Sum(rhs),rhsMax =  -3.96041768353671E-03  2.18766023587219E-04
 cg2d_nsa: Sum(rhs),rhsMax =  -6.70151564470258E-03  4.29236468093133E-04
 cg2d_nsa: Sum(rhs),rhsMax =  -9.17158903538949E-03  6.43184796121129E-04
 cg2d_nsa: Sum(rhs),rhsMax =  -1.08944466273085E-02  8.17951762884827E-04
 cg2d_nsa: Sum(rhs),rhsMax =  -1.15449833389445E-02  9.31105228473810E-04
 cg2d_nsa: Sum(rhs),rhsMax =  -1.10127562437292E-02  9.89364856689437E-04
 cg2d_nsa: Sum(rhs),rhsMax =  -9.42153118103794E-03  1.22456378129613E-03
 cg2d_nsa: Sum(rhs),rhsMax =  -7.10092879410736E-03  1.44777510255841E-03
 cg2d_nsa: Sum(rhs),rhsMax =  -4.51794202875281E-03  1.58982062863789E-03
 cg2d_nsa: Sum(rhs),rhsMax =  -2.18275828128266E-03  1.64357697355690E-03
 cg2d_nsa: Sum(rhs),rhsMax =  -5.47818875604807E-04  1.61756159294405E-03
 cg2d_nsa: Sum(rhs),rhsMax =   7.99729199198391E-05  1.53363856465633E-03
 cg2d_nsa: Sum(rhs),rhsMax =  -4.03103057726857E-04  1.42794064452630E-03
 cg2d_nsa: Sum(rhs),rhsMax =  -1.88087816527747E-03  1.49223780462275E-03
 cg2d_nsa: Sum(rhs),rhsMax =  -4.04408898904730E-03  1.56210440403361E-03
 cg2d_nsa: Sum(rhs),rhsMax =  -6.45462889136155E-03  1.63424213113386E-03
 cg2d_nsa: Sum(rhs),rhsMax =  -8.63394917198301E-03  1.70505819084213E-03
 cg2d_nsa: Sum(rhs),rhsMax =  -1.01577899832097E-02  1.77167127752975E-03
 cg2d_nsa: Sum(rhs),rhsMax =  -1.07385064680990E-02  1.83257530345726E-03
 cg2d_nsa: Sum(rhs),rhsMax =  -1.02790482912438E-02  1.88791212474679E-03
 cg2d_nsa: Sum(rhs),rhsMax =  -8.88852268409433E-03  1.93938684381267E-03
 cg2d_nsa: Sum(rhs),rhsMax =  -6.85700209228361E-03  2.06671962991662E-03
 cg2d_nsa: Sum(rhs),rhsMax =  -4.59527343676455E-03  2.17651147794548E-03
 cg2d_nsa: Sum(rhs),rhsMax =  -2.55199122967675E-03  2.23681621470811E-03
 cg2d_nsa: Sum(rhs),rhsMax =  -1.12489762689868E-03  2.25047701168447E-03
 cg2d_nsa: Sum(rhs),rhsMax =  -5.83637555937436E-04  2.23911227826972E-03
 cg2d_nsa: Sum(rhs),rhsMax =  -1.01911454366662E-03  2.31619527227985E-03
 cg2d_nsa: Sum(rhs),rhsMax =  -2.32886289023137E-03  2.39332628408615E-03
 cg2d_nsa: Sum(rhs),rhsMax =  -4.24067142109306E-03  2.46478012890577E-03
 cg2d_nsa: Sum(rhs),rhsMax =  -6.36913438077668E-03  2.52475933604345E-03
 cg2d_nsa: Sum(rhs),rhsMax =  -8.29342191344783E-03  2.56860714145767E-03
 cg2d_nsa: Sum(rhs),rhsMax =  -9.64059753846571E-03  2.59379160948710E-03
 cg2d_nsa: Sum(rhs),rhsMax =  -1.01580044289239E-02  2.60046741964727E-03
 cg2d_nsa: Sum(rhs),rhsMax =  -9.76069657641229E-03  2.59154641445283E-03
 cg2d_nsa: Sum(rhs),rhsMax =  -8.54505745328455E-03  2.57230690440108E-03
 cg2d_nsa: Sum(rhs),rhsMax =  -6.76655619130332E-03  2.57617678054520E-03
 cg2d_nsa: Sum(rhs),rhsMax =  -4.78666959952745E-03  2.60704657039231E-03
 cg2d_nsa: Sum(rhs),rhsMax =  -2.99995523664628E-03  2.55368004828246E-03
 cg2d_nsa: Sum(rhs),rhsMax =  -1.75595289380630E-03  2.53090268753299E-03
 cg2d_nsa: Sum(rhs),rhsMax =  -1.29134015268753E-03  2.55686898632952E-03
 cg2d_nsa: Sum(rhs),rhsMax =  -1.68547888337145E-03  2.59998587014351E-03
 cg2d_nsa: Sum(rhs),rhsMax =  -2.84766407041705E-03  2.65617341583684E-03
 cg2d_nsa: Sum(rhs),rhsMax =  -4.53801265232464E-03  2.71885908683044E-03
 cg2d_nsa: Sum(rhs),rhsMax =  -6.41728546668905E-03  2.78009793625643E-03
 cg2d_nsa: Sum(rhs),rhsMax =  -8.11533161508879E-03  2.83193126741120E-03
 cg2d_nsa: Sum(rhs),rhsMax =  -9.30436783492343E-03  2.86771963479494E-03
 cg2d_nsa: Sum(rhs),rhsMax =  -9.76260395550913E-03  2.88321603409674E-03
 cg2d_nsa: Sum(rhs),rhsMax =  -9.41588736210520E-03  2.87721817493522E-03
 cg2d_nsa: Sum(rhs),rhsMax =  -8.34958545045813E-03  2.85172239252248E-03
 cg2d_nsa: Sum(rhs),rhsMax =  -6.78891549785535E-03  2.90854929926807E-03
 cg2d_nsa: Sum(rhs),rhsMax =  -5.05216134993764E-03  2.93304374412272E-03
 cg2d_nsa: Sum(rhs),rhsMax =  -3.48645863975446E-03  2.88331760336893E-03
 cg2d_nsa: Sum(rhs),rhsMax =  -2.39907587469505E-03  2.77469260105766E-03
 cg2d_nsa: Sum(rhs),rhsMax =  -1.99776873074701E-03  2.64912184568054E-03
 cg2d_nsa: Sum(rhs),rhsMax =  -2.35175891560891E-03  2.63954765352862E-03
 cg2d_nsa: Sum(rhs),rhsMax =  -3.38063154013017E-03  2.64744431584946E-03
 cg2d_nsa: Sum(rhs),rhsMax =  -4.87283027597723E-03  2.67027734940239E-03
 cg2d_nsa: Sum(rhs),rhsMax =  -6.52958396292533E-03  2.75143061546975E-03
 cg2d_nsa: Sum(rhs),rhsMax =  -8.02517513125224E-03  2.84716527390916E-03
 cg2d_nsa: Sum(rhs),rhsMax =  -9.07141271076395E-03  2.92480128348667E-03
 cg2d_nsa: Sum(rhs),rhsMax =  -9.47356461961047E-03  2.97120288204600E-03
 cg2d_nsa: Sum(rhs),rhsMax =  -9.16691601064303E-03  2.97966804394783E-03
 cg2d_nsa: Sum(rhs),rhsMax =  -8.22712340834106E-03  3.00381237905838E-03
 cg2d_nsa: Sum(rhs),rhsMax =  -6.85280737846880E-03  3.08036411780651E-03
 cg2d_nsa: Sum(rhs),rhsMax =  -5.32430727672275E-03  3.09182671022917E-03
 cg2d_nsa: Sum(rhs),rhsMax =  -3.94713137724957E-03  3.03934309971359E-03
 cg2d_nsa: Sum(rhs),rhsMax =  -2.99148618715899E-03  2.93659605977896E-03
 cg2d_nsa: Sum(rhs),rhsMax =  -2.63983310159111E-03  2.80689805678785E-03
 cg2d_nsa: Sum(rhs),rhsMax =  -2.95262908248360E-03  2.68543416609530E-03
 cg2d_nsa: Sum(rhs),rhsMax =  -3.85865392953576E-03  2.73031558435429E-03
 cg2d_nsa: Sum(rhs),rhsMax =  -5.17138145955749E-03  2.80043602351040E-03
 cg2d_nsa: Sum(rhs),rhsMax =  -6.62770810017047E-03  2.88238464277746E-03
 cg2d_nsa: Sum(rhs),rhsMax =  -7.94102502847973E-03  2.96047703774900E-03
 cg2d_nsa: Sum(rhs),rhsMax =  -8.85794593965586E-03  3.01993446699044E-03
 cg2d_nsa: Sum(rhs),rhsMax =  -9.20747824228913E-03  3.04982329910014E-03
 cg2d_nsa: Sum(rhs),rhsMax =  -8.93311478733712E-03  3.04517980937277E-03
 cg2d_nsa: Sum(rhs),rhsMax =  -8.10185290002683E-03  3.11258929563251E-03
 cg2d_nsa: Sum(rhs),rhsMax =  -6.88878939525307E-03  3.17297132704659E-03
 cg2d_nsa: Sum(rhs),rhsMax =  -5.54076192257800E-03  3.17471656307101E-03
 cg2d_nsa: Sum(rhs),rhsMax =  -4.32655869292115E-03  3.11938175515872E-03
 cg2d_nsa: Sum(rhs),rhsMax =  -3.48371971355490E-03  3.01971788770848E-03
 cg2d_nsa: Sum(rhs),rhsMax =  -3.17244074668897E-03  2.89700827990563E-03
 cg2d_nsa: Sum(rhs),rhsMax =  -3.44550668435090E-03  2.77676422418067E-03
 cg2d_nsa: Sum(rhs),rhsMax =  -4.23987161428042E-03  2.78119166917715E-03
 cg2d_nsa: Sum(rhs),rhsMax =  -5.39114877602501E-03  2.84461356510580E-03
 cg2d_nsa: Sum(rhs),rhsMax =  -6.66774885413544E-03  2.91823911882200E-03
 cg2d_nsa: Sum(rhs),rhsMax =  -7.81760238211989E-03  2.98773885183712E-03
 cg2d_nsa: Sum(rhs),rhsMax =  -8.61805668173611E-03  3.03980211228846E-03
 cg2d_nsa: Sum(rhs),rhsMax =  -8.91908495693619E-03  3.06473925698496E-03
 cg2d_nsa: Sum(rhs),rhsMax =  -8.67143942019889E-03  3.06396596495784E-03
 cg2d_nsa: Sum(rhs),rhsMax =  -7.93449179181564E-03  3.16208625959835E-03
 cg2d_nsa: Sum(rhs),rhsMax =  -6.86259145537363E-03  3.21610125403948E-03
 cg2d_nsa: Sum(rhs),rhsMax =  -5.67301290054863E-03  3.21680816798340E-03
 cg2d_nsa: Sum(rhs),rhsMax =  -4.60212423809856E-03  3.16554822189965E-03
 cg2d_nsa: Sum(rhs),rhsMax =  -3.85860141554663E-03  3.07378664423779E-03
 cg2d_nsa: Sum(rhs),rhsMax =  -3.58293299171739E-03  2.96071720624990E-03
 cg2d_nsa: Sum(rhs),rhsMax =  -3.82105746854261E-03  2.84938997752724E-03
 cg2d_nsa: Sum(rhs),rhsMax =  -4.51705715432527E-03  2.80618860464829E-03
(PID.TID 0000.0001) Did not write pickup because writePickupAtEnd = FALSE
(PID.TID 0000.0001)   early fc =  0.000000000000000D+00
 --> objf_test(bi,bj)   =  0.473809583477650D-01
(PID.TID 0000.0001)   local fc =  0.473809583477650D-01
(PID.TID 0000.0001)  global fc =  0.473809583477650D-01
(PID.TID 0000.0001) grdchk perturb(-)fc: fcpertminus =  4.73809583477650E-02
grad-res -------------------------------
 grad-res     0    5    3    3    1    1    1    1   4.73809587569E-02  4.73809591661E-02  4.73809583478E-02
 grad-res     0    5    5   13    0    1    1    1   4.09149779318E-06  4.09149689823E-06  2.18734501622E-07
(PID.TID 0000.0001)  ADM  ref_cost_function      =  4.73809587569147E-02
(PID.TID 0000.0001)  ADM  adjoint_gradient       =  4.09149779318036E-06
(PID.TID 0000.0001)  ADM  finite-diff_grad       =  4.09149689822863E-06
(PID.TID 0000.0001) ====== End of gradient-check number   5 (ierr=  0) =======
(PID.TID 0000.0001) ====== Starts gradient-check number   6 (=ichknum) =======
 ph-test icomp, ncvarcomp, ichknum           16          25           6
 ph-grd _loc: bi, bj, icomptest, ichknum            1           1          13           6
 ph-grd -->hit<--            1           4           1           1
(PID.TID 0000.0001) grdchk pos: i,j,k=    1    4    1 ; bi,bj=   1   1 ; iobc=  1 ; rec=   1
                     ctrl_depth_ini: ctrl update R_low,
                                     adding the control vector.
(PID.TID 0000.0001) Start initial hydrostatic pressure computation
(PID.TID 0000.0001) Pressure is predetermined for buoyancyRelation OCEANIC
(PID.TID 0000.0001) 
(PID.TID 0000.0001) // =======================================================
(PID.TID 0000.0001) // Model current state
(PID.TID 0000.0001) // =======================================================
(PID.TID 0000.0001) 
(PID.TID 0000.0001) SOLVE_FOR_PRESSURE: putPmEinXvector =    F
 cg2d_nsa: Sum(rhs),rhsMax =   0.00000000000000E+00  0.00000000000000E+00
 cg2d_nsa: Sum(rhs),rhsMax =  -1.50873054610922E-03  6.03492218443701E-05
 cg2d_nsa: Sum(rhs),rhsMax =  -3.96041768353671E-03  2.18766023587220E-04
 cg2d_nsa: Sum(rhs),rhsMax =  -6.70151564470357E-03  4.29236468107387E-04
 cg2d_nsa: Sum(rhs),rhsMax =  -9.17158903540274E-03  6.43184796129262E-04
 cg2d_nsa: Sum(rhs),rhsMax =  -1.08944466273511E-02  8.17951762860095E-04
 cg2d_nsa: Sum(rhs),rhsMax =  -1.15449833390273E-02  9.31105228420150E-04
 cg2d_nsa: Sum(rhs),rhsMax =  -1.10127562438457E-02  9.89364856748495E-04
 cg2d_nsa: Sum(rhs),rhsMax =  -9.42153118115605E-03  1.22456378139084E-03
 cg2d_nsa: Sum(rhs),rhsMax =  -7.10092879416488E-03  1.44777510298314E-03
 cg2d_nsa: Sum(rhs),rhsMax =  -4.51794202866127E-03  1.58982062951248E-03
 cg2d_nsa: Sum(rhs),rhsMax =  -2.18275828093891E-03  1.64357697493214E-03
 cg2d_nsa: Sum(rhs),rhsMax =  -5.47818874909918E-04  1.61756159476805E-03
 cg2d_nsa: Sum(rhs),rhsMax =   7.99729210377019E-05  1.53363856675816E-03
 cg2d_nsa: Sum(rhs),rhsMax =  -4.03103056163708E-04  1.42794064580563E-03
 cg2d_nsa: Sum(rhs),rhsMax =  -1.88087816331310E-03  1.49223780578257E-03
 cg2d_nsa: Sum(rhs),rhsMax =  -4.04408898679879E-03  1.56210440491906E-03
 cg2d_nsa: Sum(rhs),rhsMax =  -6.45462888901239E-03  1.63424213160259E-03
 cg2d_nsa: Sum(rhs),rhsMax =  -8.63394916976266E-03  1.70505819078517E-03
 cg2d_nsa: Sum(rhs),rhsMax =  -1.01577899813616E-02  1.77167127688734E-03
 cg2d_nsa: Sum(rhs),rhsMax =  -1.07385064668421E-02  1.83257530222664E-03
 cg2d_nsa: Sum(rhs),rhsMax =  -1.02790482907341E-02  1.88791212298039E-03
 cg2d_nsa: Sum(rhs),rhsMax =  -8.88852268439441E-03  1.93938684160687E-03
 cg2d_nsa: Sum(rhs),rhsMax =  -6.85700209334594E-03  2.06671962321530E-03
 cg2d_nsa: Sum(rhs),rhsMax =  -4.59527343843310E-03  2.17651147149614E-03
 cg2d_nsa: Sum(rhs),rhsMax =  -2.55199123170791E-03  2.23681620896623E-03
 cg2d_nsa: Sum(rhs),rhsMax =  -1.12489762899854E-03  2.25047700696640E-03
 cg2d_nsa: Sum(rhs),rhsMax =  -5.83637557809710E-04  2.23911227543142E-03
 cg2d_nsa: Sum(rhs),rhsMax =  -1.01911454506257E-03  2.31619526940394E-03
 cg2d_nsa: Sum(rhs),rhsMax =  -2.32886289099275E-03  2.39332628110248E-03
 cg2d_nsa: Sum(rhs),rhsMax =  -4.24067142117939E-03  2.46478012572167E-03
 cg2d_nsa: Sum(rhs),rhsMax =  -6.36913438027124E-03  2.52475933256410E-03
 cg2d_nsa: Sum(rhs),rhsMax =  -8.29342191254016E-03  2.56860713760601E-03
 cg2d_nsa: Sum(rhs),rhsMax =  -9.64059753741291E-03  2.59379160521918E-03
 cg2d_nsa: Sum(rhs),rhsMax =  -1.01580044279973E-02  2.60046741496002E-03
 cg2d_nsa: Sum(rhs),rhsMax =  -9.76069657583871E-03  2.59154640938315E-03
 cg2d_nsa: Sum(rhs),rhsMax =  -8.54505745319348E-03  2.57230689901662E-03
 cg2d_nsa: Sum(rhs),rhsMax =  -6.76655619168944E-03  2.57617678135632E-03
 cg2d_nsa: Sum(rhs),rhsMax =  -4.78666960023616E-03  2.60704657321979E-03
 cg2d_nsa: Sum(rhs),rhsMax =  -2.99995523738547E-03  2.55368005253486E-03
 cg2d_nsa: Sum(rhs),rhsMax =  -1.75595289418259E-03  2.53090268162897E-03
 cg2d_nsa: Sum(rhs),rhsMax =  -1.29134015226077E-03  2.55686898037508E-03
 cg2d_nsa: Sum(rhs),rhsMax =  -1.68547888171764E-03  2.59998586411164E-03
 cg2d_nsa: Sum(rhs),rhsMax =  -2.84766406718818E-03  2.65617340968340E-03
 cg2d_nsa: Sum(rhs),rhsMax =  -4.53801264729420E-03  2.71885908050971E-03
 cg2d_nsa: Sum(rhs),rhsMax =  -6.41728545977473E-03  2.78009792973714E-03
 cg2d_nsa: Sum(rhs),rhsMax =  -8.11533160634804E-03  2.83193126068913E-03
 cg2d_nsa: Sum(rhs),rhsMax =  -9.30436782452248E-03  2.86771962789893E-03
 cg2d_nsa: Sum(rhs),rhsMax =  -9.76260394367150E-03  2.88321602708635E-03
 cg2d_nsa: Sum(rhs),rhsMax =  -9.41588734904926E-03  2.87721816789039E-03
 cg2d_nsa: Sum(rhs),rhsMax =  -8.34958543633576E-03  2.85172238552702E-03
 cg2d_nsa: Sum(rhs),rhsMax =  -6.78891548270337E-03  2.90854930430450E-03
 cg2d_nsa: Sum(rhs),rhsMax =  -5.05216133365117E-03  2.93304375103146E-03
 cg2d_nsa: Sum(rhs),rhsMax =  -3.48645862208748E-03  2.88331761189326E-03
 cg2d_nsa: Sum(rhs),rhsMax =  -2.39907585528772E-03  2.77469261075872E-03
 cg2d_nsa: Sum(rhs),rhsMax =  -1.99776870917471E-03  2.64912183919273E-03
 cg2d_nsa: Sum(rhs),rhsMax =  -2.35175889144327E-03  2.63954764691795E-03
 cg2d_nsa: Sum(rhs),rhsMax =  -3.38063151300029E-03  2.64744430899424E-03
 cg2d_nsa: Sum(rhs),rhsMax =  -4.87283024561942E-03  2.67027734220284E-03
 cg2d_nsa: Sum(rhs),rhsMax =  -6.52958392921148E-03  2.75143063159173E-03
 cg2d_nsa: Sum(rhs),rhsMax =  -8.02517509419168E-03  2.84716529053694E-03
 cg2d_nsa: Sum(rhs),rhsMax =  -9.07141267047853E-03  2.92480130054836E-03
 cg2d_nsa: Sum(rhs),rhsMax =  -9.47356457628780E-03  2.97120289946606E-03
 cg2d_nsa: Sum(rhs),rhsMax =  -9.16691596447746E-03  2.97966806166266E-03
 cg2d_nsa: Sum(rhs),rhsMax =  -8.22712335947396E-03  3.00381238992961E-03
 cg2d_nsa: Sum(rhs),rhsMax =  -6.85280732694011E-03  3.08036412987563E-03
 cg2d_nsa: Sum(rhs),rhsMax =  -5.32430722244333E-03  3.09182672345344E-03
 cg2d_nsa: Sum(rhs),rhsMax =  -3.94713131999975E-03  3.03934311387752E-03
 cg2d_nsa: Sum(rhs),rhsMax =  -2.99148612661364E-03  2.93659607454167E-03
 cg2d_nsa: Sum(rhs),rhsMax =  -2.63983303736626E-03  2.80689807175624E-03
 cg2d_nsa: Sum(rhs),rhsMax =  -2.95262901419489E-03  2.68543418626269E-03
 cg2d_nsa: Sum(rhs),rhsMax =  -3.85865385685748E-03  2.73031560505007E-03
 cg2d_nsa: Sum(rhs),rhsMax =  -5.17138138226999E-03  2.80043604472479E-03
 cg2d_nsa: Sum(rhs),rhsMax =  -6.62770801818659E-03  2.88238466446797E-03
 cg2d_nsa: Sum(rhs),rhsMax =  -7.94102494184471E-03  2.96047705984750E-03
 cg2d_nsa: Sum(rhs),rhsMax =  -8.85794584852077E-03  3.01993448941536E-03
 cg2d_nsa: Sum(rhs),rhsMax =  -9.20747814686297E-03  3.04982332177155E-03
 cg2d_nsa: Sum(rhs),rhsMax =  -8.93311468782714E-03  3.04517983222736E-03
 cg2d_nsa: Sum(rhs),rhsMax =  -8.10185279657905E-03  3.11258931186740E-03
 cg2d_nsa: Sum(rhs),rhsMax =  -6.88878928790495E-03  3.17297134448763E-03
 cg2d_nsa: Sum(rhs),rhsMax =  -5.54076181123284E-03  3.17471658156175E-03
 cg2d_nsa: Sum(rhs),rhsMax =  -4.32655857734963E-03  3.11938177436900E-03
 cg2d_nsa: Sum(rhs),rhsMax =  -3.48371959342359E-03  3.01971790719260E-03
 cg2d_nsa: Sum(rhs),rhsMax =  -3.17244062161040E-03  2.89700829918538E-03
 cg2d_nsa: Sum(rhs),rhsMax =  -3.44550655394546E-03  2.77676424283674E-03
 cg2d_nsa: Sum(rhs),rhsMax =  -4.23987147823772E-03  2.78119169436203E-03
 cg2d_nsa: Sum(rhs),rhsMax =  -5.39114863415257E-03  2.84461359074683E-03
 cg2d_nsa: Sum(rhs),rhsMax =  -6.66774870638475E-03  2.91823914487165E-03
 cg2d_nsa: Sum(rhs),rhsMax =  -7.81760222858462E-03  2.98773887821881E-03
 cg2d_nsa: Sum(rhs),rhsMax =  -8.61805652262227E-03  3.03980213890937E-03
 cg2d_nsa: Sum(rhs),rhsMax =  -8.91908479251026E-03  3.06473928375201E-03
 cg2d_nsa: Sum(rhs),rhsMax =  -8.67143925072355E-03  3.06396598169582E-03
 cg2d_nsa: Sum(rhs),rhsMax =  -7.93449161748597E-03  3.16208627758014E-03
 cg2d_nsa: Sum(rhs),rhsMax =  -6.86259127626635E-03  3.21610127338394E-03
 cg2d_nsa: Sum(rhs),rhsMax =  -5.67301271659434E-03  3.21680818858012E-03
 cg2d_nsa: Sum(rhs),rhsMax =  -4.60212404908288E-03  3.16554824342612E-03
 cg2d_nsa: Sum(rhs),rhsMax =  -3.85860122113989E-03  3.07378666621668E-03
 cg2d_nsa: Sum(rhs),rhsMax =  -3.58293279152771E-03  2.96071722813576E-03
 cg2d_nsa: Sum(rhs),rhsMax =  -3.82105726218169E-03  2.84938999880628E-03
 cg2d_nsa: Sum(rhs),rhsMax =  -4.51705694147446E-03  2.80618863274100E-03
(PID.TID 0000.0001) Did not write pickup because writePickupAtEnd = FALSE
(PID.TID 0000.0001)   early fc =  0.000000000000000D+00
 --> objf_test(bi,bj)   =  0.473809589267712D-01
(PID.TID 0000.0001)   local fc =  0.473809589267712D-01
(PID.TID 0000.0001)  global fc =  0.473809589267712D-01
(PID.TID 0000.0001) grdchk perturb(+)fc: fcpertplus  =  4.73809589267712E-02
                     ctrl_depth_ini: ctrl update R_low,
                                     adding the control vector.
(PID.TID 0000.0001) Start initial hydrostatic pressure computation
(PID.TID 0000.0001) Pressure is predetermined for buoyancyRelation OCEANIC
(PID.TID 0000.0001) 
(PID.TID 0000.0001) // =======================================================
(PID.TID 0000.0001) // Model current state
(PID.TID 0000.0001) // =======================================================
(PID.TID 0000.0001) 
(PID.TID 0000.0001) SOLVE_FOR_PRESSURE: putPmEinXvector =    F
 cg2d_nsa: Sum(rhs),rhsMax =   0.00000000000000E+00  0.00000000000000E+00
 cg2d_nsa: Sum(rhs),rhsMax =  -1.50873054610922E-03  6.03492218443701E-05
 cg2d_nsa: Sum(rhs),rhsMax =  -3.96041768353671E-03  2.18766023587220E-04
 cg2d_nsa: Sum(rhs),rhsMax =  -6.70151564470159E-03  4.29236468102278E-04
 cg2d_nsa: Sum(rhs),rhsMax =  -9.17158903539280E-03  6.43184796160064E-04
 cg2d_nsa: Sum(rhs),rhsMax =  -1.08944466273261E-02  8.17951762973372E-04
 cg2d_nsa: Sum(rhs),rhsMax =  -1.15449833389847E-02  9.31105228615560E-04
 cg2d_nsa: Sum(rhs),rhsMax =  -1.10127562437937E-02  9.89364856730459E-04
 cg2d_nsa: Sum(rhs),rhsMax =  -9.42153118111772E-03  1.22456378117802E-03
 cg2d_nsa: Sum(rhs),rhsMax =  -7.10092879418012E-03  1.44777510242410E-03
 cg2d_nsa: Sum(rhs),rhsMax =  -4.51794202878426E-03  1.58982062854694E-03
 cg2d_nsa: Sum(rhs),rhsMax =  -2.18275828123121E-03  1.64357697359112E-03
 cg2d_nsa: Sum(rhs),rhsMax =  -5.47818875429821E-04  1.61756159319319E-03
 cg2d_nsa: Sum(rhs),rhsMax =   7.99729202480411E-05  1.53363856519833E-03
 cg2d_nsa: Sum(rhs),rhsMax =  -4.03103057237033E-04  1.42794064547932E-03
 cg2d_nsa: Sum(rhs),rhsMax =  -1.88087816464693E-03  1.49223780544866E-03
 cg2d_nsa: Sum(rhs),rhsMax =  -4.04408898833001E-03  1.56210440457676E-03
 cg2d_nsa: Sum(rhs),rhsMax =  -6.45462889064238E-03  1.63424213123971E-03
 cg2d_nsa: Sum(rhs),rhsMax =  -8.63394917136934E-03  1.70505819037803E-03
 cg2d_nsa: Sum(rhs),rhsMax =  -1.01577899828175E-02  1.77167127640310E-03
 cg2d_nsa: Sum(rhs),rhsMax =  -1.07385064680356E-02  1.83257530162771E-03
 cg2d_nsa: Sum(rhs),rhsMax =  -1.02790482915899E-02  1.88791212222996E-03
 cg2d_nsa: Sum(rhs),rhsMax =  -8.88852268488980E-03  1.93938684067480E-03
 cg2d_nsa: Sum(rhs),rhsMax =  -6.85700209351870E-03  2.06671962832676E-03
 cg2d_nsa: Sum(rhs),rhsMax =  -4.59527343837983E-03  2.17651147552928E-03
 cg2d_nsa: Sum(rhs),rhsMax =  -2.55199123157224E-03  2.23681621158620E-03
 cg2d_nsa: Sum(rhs),rhsMax =  -1.12489762895131E-03  2.25047700804092E-03
 cg2d_nsa: Sum(rhs),rhsMax =  -5.83637558024268E-04  2.23911227357992E-03
 cg2d_nsa: Sum(rhs),rhsMax =  -1.01911454569023E-03  2.31619526743543E-03
 cg2d_nsa: Sum(rhs),rhsMax =  -2.32886289214284E-03  2.39332627903900E-03
 cg2d_nsa: Sum(rhs),rhsMax =  -4.24067142290810E-03  2.46478012357341E-03
 cg2d_nsa: Sum(rhs),rhsMax =  -6.36913438258174E-03  2.52475933032622E-03
 cg2d_nsa: Sum(rhs),rhsMax =  -8.29342191539431E-03  2.56860713525847E-03
 cg2d_nsa: Sum(rhs),rhsMax =  -9.64059754075265E-03  2.59379160272971E-03
 cg2d_nsa: Sum(rhs),rhsMax =  -1.01580044317718E-02  2.60046741228971E-03
 cg2d_nsa: Sum(rhs),rhsMax =  -9.76069658003233E-03  2.59154640649373E-03
 cg2d_nsa: Sum(rhs),rhsMax =  -8.54505745784851E-03  2.57230689587784E-03
 cg2d_nsa: Sum(rhs),rhsMax =  -6.76655619691996E-03  2.57617678028575E-03
 cg2d_nsa: Sum(rhs),rhsMax =  -4.78666960622956E-03  2.60704656823931E-03
 cg2d_nsa: Sum(rhs),rhsMax =  -2.99995524439124E-03  2.55368004479203E-03
 cg2d_nsa: Sum(rhs),rhsMax =  -1.75595290249063E-03  2.53090267750747E-03
 cg2d_nsa: Sum(rhs),rhsMax =  -1.29134016217306E-03  2.55686897608775E-03
 cg2d_nsa: Sum(rhs),rhsMax =  -1.68547889351885E-03  2.59998585970321E-03
 cg2d_nsa: Sum(rhs),rhsMax =  -2.84766408112082E-03  2.65617340519170E-03
 cg2d_nsa: Sum(rhs),rhsMax =  -4.53801266354318E-03  2.71885907595900E-03
 cg2d_nsa: Sum(rhs),rhsMax =  -6.41728547846431E-03  2.78009792513404E-03
 cg2d_nsa: Sum(rhs),rhsMax =  -8.11533162755178E-03  2.83193125602208E-03
 cg2d_nsa: Sum(rhs),rhsMax =  -9.30436784828399E-03  2.86771962314127E-03
 cg2d_nsa: Sum(rhs),rhsMax =  -9.76260397003185E-03  2.88321602220253E-03
 cg2d_nsa: Sum(rhs),rhsMax =  -9.41588737807532E-03  2.87721816284400E-03
 cg2d_nsa: Sum(rhs),rhsMax =  -8.34958546814386E-03  2.85172238028924E-03
 cg2d_nsa: Sum(rhs),rhsMax =  -6.78891551747301E-03  2.90854929450311E-03
 cg2d_nsa: Sum(rhs),rhsMax =  -5.05216137162625E-03  2.93304373769073E-03
 cg2d_nsa: Sum(rhs),rhsMax =  -3.48645866356441E-03  2.88331759553147E-03
 cg2d_nsa: Sum(rhs),rhsMax =  -2.39907590059292E-03  2.77469259222897E-03
 cg2d_nsa: Sum(rhs),rhsMax =  -1.99776875863581E-03  2.64912183315300E-03
 cg2d_nsa: Sum(rhs),rhsMax =  -2.35175894535998E-03  2.63954764084787E-03
 cg2d_nsa: Sum(rhs),rhsMax =  -3.38063157162090E-03  2.64744430294083E-03
 cg2d_nsa: Sum(rhs),rhsMax =  -4.87283030912759E-03  2.67027733619936E-03
 cg2d_nsa: Sum(rhs),rhsMax =  -6.52958399772633E-03  2.75143059790761E-03
 cg2d_nsa: Sum(rhs),rhsMax =  -8.02517516778114E-03  2.84716525600340E-03
 cg2d_nsa: Sum(rhs),rhsMax =  -9.07141274918323E-03  2.92480126528037E-03
 cg2d_nsa: Sum(rhs),rhsMax =  -9.47356466015075E-03  2.97120286357196E-03
 cg2d_nsa: Sum(rhs),rhsMax =  -9.16691605357342E-03  2.97966802522268E-03
 cg2d_nsa: Sum(rhs),rhsMax =  -8.22712345393214E-03  3.00381236883993E-03
 cg2d_nsa: Sum(rhs),rhsMax =  -6.85280742695566E-03  3.08036410650864E-03
 cg2d_nsa: Sum(rhs),rhsMax =  -5.32430732827480E-03  3.09182669794382E-03
 cg2d_nsa: Sum(rhs),rhsMax =  -3.94713143195298E-03  3.03934308668225E-03
 cg2d_nsa: Sum(rhs),rhsMax =  -2.99148624501492E-03  2.93659604634100E-03
 cg2d_nsa: Sum(rhs),rhsMax =  -2.63983316253022E-03  2.80689804330845E-03
 cg2d_nsa: Sum(rhs),rhsMax =  -2.95262914639365E-03  2.68543414511727E-03
 cg2d_nsa: Sum(rhs),rhsMax =  -3.85865399629732E-03  2.73031556303213E-03
 cg2d_nsa: Sum(rhs),rhsMax =  -5.17138152908052E-03  2.80043600188270E-03
 cg2d_nsa: Sum(rhs),rhsMax =  -6.62770817242487E-03  2.88238462089200E-03
 cg2d_nsa: Sum(rhs),rhsMax =  -7.94102510351379E-03  2.96047701565444E-03
 cg2d_nsa: Sum(rhs),rhsMax =  -8.85794601759926E-03  3.01993444472753E-03
 cg2d_nsa: Sum(rhs),rhsMax =  -9.20747832333968E-03  3.04982327669446E-03
 cg2d_nsa: Sum(rhs),rhsMax =  -8.93311487173404E-03  3.04517978683055E-03
 cg2d_nsa: Sum(rhs),rhsMax =  -8.10185298801583E-03  3.11258928081171E-03
 cg2d_nsa: Sum(rhs),rhsMax =  -6.88878948704997E-03  3.17297131110853E-03
 cg2d_nsa: Sum(rhs),rhsMax =  -5.54076201833811E-03  3.17471654621341E-03
 cg2d_nsa: Sum(rhs),rhsMax =  -4.32655879272049E-03  3.11938173773385E-03
 cg2d_nsa: Sum(rhs),rhsMax =  -3.48371981738694E-03  3.01971787016063E-03
 cg2d_nsa: Sum(rhs),rhsMax =  -3.17244085447761E-03  2.89700826268861E-03
 cg2d_nsa: Sum(rhs),rhsMax =  -3.44550679597724E-03  2.77676420767165E-03
 cg2d_nsa: Sum(rhs),rhsMax =  -4.23987172961804E-03  2.78119164466102E-03
 cg2d_nsa: Sum(rhs),rhsMax =  -5.39114889497678E-03  2.84461354036555E-03
 cg2d_nsa: Sum(rhs),rhsMax =  -6.66774897666471E-03  2.91823909391539E-03
 cg2d_nsa: Sum(rhs),rhsMax =  -7.81760250826975E-03  2.98773882682418E-03
 cg2d_nsa: Sum(rhs),rhsMax =  -8.61805681163281E-03  3.03980208722198E-03
 cg2d_nsa: Sum(rhs),rhsMax =  -8.91908509077603E-03  3.06473923190223E-03
 cg2d_nsa: Sum(rhs),rhsMax =  -8.67143955822079E-03  3.06396595018436E-03
 cg2d_nsa: Sum(rhs),rhsMax =  -7.93449193426495E-03  3.16208624365447E-03
 cg2d_nsa: Sum(rhs),rhsMax =  -6.86259160246413E-03  3.21610123685980E-03
 cg2d_nsa: Sum(rhs),rhsMax =  -5.67301305243018E-03  3.21680814971787E-03
 cg2d_nsa: Sum(rhs),rhsMax =  -4.60212439483687E-03  3.16554820288834E-03
 cg2d_nsa: Sum(rhs),rhsMax =  -3.85860157711922E-03  3.07378662494967E-03
 cg2d_nsa: Sum(rhs),rhsMax =  -3.58293315802685E-03  2.96071718719738E-03
 cg2d_nsa: Sum(rhs),rhsMax =  -3.82105763944457E-03  2.84938995917270E-03
 cg2d_nsa: Sum(rhs),rhsMax =  -4.51705732966587E-03  2.80618857866320E-03
(PID.TID 0000.0001) Did not write pickup because writePickupAtEnd = FALSE
(PID.TID 0000.0001)   early fc =  0.000000000000000D+00
 --> objf_test(bi,bj)   =  0.473809585870582D-01
(PID.TID 0000.0001)   local fc =  0.473809585870582D-01
(PID.TID 0000.0001)  global fc =  0.473809585870582D-01
(PID.TID 0000.0001) grdchk perturb(-)fc: fcpertminus =  4.73809585870582E-02
grad-res -------------------------------
 grad-res     0    6    1    4    1    1    1    1   4.73809587569E-02  4.73809589268E-02  4.73809585871E-02
 grad-res     0    6    6   16    0    1    1    1   1.69856454963E-06  1.69856524679E-06 -4.10439189968E-07
(PID.TID 0000.0001)  ADM  ref_cost_function      =  4.73809587569147E-02
(PID.TID 0000.0001)  ADM  adjoint_gradient       =  1.69856454963078E-06
(PID.TID 0000.0001)  ADM  finite-diff_grad       =  1.69856524678824E-06
(PID.TID 0000.0001) ====== End of gradient-check number   6 (ierr=  0) =======
(PID.TID 0000.0001) ====== Starts gradient-check number   7 (=ichknum) =======
 ph-test icomp, ncvarcomp, ichknum           19          25           7
 ph-grd _loc: bi, bj, icomptest, ichknum            1           1          16           7
 ph-grd -->hit<--            4           4           1           1
(PID.TID 0000.0001) grdchk pos: i,j,k=    4    4    1 ; bi,bj=   1   1 ; iobc=  1 ; rec=   1
                     ctrl_depth_ini: ctrl update R_low,
                                     adding the control vector.
(PID.TID 0000.0001) Start initial hydrostatic pressure computation
(PID.TID 0000.0001) Pressure is predetermined for buoyancyRelation OCEANIC
(PID.TID 0000.0001) 
(PID.TID 0000.0001) // =======================================================
(PID.TID 0000.0001) // Model current state
(PID.TID 0000.0001) // =======================================================
(PID.TID 0000.0001) 
(PID.TID 0000.0001) SOLVE_FOR_PRESSURE: putPmEinXvector =    F
 cg2d_nsa: Sum(rhs),rhsMax =   0.00000000000000E+00  0.00000000000000E+00
 cg2d_nsa: Sum(rhs),rhsMax =  -1.50873054610922E-03  6.03492218443701E-05
 cg2d_nsa: Sum(rhs),rhsMax =  -3.96041768353671E-03  2.18766023587220E-04
 cg2d_nsa: Sum(rhs),rhsMax =  -6.70151564469764E-03  4.29236468113118E-04
 cg2d_nsa: Sum(rhs),rhsMax =  -9.17158903538762E-03  6.43184796161194E-04
 cg2d_nsa: Sum(rhs),rhsMax =  -1.08944466273295E-02  8.17951762933186E-04
 cg2d_nsa: Sum(rhs),rhsMax =  -1.15449833390067E-02  9.31105228524978E-04
 cg2d_nsa: Sum(rhs),rhsMax =  -1.10127562438369E-02  9.89364856526832E-04
 cg2d_nsa: Sum(rhs),rhsMax =  -9.42153118116996E-03  1.22456378118492E-03
 cg2d_nsa: Sum(rhs),rhsMax =  -7.10092879420975E-03  1.44777510260533E-03
 cg2d_nsa: Sum(rhs),rhsMax =  -4.51794202874045E-03  1.58982062899315E-03
 cg2d_nsa: Sum(rhs),rhsMax =  -2.18275828105046E-03  1.64357697437354E-03
 cg2d_nsa: Sum(rhs),rhsMax =  -5.47818875048668E-04  1.61756159434313E-03
 cg2d_nsa: Sum(rhs),rhsMax =   7.99729208758350E-05  1.53363856669223E-03
 cg2d_nsa: Sum(rhs),rhsMax =  -4.03103056351891E-04  1.42794064932882E-03
 cg2d_nsa: Sum(rhs),rhsMax =  -1.88087816354494E-03  1.49223780966908E-03
 cg2d_nsa: Sum(rhs),rhsMax =  -4.04408898711198E-03  1.56210440891631E-03
 cg2d_nsa: Sum(rhs),rhsMax =  -6.45462888946898E-03  1.63424213545346E-03
 cg2d_nsa: Sum(rhs),rhsMax =  -8.63394917044996E-03  1.70505819427395E-03
 cg2d_nsa: Sum(rhs),rhsMax =  -1.01577899823894E-02  1.77167127988036E-03
 cg2d_nsa: Sum(rhs),rhsMax =  -1.07385064683363E-02  1.83257530469971E-03
 cg2d_nsa: Sum(rhs),rhsMax =  -1.02790482928280E-02  1.88791212502736E-03
 cg2d_nsa: Sum(rhs),rhsMax =  -8.88852268721924E-03  1.93938684342709E-03
 cg2d_nsa: Sum(rhs),rhsMax =  -6.85700209702139E-03  2.06671962719348E-03
 cg2d_nsa: Sum(rhs),rhsMax =  -4.59527344306130E-03  2.17651147441910E-03
 cg2d_nsa: Sum(rhs),rhsMax =  -2.55199123737085E-03  2.23681621074009E-03
 cg2d_nsa: Sum(rhs),rhsMax =  -1.12489763576019E-03  2.25047700766405E-03
 cg2d_nsa: Sum(rhs),rhsMax =  -5.83637565722275E-04  2.23911227999256E-03
 cg2d_nsa: Sum(rhs),rhsMax =  -1.01911455417612E-03  2.31619527483106E-03
 cg2d_nsa: Sum(rhs),rhsMax =  -2.32886290136621E-03  2.39332628722726E-03
 cg2d_nsa: Sum(rhs),rhsMax =  -4.24067143289096E-03  2.46478013227535E-03
 cg2d_nsa: Sum(rhs),rhsMax =  -6.36913439342617E-03  2.52475933922041E-03
 cg2d_nsa: Sum(rhs),rhsMax =  -8.29342192727424E-03  2.56860714403348E-03
 cg2d_nsa: Sum(rhs),rhsMax =  -9.64059755389103E-03  2.59379161113397E-03
 cg2d_nsa: Sum(rhs),rhsMax =  -1.01580044464073E-02  2.60046742016988E-03
 cg2d_nsa: Sum(rhs),rhsMax =  -9.76069659638117E-03  2.59154641381509E-03
 cg2d_nsa: Sum(rhs),rhsMax =  -8.54505747607003E-03  2.57230690272369E-03
 cg2d_nsa: Sum(rhs),rhsMax =  -6.76655621709095E-03  2.57617677321072E-03
 cg2d_nsa: Sum(rhs),rhsMax =  -4.78666962833365E-03  2.60704656319124E-03
 cg2d_nsa: Sum(rhs),rhsMax =  -2.99995526832509E-03  2.55368004125577E-03
 cg2d_nsa: Sum(rhs),rhsMax =  -1.75595292808569E-03  2.53090268462040E-03
 cg2d_nsa: Sum(rhs),rhsMax =  -1.29134018922891E-03  2.55686898376976E-03
 cg2d_nsa: Sum(rhs),rhsMax =  -1.68547892184159E-03  2.59998586800894E-03
 cg2d_nsa: Sum(rhs),rhsMax =  -2.84766411055896E-03  2.65617341407504E-03
 cg2d_nsa: Sum(rhs),rhsMax =  -4.53801269401416E-03  2.71885908528598E-03
 cg2d_nsa: Sum(rhs),rhsMax =  -6.41728550996625E-03  2.78009793471090E-03
 cg2d_nsa: Sum(rhs),rhsMax =  -8.11533166015826E-03  2.83193126563263E-03
 cg2d_nsa: Sum(rhs),rhsMax =  -9.30436788212313E-03  2.86771963258624E-03
 cg2d_nsa: Sum(rhs),rhsMax =  -9.76260400525372E-03  2.88321603133350E-03
 cg2d_nsa: Sum(rhs),rhsMax =  -9.41588741481473E-03  2.87721817158591E-03
 cg2d_nsa: Sum(rhs),rhsMax =  -8.34958550648570E-03  2.85172238864781E-03
 cg2d_nsa: Sum(rhs),rhsMax =  -6.78891555742755E-03  2.90854928997831E-03
 cg2d_nsa: Sum(rhs),rhsMax =  -5.05216141311944E-03  2.93304373493472E-03
 cg2d_nsa: Sum(rhs),rhsMax =  -3.48645870644504E-03  2.88331759434915E-03
 cg2d_nsa: Sum(rhs),rhsMax =  -2.39907594465544E-03  2.77469259222489E-03
 cg2d_nsa: Sum(rhs),rhsMax =  -1.99776880365402E-03  2.64912184134063E-03
 cg2d_nsa: Sum(rhs),rhsMax =  -2.35175899112484E-03  2.63954764929978E-03
 cg2d_nsa: Sum(rhs),rhsMax =  -3.38063161797457E-03  2.64744431164133E-03
 cg2d_nsa: Sum(rhs),rhsMax =  -4.87283035598676E-03  2.67027734507850E-03
 cg2d_nsa: Sum(rhs),rhsMax =  -6.52958404508987E-03  2.75143061582485E-03
 cg2d_nsa: Sum(rhs),rhsMax =  -8.02517521572035E-03  2.84716527436818E-03
 cg2d_nsa: Sum(rhs),rhsMax =  -9.07141279781669E-03  2.92480128396842E-03
 cg2d_nsa: Sum(rhs),rhsMax =  -9.47356470960874E-03  2.97120288246962E-03
 cg2d_nsa: Sum(rhs),rhsMax =  -9.16691610395912E-03  2.97966804425100E-03
 cg2d_nsa: Sum(rhs),rhsMax =  -8.22712350528776E-03  3.00381236966028E-03
 cg2d_nsa: Sum(rhs),rhsMax =  -6.85280747924059E-03  3.08036410852724E-03
 cg2d_nsa: Sum(rhs),rhsMax =  -5.32430738136031E-03  3.09182670114373E-03
 cg2d_nsa: Sum(rhs),rhsMax =  -3.94713148563513E-03  3.03934309086439E-03
 cg2d_nsa: Sum(rhs),rhsMax =  -2.99148629904304E-03  2.93659605116865E-03
 cg2d_nsa: Sum(rhs),rhsMax =  -2.63983321664544E-03  2.80689804838079E-03
 cg2d_nsa: Sum(rhs),rhsMax =  -2.95262920036983E-03  2.68543416643409E-03
 cg2d_nsa: Sum(rhs),rhsMax =  -3.85865404997582E-03  2.73031558493960E-03
 cg2d_nsa: Sum(rhs),rhsMax =  -5.17138158239175E-03  2.80043602433232E-03
 cg2d_nsa: Sum(rhs),rhsMax =  -6.62770822539177E-03  2.88238464378934E-03
 cg2d_nsa: Sum(rhs),rhsMax =  -7.94102515623645E-03  2.96047703887758E-03
 cg2d_nsa: Sum(rhs),rhsMax =  -8.85794607022308E-03  3.01993446815151E-03
 cg2d_nsa: Sum(rhs),rhsMax =  -9.20747837601352E-03  3.04982330021666E-03
 cg2d_nsa: Sum(rhs),rhsMax =  -8.93311492456662E-03  3.04517981039192E-03
 cg2d_nsa: Sum(rhs),rhsMax =  -8.10185304103881E-03  3.11258928743413E-03
 cg2d_nsa: Sum(rhs),rhsMax =  -6.88878954019576E-03  3.17297131911787E-03
 cg2d_nsa: Sum(rhs),rhsMax =  -5.54076207143683E-03  3.17471655547863E-03
 cg2d_nsa: Sum(rhs),rhsMax =  -4.32655884551692E-03  3.11938174793137E-03
 cg2d_nsa: Sum(rhs),rhsMax =  -3.48371986957460E-03  3.01971788083096E-03
 cg2d_nsa: Sum(rhs),rhsMax =  -3.17244090574331E-03  2.89700827332169E-03
 cg2d_nsa: Sum(rhs),rhsMax =  -3.44550684604733E-03  2.77676421780384E-03
 cg2d_nsa: Sum(rhs),rhsMax =  -4.23987177829737E-03  2.78119167117460E-03
 cg2d_nsa: Sum(rhs),rhsMax =  -5.39114894217240E-03  2.84461356745572E-03
 cg2d_nsa: Sum(rhs),rhsMax =  -6.66774902238944E-03  2.91823912146850E-03
 cg2d_nsa: Sum(rhs),rhsMax =  -7.81760255262487E-03  2.98773885469299E-03
 cg2d_nsa: Sum(rhs),rhsMax =  -8.61805685477285E-03  3.03980211525199E-03
 cg2d_nsa: Sum(rhs),rhsMax =  -8.91908513286277E-03  3.06473925995966E-03
 cg2d_nsa: Sum(rhs),rhsMax =  -8.67143959937536E-03  3.06396595858518E-03
 cg2d_nsa: Sum(rhs),rhsMax =  -7.93449197452734E-03  3.16208625342257E-03
 cg2d_nsa: Sum(rhs),rhsMax =  -6.86259164176843E-03  3.21610124816372E-03
 cg2d_nsa: Sum(rhs),rhsMax =  -5.67301309060047E-03  3.21680816248585E-03
 cg2d_nsa: Sum(rhs),rhsMax =  -4.60212443160464E-03  3.16554821681853E-03
 cg2d_nsa: Sum(rhs),rhsMax =  -3.85860161215906E-03  3.07378663956375E-03
 cg2d_nsa: Sum(rhs),rhsMax =  -3.58293319100357E-03  2.96071720192748E-03
 cg2d_nsa: Sum(rhs),rhsMax =  -3.82105767006229E-03  2.84938997346505E-03
 cg2d_nsa: Sum(rhs),rhsMax =  -4.51705735770966E-03  2.80618860866275E-03
(PID.TID 0000.0001) Did not write pickup because writePickupAtEnd = FALSE
(PID.TID 0000.0001)   early fc =  0.000000000000000D+00
 --> objf_test(bi,bj)   =  0.473809585484396D-01
(PID.TID 0000.0001)   local fc =  0.473809585484396D-01
(PID.TID 0000.0001)  global fc =  0.473809585484396D-01
(PID.TID 0000.0001) grdchk perturb(+)fc: fcpertplus  =  4.73809585484396E-02
                     ctrl_depth_ini: ctrl update R_low,
                                     adding the control vector.
(PID.TID 0000.0001) Start initial hydrostatic pressure computation
(PID.TID 0000.0001) Pressure is predetermined for buoyancyRelation OCEANIC
(PID.TID 0000.0001) 
(PID.TID 0000.0001) // =======================================================
(PID.TID 0000.0001) // Model current state
(PID.TID 0000.0001) // =======================================================
(PID.TID 0000.0001) 
(PID.TID 0000.0001) SOLVE_FOR_PRESSURE: putPmEinXvector =    F
 cg2d_nsa: Sum(rhs),rhsMax =   0.00000000000000E+00  0.00000000000000E+00
 cg2d_nsa: Sum(rhs),rhsMax =  -1.50873054610922E-03  6.03492218443701E-05
 cg2d_nsa: Sum(rhs),rhsMax =  -3.96041768353671E-03  2.18766023587221E-04
 cg2d_nsa: Sum(rhs),rhsMax =  -6.70151564470750E-03  4.29236468096549E-04
 cg2d_nsa: Sum(rhs),rhsMax =  -9.17158903540790E-03  6.43184796128125E-04
 cg2d_nsa: Sum(rhs),rhsMax =  -1.08944466273477E-02  8.17951762900274E-04
 cg2d_nsa: Sum(rhs),rhsMax =  -1.15449833390053E-02  9.31105228510737E-04
 cg2d_nsa: Sum(rhs),rhsMax =  -1.10127562438026E-02  9.89364856952122E-04
 cg2d_nsa: Sum(rhs),rhsMax =  -9.42153118110387E-03  1.22456378138393E-03
 cg2d_nsa: Sum(rhs),rhsMax =  -7.10092879413531E-03  1.44777510280192E-03
 cg2d_nsa: Sum(rhs),rhsMax =  -4.51794202870512E-03  1.58982062906626E-03
 cg2d_nsa: Sum(rhs),rhsMax =  -2.18275828111969E-03  1.64357697414973E-03
 cg2d_nsa: Sum(rhs),rhsMax =  -5.47818875291096E-04  1.61756159361811E-03
 cg2d_nsa: Sum(rhs),rhsMax =   7.99729204098725E-05  1.53363856526426E-03
 cg2d_nsa: Sum(rhs),rhsMax =  -4.03103057048894E-04  1.42794064195614E-03
 cg2d_nsa: Sum(rhs),rhsMax =  -1.88087816441512E-03  1.49223780156214E-03
 cg2d_nsa: Sum(rhs),rhsMax =  -4.04408898801685E-03  1.56210440057950E-03
 cg2d_nsa: Sum(rhs),rhsMax =  -6.45462889018583E-03  1.63424212738885E-03
 cg2d_nsa: Sum(rhs),rhsMax =  -8.63394917068209E-03  1.70505818688925E-03
 cg2d_nsa: Sum(rhs),rhsMax =  -1.01577899817898E-02  1.77167127341007E-03
 cg2d_nsa: Sum(rhs),rhsMax =  -1.07385064665414E-02  1.83257529915463E-03
 cg2d_nsa: Sum(rhs),rhsMax =  -1.02790482894959E-02  1.88791212018299E-03
 cg2d_nsa: Sum(rhs),rhsMax =  -8.88852268206495E-03  1.93938683885458E-03
 cg2d_nsa: Sum(rhs),rhsMax =  -6.85700208984322E-03  2.06671962434859E-03
 cg2d_nsa: Sum(rhs),rhsMax =  -4.59527343375158E-03  2.17651147260631E-03
 cg2d_nsa: Sum(rhs),rhsMax =  -2.55199122590923E-03  2.23681620981233E-03
 cg2d_nsa: Sum(rhs),rhsMax =  -1.12489762218959E-03  2.25047700734327E-03
 cg2d_nsa: Sum(rhs),rhsMax =  -5.83637550111633E-04  2.23911226901879E-03
 cg2d_nsa: Sum(rhs),rhsMax =  -1.01911453657662E-03  2.31619526200831E-03
 cg2d_nsa: Sum(rhs),rhsMax =  -2.32886288176931E-03  2.39332627291423E-03
 cg2d_nsa: Sum(rhs),rhsMax =  -4.24067141119646E-03  2.46478011701972E-03
 cg2d_nsa: Sum(rhs),rhsMax =  -6.36913436942678E-03  2.52475932366992E-03
 cg2d_nsa: Sum(rhs),rhsMax =  -8.29342190066024E-03  2.56860712883102E-03
 cg2d_nsa: Sum(rhs),rhsMax =  -9.64059752427452E-03  2.59379159681492E-03
 cg2d_nsa: Sum(rhs),rhsMax =  -1.01580044133619E-02  2.60046740707986E-03
 cg2d_nsa: Sum(rhs),rhsMax =  -9.76069655948988E-03  2.59154640206177E-03
 cg2d_nsa: Sum(rhs),rhsMax =  -8.54505743497201E-03  2.57230689217077E-03
 cg2d_nsa: Sum(rhs),rhsMax =  -6.76655617151849E-03  2.57617678843137E-03
 cg2d_nsa: Sum(rhs),rhsMax =  -4.78666957813211E-03  2.60704657826786E-03
 cg2d_nsa: Sum(rhs),rhsMax =  -2.99995521345164E-03  2.55368005607113E-03
 cg2d_nsa: Sum(rhs),rhsMax =  -1.75595286858754E-03  2.53090267451604E-03
 cg2d_nsa: Sum(rhs),rhsMax =  -1.29134012520494E-03  2.55686897269305E-03
 cg2d_nsa: Sum(rhs),rhsMax =  -1.68547885339493E-03  2.59998585580591E-03
 cg2d_nsa: Sum(rhs),rhsMax =  -2.84766403775007E-03  2.65617340080006E-03
 cg2d_nsa: Sum(rhs),rhsMax =  -4.53801261682325E-03  2.71885907118273E-03
 cg2d_nsa: Sum(rhs),rhsMax =  -6.41728542827282E-03  2.78009792016028E-03
 cg2d_nsa: Sum(rhs),rhsMax =  -8.11533157374156E-03  2.83193125107858E-03
 cg2d_nsa: Sum(rhs),rhsMax =  -9.30436779068335E-03  2.86771961845396E-03
 cg2d_nsa: Sum(rhs),rhsMax =  -9.76260390844958E-03  2.88321601795537E-03
 cg2d_nsa: Sum(rhs),rhsMax =  -9.41588731230979E-03  2.87721815914846E-03
 cg2d_nsa: Sum(rhs),rhsMax =  -8.34958539799389E-03  2.85172237716846E-03
 cg2d_nsa: Sum(rhs),rhsMax =  -6.78891544274878E-03  2.90854930882930E-03
 cg2d_nsa: Sum(rhs),rhsMax =  -5.05216129215796E-03  2.93304375378747E-03
 cg2d_nsa: Sum(rhs),rhsMax =  -3.48645857920684E-03  2.88331761307558E-03
 cg2d_nsa: Sum(rhs),rhsMax =  -2.39907581122523E-03  2.77469261076280E-03
 cg2d_nsa: Sum(rhs),rhsMax =  -1.99776866415653E-03  2.64912183100510E-03
 cg2d_nsa: Sum(rhs),rhsMax =  -2.35175884567843E-03  2.63954763846603E-03
 cg2d_nsa: Sum(rhs),rhsMax =  -3.38063146664663E-03  2.64744430029375E-03
 cg2d_nsa: Sum(rhs),rhsMax =  -4.87283019876026E-03  2.67027733332369E-03
 cg2d_nsa: Sum(rhs),rhsMax =  -6.52958388184796E-03  2.75143061367449E-03
 cg2d_nsa: Sum(rhs),rhsMax =  -8.02517504625247E-03  2.84716527217217E-03
 cg2d_nsa: Sum(rhs),rhsMax =  -9.07141262184505E-03  2.92480128186031E-03
 cg2d_nsa: Sum(rhs),rhsMax =  -9.47356452682978E-03  2.97120288056839E-03
 cg2d_nsa: Sum(rhs),rhsMax =  -9.16691591409174E-03  2.97966804263433E-03
 cg2d_nsa: Sum(rhs),rhsMax =  -8.22712330811832E-03  3.00381238910926E-03
 cg2d_nsa: Sum(rhs),rhsMax =  -6.85280727465521E-03  3.08036412785704E-03
 cg2d_nsa: Sum(rhs),rhsMax =  -5.32430716935785E-03  3.09182672025353E-03
 cg2d_nsa: Sum(rhs),rhsMax =  -3.94713126631763E-03  3.03934310969540E-03
 cg2d_nsa: Sum(rhs),rhsMax =  -2.99148607258558E-03  2.93659606971401E-03
 cg2d_nsa: Sum(rhs),rhsMax =  -2.63983298325109E-03  2.80689806668391E-03
 cg2d_nsa: Sum(rhs),rhsMax =  -2.95262896021876E-03  2.68543416494588E-03
 cg2d_nsa: Sum(rhs),rhsMax =  -3.85865380317903E-03  2.73031558314261E-03
 cg2d_nsa: Sum(rhs),rhsMax =  -5.17138132895883E-03  2.80043602227517E-03
 cg2d_nsa: Sum(rhs),rhsMax =  -6.62770796521973E-03  2.88238464157064E-03
 cg2d_nsa: Sum(rhs),rhsMax =  -7.94102488912209E-03  2.96047703662436E-03
 cg2d_nsa: Sum(rhs),rhsMax =  -8.85794579589702E-03  3.01993446599138E-03
 cg2d_nsa: Sum(rhs),rhsMax =  -9.20747809418918E-03  3.04982329824934E-03
 cg2d_nsa: Sum(rhs),rhsMax =  -8.93311463499465E-03  3.04517980866597E-03
 cg2d_nsa: Sum(rhs),rhsMax =  -8.10185274355616E-03  3.11258930524499E-03
 cg2d_nsa: Sum(rhs),rhsMax =  -6.88878923475923E-03  3.17297133647831E-03
 cg2d_nsa: Sum(rhs),rhsMax =  -5.54076175813420E-03  3.17471657229653E-03
 cg2d_nsa: Sum(rhs),rhsMax =  -4.32655852455328E-03  3.11938176417150E-03
 cg2d_nsa: Sum(rhs),rhsMax =  -3.48371954123599E-03  3.01971789652226E-03
 cg2d_nsa: Sum(rhs),rhsMax =  -3.17244057034478E-03  2.89700828855229E-03
 cg2d_nsa: Sum(rhs),rhsMax =  -3.44550650387544E-03  2.77676423270455E-03
 cg2d_nsa: Sum(rhs),rhsMax =  -4.23987142955846E-03  2.78119166784846E-03
 cg2d_nsa: Sum(rhs),rhsMax =  -5.39114858695702E-03  2.84461356365666E-03
 cg2d_nsa: Sum(rhs),rhsMax =  -6.66774866066010E-03  2.91823911731854E-03
 cg2d_nsa: Sum(rhs),rhsMax =  -7.81760218422960E-03  2.98773885035001E-03
 cg2d_nsa: Sum(rhs),rhsMax =  -8.61805647948234E-03  3.03980211087935E-03
 cg2d_nsa: Sum(rhs),rhsMax =  -8.91908475042360E-03  3.06473925569458E-03
 cg2d_nsa: Sum(rhs),rhsMax =  -8.67143920956907E-03  3.06396597329502E-03
 cg2d_nsa: Sum(rhs),rhsMax =  -7.93449157722372E-03  3.16208626781205E-03
 cg2d_nsa: Sum(rhs),rhsMax =  -6.86259123696220E-03  3.21610126208003E-03
 cg2d_nsa: Sum(rhs),rhsMax =  -5.67301267842423E-03  3.21680817581214E-03
 cg2d_nsa: Sum(rhs),rhsMax =  -4.60212401231533E-03  3.16554822949595E-03
 cg2d_nsa: Sum(rhs),rhsMax =  -3.85860118610027E-03  3.07378665160260E-03
 cg2d_nsa: Sum(rhs),rhsMax =  -3.58293275855120E-03  2.96071721340568E-03
 cg2d_nsa: Sum(rhs),rhsMax =  -3.82105723156418E-03  2.84938998451393E-03
 cg2d_nsa: Sum(rhs),rhsMax =  -4.51705691343088E-03  2.80618860274145E-03
(PID.TID 0000.0001) Did not write pickup because writePickupAtEnd = FALSE
(PID.TID 0000.0001)   early fc =  0.000000000000000D+00
 --> objf_test(bi,bj)   =  0.473809589653898D-01
(PID.TID 0000.0001)   local fc =  0.473809589653898D-01
(PID.TID 0000.0001)  global fc =  0.473809589653898D-01
(PID.TID 0000.0001) grdchk perturb(-)fc: fcpertminus =  4.73809589653898E-02
grad-res -------------------------------
 grad-res     0    7    4    4    1    1    1    1   4.73809587569E-02  4.73809585484E-02  4.73809589654E-02
 grad-res     0    7    7   19    0    1    1    1  -2.08474964915E-06 -2.08475084418E-06 -5.73221483835E-07
(PID.TID 0000.0001)  ADM  ref_cost_function      =  4.73809587569147E-02
(PID.TID 0000.0001)  ADM  adjoint_gradient       = -2.08474964915463E-06
(PID.TID 0000.0001)  ADM  finite-diff_grad       = -2.08475084417792E-06
(PID.TID 0000.0001) ====== End of gradient-check number   7 (ierr=  0) =======
(PID.TID 0000.0001) ====== Starts gradient-check number   8 (=ichknum) =======
 ph-test icomp, ncvarcomp, ichknum           22          25           8
 ph-grd _loc: bi, bj, icomptest, ichknum            1           1          19           8
 ph-grd -->hit<--            2           5           1           1
(PID.TID 0000.0001) grdchk pos: i,j,k=    2    5    1 ; bi,bj=   1   1 ; iobc=  1 ; rec=   1
                     ctrl_depth_ini: ctrl update R_low,
                                     adding the control vector.
(PID.TID 0000.0001) Start initial hydrostatic pressure computation
(PID.TID 0000.0001) Pressure is predetermined for buoyancyRelation OCEANIC
(PID.TID 0000.0001) 
(PID.TID 0000.0001) // =======================================================
(PID.TID 0000.0001) // Model current state
(PID.TID 0000.0001) // =======================================================
(PID.TID 0000.0001) 
(PID.TID 0000.0001) SOLVE_FOR_PRESSURE: putPmEinXvector =    F
 cg2d_nsa: Sum(rhs),rhsMax =   0.00000000000000E+00  0.00000000000000E+00
 cg2d_nsa: Sum(rhs),rhsMax =  -1.50873054610922E-03  6.03492218443701E-05
 cg2d_nsa: Sum(rhs),rhsMax =  -3.96041768353671E-03  2.18766023587220E-04
 cg2d_nsa: Sum(rhs),rhsMax =  -6.70151564469454E-03  4.29236468136092E-04
 cg2d_nsa: Sum(rhs),rhsMax =  -9.17158903536360E-03  6.43184795990018E-04
 cg2d_nsa: Sum(rhs),rhsMax =  -1.08944466272651E-02  8.17951762500053E-04
 cg2d_nsa: Sum(rhs),rhsMax =  -1.15449833388959E-02  9.31105227951414E-04
 cg2d_nsa: Sum(rhs),rhsMax =  -1.10127562436999E-02  9.89364856527081E-04
 cg2d_nsa: Sum(rhs),rhsMax =  -9.42153118106231E-03  1.22456378149233E-03
 cg2d_nsa: Sum(rhs),rhsMax =  -7.10092879422421E-03  1.44777510139289E-03
 cg2d_nsa: Sum(rhs),rhsMax =  -4.51794202899855E-03  1.58982062538321E-03
 cg2d_nsa: Sum(rhs),rhsMax =  -2.18275828168469E-03  1.64357696763817E-03
 cg2d_nsa: Sum(rhs),rhsMax =  -5.47818876177294E-04  1.61756158408034E-03
 cg2d_nsa: Sum(rhs),rhsMax =   7.99729191766418E-05  1.53363855295451E-03
 cg2d_nsa: Sum(rhs),rhsMax =  -4.03103058630622E-04  1.42794064399022E-03
 cg2d_nsa: Sum(rhs),rhsMax =  -1.88087816632818E-03  1.49223780329677E-03
 cg2d_nsa: Sum(rhs),rhsMax =  -4.04408899023649E-03  1.56210440165546E-03
 cg2d_nsa: Sum(rhs),rhsMax =  -6.45462889269393E-03  1.63424212749092E-03
 cg2d_nsa: Sum(rhs),rhsMax =  -8.63394917348119E-03  1.70505818580119E-03
 cg2d_nsa: Sum(rhs),rhsMax =  -1.01577899849138E-02  1.77167127105427E-03
 cg2d_nsa: Sum(rhs),rhsMax =  -1.07385064700604E-02  1.83257529560818E-03
 cg2d_nsa: Sum(rhs),rhsMax =  -1.02790482935129E-02  1.88791211566604E-03
 cg2d_nsa: Sum(rhs),rhsMax =  -8.88852268670598E-03  1.93938683369171E-03
 cg2d_nsa: Sum(rhs),rhsMax =  -6.85700209524106E-03  2.06671962446242E-03
 cg2d_nsa: Sum(rhs),rhsMax =  -4.59527344002741E-03  2.17651147122416E-03
 cg2d_nsa: Sum(rhs),rhsMax =  -2.55199123315533E-03  2.23681620553225E-03
 cg2d_nsa: Sum(rhs),rhsMax =  -1.12489763045691E-03  2.25047699917410E-03
 cg2d_nsa: Sum(rhs),rhsMax =  -5.83637559404847E-04  2.23911226477202E-03
 cg2d_nsa: Sum(rhs),rhsMax =  -1.01911454685780E-03  2.31619525789295E-03
 cg2d_nsa: Sum(rhs),rhsMax =  -2.32886289296951E-03  2.39332626855432E-03
 cg2d_nsa: Sum(rhs),rhsMax =  -4.24067142323290E-03  2.46478011195612E-03
 cg2d_nsa: Sum(rhs),rhsMax =  -6.36913438222207E-03  2.52475931743189E-03
 cg2d_nsa: Sum(rhs),rhsMax =  -8.29342191415954E-03  2.56860712100989E-03
 cg2d_nsa: Sum(rhs),rhsMax =  -9.64059753845704E-03  2.59379158712705E-03
 cg2d_nsa: Sum(rhs),rhsMax =  -1.01580044282442E-02  2.60046739540763E-03
 cg2d_nsa: Sum(rhs),rhsMax =  -9.76069657512013E-03  2.59154638846578E-03
 cg2d_nsa: Sum(rhs),rhsMax =  -8.54505745141653E-03  2.57230687687124E-03
 cg2d_nsa: Sum(rhs),rhsMax =  -6.76655618884322E-03  2.57617681167018E-03
 cg2d_nsa: Sum(rhs),rhsMax =  -4.78666959638293E-03  2.60704660280952E-03
 cg2d_nsa: Sum(rhs),rhsMax =  -2.99995523263808E-03  2.55368008239992E-03
 cg2d_nsa: Sum(rhs),rhsMax =  -1.75595288867302E-03  2.53090265590668E-03
 cg2d_nsa: Sum(rhs),rhsMax =  -1.29134014610604E-03  2.55686895389672E-03
 cg2d_nsa: Sum(rhs),rhsMax =  -1.68547887498990E-03  2.59998583682163E-03
 cg2d_nsa: Sum(rhs),rhsMax =  -2.84766405989466E-03  2.65617338148222E-03
 cg2d_nsa: Sum(rhs),rhsMax =  -4.53801263937087E-03  2.71885905127423E-03
 cg2d_nsa: Sum(rhs),rhsMax =  -6.41728545109449E-03  2.78009789934471E-03
 cg2d_nsa: Sum(rhs),rhsMax =  -8.11533159674139E-03  2.83193122904102E-03
 cg2d_nsa: Sum(rhs),rhsMax =  -9.30436781380627E-03  2.86771959493900E-03
 cg2d_nsa: Sum(rhs),rhsMax =  -9.76260393167959E-03  2.88321599281167E-03
 cg2d_nsa: Sum(rhs),rhsMax =  -9.41588733565882E-03  2.87721813235221E-03
 cg2d_nsa: Sum(rhs),rhsMax =  -8.34958542148373E-03  2.85172234882209E-03
 cg2d_nsa: Sum(rhs),rhsMax =  -6.78891546639016E-03  2.90854934181906E-03
 cg2d_nsa: Sum(rhs),rhsMax =  -5.05216131593080E-03  2.93304378719632E-03
 cg2d_nsa: Sum(rhs),rhsMax =  -3.48645860304669E-03  2.88331764734921E-03
 cg2d_nsa: Sum(rhs),rhsMax =  -2.39907583501878E-03  2.77469264623231E-03
 cg2d_nsa: Sum(rhs),rhsMax =  -1.99776868774742E-03  2.64912179842263E-03
 cg2d_nsa: Sum(rhs),rhsMax =  -2.35175886888263E-03  2.63954760551476E-03
 cg2d_nsa: Sum(rhs),rhsMax =  -3.38063148927430E-03  2.64744426692917E-03
 cg2d_nsa: Sum(rhs),rhsMax =  -4.87283022063956E-03  2.67027729942325E-03
 cg2d_nsa: Sum(rhs),rhsMax =  -6.52958390284599E-03  2.75143061498394E-03
 cg2d_nsa: Sum(rhs),rhsMax =  -8.02517506628854E-03  2.84716527335978E-03
 cg2d_nsa: Sum(rhs),rhsMax =  -9.07141264089337E-03  2.92480128287683E-03
 cg2d_nsa: Sum(rhs),rhsMax =  -9.47356454491077E-03  2.97120288135737E-03
 cg2d_nsa: Sum(rhs),rhsMax =  -9.16691593125329E-03  2.97966804314558E-03
 cg2d_nsa: Sum(rhs),rhsMax =  -8.22712332441065E-03  3.00381242693367E-03
 cg2d_nsa: Sum(rhs),rhsMax =  -6.85280729010453E-03  3.08036416570752E-03
 cg2d_nsa: Sum(rhs),rhsMax =  -5.32430718394413E-03  3.09182675853931E-03
 cg2d_nsa: Sum(rhs),rhsMax =  -3.94713127996139E-03  3.03934314878519E-03
 cg2d_nsa: Sum(rhs),rhsMax =  -2.99148608514654E-03  2.93659610985682E-03
 cg2d_nsa: Sum(rhs),rhsMax =  -2.63983299453942E-03  2.80689810795472E-03
 cg2d_nsa: Sum(rhs),rhsMax =  -2.95262897001686E-03  2.68543416391542E-03
 cg2d_nsa: Sum(rhs),rhsMax =  -3.85865381126973E-03  2.73031558207877E-03
 cg2d_nsa: Sum(rhs),rhsMax =  -5.17138133515434E-03  2.80043602118391E-03
 cg2d_nsa: Sum(rhs),rhsMax =  -6.62770796938556E-03  2.88238464042910E-03
 cg2d_nsa: Sum(rhs),rhsMax =  -7.94102489119078E-03  2.96047703538565E-03
 cg2d_nsa: Sum(rhs),rhsMax =  -8.85794579586887E-03  3.01993446459443E-03
 cg2d_nsa: Sum(rhs),rhsMax =  -9.20747809211951E-03  3.04982329663192E-03
 cg2d_nsa: Sum(rhs),rhsMax =  -8.93311463096978E-03  3.04517980677818E-03
 cg2d_nsa: Sum(rhs),rhsMax =  -8.10185273766294E-03  3.11258934551402E-03
 cg2d_nsa: Sum(rhs),rhsMax =  -6.88878922705395E-03  3.17297137690744E-03
 cg2d_nsa: Sum(rhs),rhsMax =  -5.54076174861731E-03  3.17471661336798E-03
 cg2d_nsa: Sum(rhs),rhsMax =  -4.32655851315492E-03  3.11938180630107E-03
 cg2d_nsa: Sum(rhs),rhsMax =  -3.48371952781535E-03  3.01971793997520E-03
 cg2d_nsa: Sum(rhs),rhsMax =  -3.17244055470378E-03  2.89700833338721E-03
 cg2d_nsa: Sum(rhs),rhsMax =  -3.44550648578388E-03  2.77676427875715E-03
 cg2d_nsa: Sum(rhs),rhsMax =  -4.23987140878595E-03  2.78119166491363E-03
 cg2d_nsa: Sum(rhs),rhsMax =  -5.39114856330519E-03  2.84461356081958E-03
 cg2d_nsa: Sum(rhs),rhsMax =  -6.66774863398873E-03  2.91823911455528E-03
 cg2d_nsa: Sum(rhs),rhsMax =  -7.81760215447140E-03  2.98773884760541E-03
 cg2d_nsa: Sum(rhs),rhsMax =  -8.61805644664331E-03  3.03980210807721E-03
 cg2d_nsa: Sum(rhs),rhsMax =  -8.91908471456890E-03  3.06473925275177E-03
 cg2d_nsa: Sum(rhs),rhsMax =  -8.67143917079704E-03  3.06396601692470E-03
 cg2d_nsa: Sum(rhs),rhsMax =  -7.93449153563341E-03  3.16208631089426E-03
 cg2d_nsa: Sum(rhs),rhsMax =  -6.86259119262067E-03  3.21610130510734E-03
 cg2d_nsa: Sum(rhs),rhsMax =  -5.67301263134035E-03  3.21680821932830E-03
 cg2d_nsa: Sum(rhs),rhsMax =  -4.60212396242537E-03  3.16554827399202E-03
 cg2d_nsa: Sum(rhs),rhsMax =  -3.85860113326814E-03  3.07378669742307E-03
 cg2d_nsa: Sum(rhs),rhsMax =  -3.58293270258338E-03  2.96071726068243E-03
 cg2d_nsa: Sum(rhs),rhsMax =  -3.82105717223637E-03  2.84939003314100E-03
 cg2d_nsa: Sum(rhs),rhsMax =  -4.51705685052098E-03  2.80618859844653E-03
(PID.TID 0000.0001) Did not write pickup because writePickupAtEnd = FALSE
(PID.TID 0000.0001)   early fc =  0.000000000000000D+00
 --> objf_test(bi,bj)   =  0.473809592922536D-01
(PID.TID 0000.0001)   local fc =  0.473809592922536D-01
(PID.TID 0000.0001)  global fc =  0.473809592922536D-01
(PID.TID 0000.0001) grdchk perturb(+)fc: fcpertplus  =  4.73809592922536E-02
                     ctrl_depth_ini: ctrl update R_low,
                                     adding the control vector.
(PID.TID 0000.0001) Start initial hydrostatic pressure computation
(PID.TID 0000.0001) Pressure is predetermined for buoyancyRelation OCEANIC
(PID.TID 0000.0001) 
(PID.TID 0000.0001) // =======================================================
(PID.TID 0000.0001) // Model current state
(PID.TID 0000.0001) // =======================================================
(PID.TID 0000.0001) 
(PID.TID 0000.0001) SOLVE_FOR_PRESSURE: putPmEinXvector =    F
 cg2d_nsa: Sum(rhs),rhsMax =   0.00000000000000E+00  0.00000000000000E+00
 cg2d_nsa: Sum(rhs),rhsMax =  -1.50873054610922E-03  6.03492218443701E-05
 cg2d_nsa: Sum(rhs),rhsMax =  -3.96041768353671E-03  2.18766023587220E-04
 cg2d_nsa: Sum(rhs),rhsMax =  -6.70151564471061E-03  4.29236468073573E-04
 cg2d_nsa: Sum(rhs),rhsMax =  -9.17158903543193E-03  6.43184796299299E-04
 cg2d_nsa: Sum(rhs),rhsMax =  -1.08944466274121E-02  8.17951763333411E-04
 cg2d_nsa: Sum(rhs),rhsMax =  -1.15449833391160E-02  9.31105229084299E-04
 cg2d_nsa: Sum(rhs),rhsMax =  -1.10127562439396E-02  9.89364856951862E-04
 cg2d_nsa: Sum(rhs),rhsMax =  -9.42153118121146E-03  1.22456378107651E-03
 cg2d_nsa: Sum(rhs),rhsMax =  -7.10092879412078E-03  1.44777510401435E-03
 cg2d_nsa: Sum(rhs),rhsMax =  -4.51794202844694E-03  1.58982063267618E-03
 cg2d_nsa: Sum(rhs),rhsMax =  -2.18275828048540E-03  1.64357698088508E-03
 cg2d_nsa: Sum(rhs),rhsMax =  -5.47818874162409E-04  1.61756160388091E-03
 cg2d_nsa: Sum(rhs),rhsMax =   7.99729221091324E-05  1.53363857900197E-03
 cg2d_nsa: Sum(rhs),rhsMax =  -4.03103054770094E-04  1.42794064729474E-03
 cg2d_nsa: Sum(rhs),rhsMax =  -1.88087816163183E-03  1.49223780793445E-03
 cg2d_nsa: Sum(rhs),rhsMax =  -4.04408898489228E-03  1.56210440784035E-03
 cg2d_nsa: Sum(rhs),rhsMax =  -6.45462888696083E-03  1.63424213535138E-03
 cg2d_nsa: Sum(rhs),rhsMax =  -8.63394916765080E-03  1.70505819536200E-03
 cg2d_nsa: Sum(rhs),rhsMax =  -1.01577899792653E-02  1.77167128223618E-03
 cg2d_nsa: Sum(rhs),rhsMax =  -1.07385064648173E-02  1.83257530824614E-03
 cg2d_nsa: Sum(rhs),rhsMax =  -1.02790482888110E-02  1.88791212954430E-03
 cg2d_nsa: Sum(rhs),rhsMax =  -8.88852268257819E-03  1.93938684858995E-03
 cg2d_nsa: Sum(rhs),rhsMax =  -6.85700209162353E-03  2.06671962707967E-03
 cg2d_nsa: Sum(rhs),rhsMax =  -4.59527343678546E-03  2.17651147580125E-03
 cg2d_nsa: Sum(rhs),rhsMax =  -2.55199123012474E-03  2.23681621502018E-03
 cg2d_nsa: Sum(rhs),rhsMax =  -1.12489762749285E-03  2.25047701583323E-03
 cg2d_nsa: Sum(rhs),rhsMax =  -5.83637556429037E-04  2.23911228423933E-03
 cg2d_nsa: Sum(rhs),rhsMax =  -1.01911454389492E-03  2.31619527894641E-03
 cg2d_nsa: Sum(rhs),rhsMax =  -2.32886289016599E-03  2.39332629158717E-03
 cg2d_nsa: Sum(rhs),rhsMax =  -4.24067142085450E-03  2.46478013733894E-03
 cg2d_nsa: Sum(rhs),rhsMax =  -6.36913438063083E-03  2.52475934545843E-03
 cg2d_nsa: Sum(rhs),rhsMax =  -8.29342191377485E-03  2.56860715185460E-03
 cg2d_nsa: Sum(rhs),rhsMax =  -9.64059753970843E-03  2.59379162082183E-03
 cg2d_nsa: Sum(rhs),rhsMax =  -1.01580044315249E-02  2.60046743184210E-03
 cg2d_nsa: Sum(rhs),rhsMax =  -9.76069658075085E-03  2.59154642741110E-03
 cg2d_nsa: Sum(rhs),rhsMax =  -8.54505745962543E-03  2.57230691802322E-03
 cg2d_nsa: Sum(rhs),rhsMax =  -6.76655619976614E-03  2.57617674997189E-03
 cg2d_nsa: Sum(rhs),rhsMax =  -4.78666961008272E-03  2.60704653864958E-03
 cg2d_nsa: Sum(rhs),rhsMax =  -2.99995524913856E-03  2.55368001492697E-03
 cg2d_nsa: Sum(rhs),rhsMax =  -1.75595290800013E-03  2.53090270322976E-03
 cg2d_nsa: Sum(rhs),rhsMax =  -1.29134016832773E-03  2.55686900256609E-03
 cg2d_nsa: Sum(rhs),rhsMax =  -1.68547890024655E-03  2.59998588699322E-03
 cg2d_nsa: Sum(rhs),rhsMax =  -2.84766408841429E-03  2.65617343339289E-03
 cg2d_nsa: Sum(rhs),rhsMax =  -4.53801267146643E-03  2.71885910519448E-03
 cg2d_nsa: Sum(rhs),rhsMax =  -6.41728548714449E-03  2.78009795552647E-03
 cg2d_nsa: Sum(rhs),rhsMax =  -8.11533163715835E-03  2.83193128767019E-03
 cg2d_nsa: Sum(rhs),rhsMax =  -9.30436785900010E-03  2.86771965610122E-03
 cg2d_nsa: Sum(rhs),rhsMax =  -9.76260398202362E-03  2.88321605647719E-03
 cg2d_nsa: Sum(rhs),rhsMax =  -9.41588739146563E-03  2.87721819838216E-03
 cg2d_nsa: Sum(rhs),rhsMax =  -8.34958548299574E-03  2.85172241699416E-03
 cg2d_nsa: Sum(rhs),rhsMax =  -6.78891553378606E-03  2.90854925698854E-03
 cg2d_nsa: Sum(rhs),rhsMax =  -5.05216138934645E-03  2.93304370152587E-03
 cg2d_nsa: Sum(rhs),rhsMax =  -3.48645868260499E-03  2.88331756007551E-03
 cg2d_nsa: Sum(rhs),rhsMax =  -2.39907592086169E-03  2.77469255675536E-03
 cg2d_nsa: Sum(rhs),rhsMax =  -1.99776878006292E-03  2.64912187392309E-03
 cg2d_nsa: Sum(rhs),rhsMax =  -2.35175896792043E-03  2.63954768225105E-03
 cg2d_nsa: Sum(rhs),rhsMax =  -3.38063159534670E-03  2.64744434500590E-03
 cg2d_nsa: Sum(rhs),rhsMax =  -4.87283033410724E-03  2.67027737897894E-03
 cg2d_nsa: Sum(rhs),rhsMax =  -6.52958402409164E-03  2.75143061451539E-03
 cg2d_nsa: Sum(rhs),rhsMax =  -8.02517519568410E-03  2.84716527318058E-03
 cg2d_nsa: Sum(rhs),rhsMax =  -9.07141277876820E-03  2.92480128295189E-03
 cg2d_nsa: Sum(rhs),rhsMax =  -9.47356469152759E-03  2.97120288168064E-03
 cg2d_nsa: Sum(rhs),rhsMax =  -9.16691608679739E-03  2.97966804373975E-03
 cg2d_nsa: Sum(rhs),rhsMax =  -8.22712348899524E-03  3.00381233183585E-03
 cg2d_nsa: Sum(rhs),rhsMax =  -6.85280746379110E-03  3.08036407067674E-03
 cg2d_nsa: Sum(rhs),rhsMax =  -5.32430736677385E-03  3.09182666285794E-03
 cg2d_nsa: Sum(rhs),rhsMax =  -3.94713147199120E-03  3.03934305177458E-03
 cg2d_nsa: Sum(rhs),rhsMax =  -2.99148628648191E-03  2.93659601102584E-03
 cg2d_nsa: Sum(rhs),rhsMax =  -2.63983320535695E-03  2.80689800710997E-03
 cg2d_nsa: Sum(rhs),rhsMax =  -2.95262919057158E-03  2.68543416746455E-03
 cg2d_nsa: Sum(rhs),rhsMax =  -3.85865404188498E-03  2.73031558600342E-03
 cg2d_nsa: Sum(rhs),rhsMax =  -5.17138157619608E-03  2.80043602542356E-03
 cg2d_nsa: Sum(rhs),rhsMax =  -6.62770822122581E-03  2.88238464493086E-03
 cg2d_nsa: Sum(rhs),rhsMax =  -7.94102515416764E-03  2.96047704011627E-03
 cg2d_nsa: Sum(rhs),rhsMax =  -8.85794607025111E-03  3.01993446954844E-03
 cg2d_nsa: Sum(rhs),rhsMax =  -9.20747837808312E-03  3.04982330183409E-03
 cg2d_nsa: Sum(rhs),rhsMax =  -8.93311492859141E-03  3.04517981227972E-03
 cg2d_nsa: Sum(rhs),rhsMax =  -8.10185304693195E-03  3.11258924716508E-03
 cg2d_nsa: Sum(rhs),rhsMax =  -6.88878954790098E-03  3.17297127868872E-03
 cg2d_nsa: Sum(rhs),rhsMax =  -5.54076208095367E-03  3.17471651440719E-03
 cg2d_nsa: Sum(rhs),rhsMax =  -4.32655885691528E-03  3.11938170580179E-03
 cg2d_nsa: Sum(rhs),rhsMax =  -3.48371988299523E-03  3.01971783737803E-03
 cg2d_nsa: Sum(rhs),rhsMax =  -3.17244092138430E-03  2.89700822848679E-03
 cg2d_nsa: Sum(rhs),rhsMax =  -3.44550686413888E-03  2.77676417175124E-03
 cg2d_nsa: Sum(rhs),rhsMax =  -4.23987179906986E-03  2.78119167410942E-03
 cg2d_nsa: Sum(rhs),rhsMax =  -5.39114896582421E-03  2.84461357029279E-03
 cg2d_nsa: Sum(rhs),rhsMax =  -6.66774904906079E-03  2.91823912423177E-03
 cg2d_nsa: Sum(rhs),rhsMax =  -7.81760258238305E-03  2.98773885743759E-03
 cg2d_nsa: Sum(rhs),rhsMax =  -8.61805688761187E-03  3.03980211805413E-03
 cg2d_nsa: Sum(rhs),rhsMax =  -8.91908516871750E-03  3.06473926290246E-03
 cg2d_nsa: Sum(rhs),rhsMax =  -8.67143963814737E-03  3.06396591495550E-03
 cg2d_nsa: Sum(rhs),rhsMax =  -7.93449201611764E-03  3.16208621034035E-03
 cg2d_nsa: Sum(rhs),rhsMax =  -6.86259168610994E-03  3.21610120513641E-03
 cg2d_nsa: Sum(rhs),rhsMax =  -5.67301313768430E-03  3.21680811896969E-03
 cg2d_nsa: Sum(rhs),rhsMax =  -4.60212448149453E-03  3.16554817232245E-03
 cg2d_nsa: Sum(rhs),rhsMax =  -3.85860166499114E-03  3.07378659374327E-03
 cg2d_nsa: Sum(rhs),rhsMax =  -3.58293324697134E-03  2.96071715465072E-03
 cg2d_nsa: Sum(rhs),rhsMax =  -3.82105772939007E-03  2.84938992483797E-03
 cg2d_nsa: Sum(rhs),rhsMax =  -4.51705742061952E-03  2.80618861295767E-03
(PID.TID 0000.0001) Did not write pickup because writePickupAtEnd = FALSE
(PID.TID 0000.0001)   early fc =  0.000000000000000D+00
 --> objf_test(bi,bj)   =  0.473809582215758D-01
(PID.TID 0000.0001)   local fc =  0.473809582215758D-01
(PID.TID 0000.0001)  global fc =  0.473809582215758D-01
(PID.TID 0000.0001) grdchk perturb(-)fc: fcpertminus =  4.73809582215758E-02
grad-res -------------------------------
 grad-res     0    8    2    5    1    1    1    1   4.73809587569E-02  4.73809592923E-02  4.73809582216E-02
 grad-res     0    8    8   22    0    1    1    1   5.35338733610E-06  5.35338939844E-06 -3.85241557765E-07
(PID.TID 0000.0001)  ADM  ref_cost_function      =  4.73809587569147E-02
(PID.TID 0000.0001)  ADM  adjoint_gradient       =  5.35338733609638E-06
(PID.TID 0000.0001)  ADM  finite-diff_grad       =  5.35338939844365E-06
(PID.TID 0000.0001) ====== End of gradient-check number   8 (ierr=  0) =======
(PID.TID 0000.0001) ====== Starts gradient-check number   9 (=ichknum) =======
 ph-test icomp, ncvarcomp, ichknum           25          25           9
 ph-grd _loc: bi, bj, icomptest, ichknum            1           1          22           9
 ph-grd -->hit<--            5           5           1           1
(PID.TID 0000.0001) grdchk pos: i,j,k=    5    5    1 ; bi,bj=   1   1 ; iobc=  1 ; rec=   1
                     ctrl_depth_ini: ctrl update R_low,
                                     adding the control vector.
(PID.TID 0000.0001) Start initial hydrostatic pressure computation
(PID.TID 0000.0001) Pressure is predetermined for buoyancyRelation OCEANIC
(PID.TID 0000.0001) 
(PID.TID 0000.0001) // =======================================================
(PID.TID 0000.0001) // Model current state
(PID.TID 0000.0001) // =======================================================
(PID.TID 0000.0001) 
(PID.TID 0000.0001) SOLVE_FOR_PRESSURE: putPmEinXvector =    F
 cg2d_nsa: Sum(rhs),rhsMax =   0.00000000000000E+00  0.00000000000000E+00
 cg2d_nsa: Sum(rhs),rhsMax =  -1.50873054610922E-03  6.03492218443701E-05
 cg2d_nsa: Sum(rhs),rhsMax =  -3.96041768353671E-03  2.18766023587219E-04
 cg2d_nsa: Sum(rhs),rhsMax =  -6.70151564470302E-03  4.29236468112908E-04
 cg2d_nsa: Sum(rhs),rhsMax =  -9.17158903539142E-03  6.43184796163296E-04
 cg2d_nsa: Sum(rhs),rhsMax =  -1.08944466273165E-02  8.17951762939276E-04
 cg2d_nsa: Sum(rhs),rhsMax =  -1.15449833389644E-02  9.31105228534224E-04
 cg2d_nsa: Sum(rhs),rhsMax =  -1.10127562437667E-02  9.89364856778100E-04
 cg2d_nsa: Sum(rhs),rhsMax =  -9.42153118109718E-03  1.22456378124354E-03
 cg2d_nsa: Sum(rhs),rhsMax =  -7.10092879419025E-03  1.44777510262191E-03
 cg2d_nsa: Sum(rhs),rhsMax =  -4.51794202885939E-03  1.58982062887979E-03
 cg2d_nsa: Sum(rhs),rhsMax =  -2.18275828141333E-03  1.64357697400657E-03
 cg2d_nsa: Sum(rhs),rhsMax =  -5.47818875764636E-04  1.61756159357473E-03
 cg2d_nsa: Sum(rhs),rhsMax =   7.99729197154772E-05  1.53363856536949E-03
 cg2d_nsa: Sum(rhs),rhsMax =  -4.03103058007840E-04  1.42794065023138E-03
 cg2d_nsa: Sum(rhs),rhsMax =  -1.88087816568934E-03  1.49223781114064E-03
 cg2d_nsa: Sum(rhs),rhsMax =  -4.04408898966960E-03  1.56210441116568E-03
 cg2d_nsa: Sum(rhs),rhsMax =  -6.45462889229828E-03  1.63424213866507E-03
 cg2d_nsa: Sum(rhs),rhsMax =  -8.63394917335729E-03  1.70505819857946E-03
 cg2d_nsa: Sum(rhs),rhsMax =  -1.01577899851539E-02  1.77167128533778E-03
 cg2d_nsa: Sum(rhs),rhsMax =  -1.07385064707416E-02  1.83257531128485E-03
 cg2d_nsa: Sum(rhs),rhsMax =  -1.02790482946954E-02  1.88791213264025E-03
 cg2d_nsa: Sum(rhs),rhsMax =  -8.88852268843551E-03  1.93938685191333E-03
 cg2d_nsa: Sum(rhs),rhsMax =  -6.85700209755687E-03  2.06671962192499E-03
 cg2d_nsa: Sum(rhs),rhsMax =  -4.59527344297349E-03  2.17651146947638E-03
 cg2d_nsa: Sum(rhs),rhsMax =  -2.55199123679314E-03  2.23681620606472E-03
 cg2d_nsa: Sum(rhs),rhsMax =  -1.12489763487705E-03  2.25047700310785E-03
 cg2d_nsa: Sum(rhs),rhsMax =  -5.83637564735405E-04  2.23911229108031E-03
 cg2d_nsa: Sum(rhs),rhsMax =  -1.01911455326767E-03  2.31619528661075E-03
 cg2d_nsa: Sum(rhs),rhsMax =  -2.32886290066585E-03  2.39332629996452E-03
 cg2d_nsa: Sum(rhs),rhsMax =  -4.24067143245313E-03  2.46478014628124E-03
 cg2d_nsa: Sum(rhs),rhsMax =  -6.36913439322179E-03  2.52475935480748E-03
 cg2d_nsa: Sum(rhs),rhsMax =  -8.29342192719873E-03  2.56860716147041E-03
 cg2d_nsa: Sum(rhs),rhsMax =  -9.64059755378710E-03  2.59379163060665E-03
 cg2d_nsa: Sum(rhs),rhsMax =  -1.01580044460982E-02  2.60046744175608E-03
 cg2d_nsa: Sum(rhs),rhsMax =  -9.76069659570849E-03  2.59154643747738E-03
 cg2d_nsa: Sum(rhs),rhsMax =  -8.54505747492851E-03  2.57230692832190E-03
 cg2d_nsa: Sum(rhs),rhsMax =  -6.76655621545429E-03  2.57617675201398E-03
 cg2d_nsa: Sum(rhs),rhsMax =  -4.78666962626630E-03  2.60704654001214E-03
 cg2d_nsa: Sum(rhs),rhsMax =  -2.99995526597796E-03  2.55368001584765E-03
 cg2d_nsa: Sum(rhs),rhsMax =  -1.75595292567719E-03  2.53090271575189E-03
 cg2d_nsa: Sum(rhs),rhsMax =  -1.29134018701493E-03  2.55686901589988E-03
 cg2d_nsa: Sum(rhs),rhsMax =  -1.68547892008039E-03  2.59998590115853E-03
 cg2d_nsa: Sum(rhs),rhsMax =  -2.84766410947785E-03  2.65617344836223E-03
 cg2d_nsa: Sum(rhs),rhsMax =  -4.53801269378410E-03  2.71885912090308E-03
 cg2d_nsa: Sum(rhs),rhsMax =  -6.41728551068923E-03  2.78009797188813E-03
 cg2d_nsa: Sum(rhs),rhsMax =  -8.11533166186937E-03  2.83193130459575E-03
 cg2d_nsa: Sum(rhs),rhsMax =  -9.30436788480645E-03  2.86771967351581E-03
 cg2d_nsa: Sum(rhs),rhsMax =  -9.76260400886855E-03  2.88321607433350E-03
 cg2d_nsa: Sum(rhs),rhsMax =  -9.41588741932635E-03  2.87721821666721E-03
 cg2d_nsa: Sum(rhs),rhsMax =  -8.34958551189450E-03  2.85172243572906E-03
 cg2d_nsa: Sum(rhs),rhsMax =  -6.78891556379058E-03  2.90854925610556E-03
 cg2d_nsa: Sum(rhs),rhsMax =  -5.05216142056021E-03  2.93304369999016E-03
 cg2d_nsa: Sum(rhs),rhsMax =  -3.48645871514966E-03  2.88331755802846E-03
 cg2d_nsa: Sum(rhs),rhsMax =  -2.39907595485644E-03  2.77469255436536E-03
 cg2d_nsa: Sum(rhs),rhsMax =  -1.99776881560519E-03  2.64912189575711E-03
 cg2d_nsa: Sum(rhs),rhsMax =  -2.35175900507263E-03  2.63954770481925E-03
 cg2d_nsa: Sum(rhs),rhsMax =  -3.38063163413190E-03  2.64744436829604E-03
 cg2d_nsa: Sum(rhs),rhsMax =  -4.87283037451474E-03  2.67027740296040E-03
 cg2d_nsa: Sum(rhs),rhsMax =  -6.52958406609117E-03  2.75143064193226E-03
 cg2d_nsa: Sum(rhs),rhsMax =  -8.02517523924534E-03  2.84716530055605E-03
 cg2d_nsa: Sum(rhs),rhsMax =  -9.07141282388104E-03  2.92480131022874E-03
 cg2d_nsa: Sum(rhs),rhsMax =  -9.47356473821857E-03  2.97120290897233E-03
 cg2d_nsa: Sum(rhs),rhsMax =  -9.16691613513841E-03  2.97966807130957E-03
 cg2d_nsa: Sum(rhs),rhsMax =  -8.22712353910218E-03  3.00381232706155E-03
 cg2d_nsa: Sum(rhs),rhsMax =  -6.85280751581236E-03  3.08036406546409E-03
 cg2d_nsa: Sum(rhs),rhsMax =  -5.32430742087145E-03  3.09182665731781E-03
 cg2d_nsa: Sum(rhs),rhsMax =  -3.94713152831761E-03  3.03934304604349E-03
 cg2d_nsa: Sum(rhs),rhsMax =  -2.99148634515829E-03  2.93659600523738E-03
 cg2d_nsa: Sum(rhs),rhsMax =  -2.63983326645715E-03  2.80689800136687E-03
 cg2d_nsa: Sum(rhs),rhsMax =  -2.95262925411563E-03  2.68543420335657E-03
 cg2d_nsa: Sum(rhs),rhsMax =  -3.85865410784375E-03  2.73031562247577E-03
 cg2d_nsa: Sum(rhs),rhsMax =  -5.17138164450653E-03  2.80043606205929E-03
 cg2d_nsa: Sum(rhs),rhsMax =  -6.62770829181389E-03  2.88238468139984E-03
 cg2d_nsa: Sum(rhs),rhsMax =  -7.94102522697429E-03  2.96047707624599E-03
 cg2d_nsa: Sum(rhs),rhsMax =  -8.85794614525613E-03  3.01993450536376E-03
 cg2d_nsa: Sum(rhs),rhsMax =  -9.20747845532185E-03  3.04982333755714E-03
 cg2d_nsa: Sum(rhs),rhsMax =  -8.93311500816078E-03  3.04517984828927E-03
 cg2d_nsa: Sum(rhs),rhsMax =  -8.10185312898429E-03  3.11258923960451E-03
 cg2d_nsa: Sum(rhs),rhsMax =  -6.88878963262681E-03  3.17297127081789E-03
 cg2d_nsa: Sum(rhs),rhsMax =  -5.54076216855649E-03  3.17471650637660E-03
 cg2d_nsa: Sum(rhs),rhsMax =  -4.32655894758363E-03  3.11938169777887E-03
 cg2d_nsa: Sum(rhs),rhsMax =  -3.48371997687724E-03  3.01971782951637E-03
 cg2d_nsa: Sum(rhs),rhsMax =  -3.17244101856984E-03  2.89700822089775E-03
 cg2d_nsa: Sum(rhs),rhsMax =  -3.44550696465301E-03  2.77676416448374E-03
 cg2d_nsa: Sum(rhs),rhsMax =  -4.23987190287883E-03  2.78119172019188E-03
 cg2d_nsa: Sum(rhs),rhsMax =  -5.39114907285274E-03  2.84461361647058E-03
 cg2d_nsa: Sum(rhs),rhsMax =  -6.66774915921737E-03  2.91823917012298E-03
 cg2d_nsa: Sum(rhs),rhsMax =  -7.81760269558805E-03  2.98773890283530E-03
 cg2d_nsa: Sum(rhs),rhsMax =  -8.61805700382309E-03  3.03980216296565E-03
 cg2d_nsa: Sum(rhs),rhsMax =  -8.91908528794801E-03  3.06473930754655E-03
 cg2d_nsa: Sum(rhs),rhsMax =  -8.67143976047222E-03  3.06396590730096E-03
 cg2d_nsa: Sum(rhs),rhsMax =  -7.93449214166817E-03  3.16208620234832E-03
 cg2d_nsa: Sum(rhs),rhsMax =  -6.86259181505711E-03  3.21610119689832E-03
 cg2d_nsa: Sum(rhs),rhsMax =  -5.67301327021422E-03  3.21680811062520E-03
 cg2d_nsa: Sum(rhs),rhsMax =  -4.60212461778137E-03  3.16554816403365E-03
 cg2d_nsa: Sum(rhs),rhsMax =  -3.85860180517271E-03  3.07378658566514E-03
 cg2d_nsa: Sum(rhs),rhsMax =  -3.58293339113224E-03  2.96071714690346E-03
 cg2d_nsa: Sum(rhs),rhsMax =  -3.82105787755545E-03  2.84938991748665E-03
 cg2d_nsa: Sum(rhs),rhsMax =  -4.51705757276069E-03  2.80618866706380E-03
(PID.TID 0000.0001) Did not write pickup because writePickupAtEnd = FALSE
(PID.TID 0000.0001)   early fc =  0.000000000000000D+00
 --> objf_test(bi,bj)   =  0.473809576551186D-01
(PID.TID 0000.0001)   local fc =  0.473809576551186D-01
(PID.TID 0000.0001)  global fc =  0.473809576551186D-01
(PID.TID 0000.0001) grdchk perturb(+)fc: fcpertplus  =  4.73809576551186E-02
                     ctrl_depth_ini: ctrl update R_low,
                                     adding the control vector.
(PID.TID 0000.0001) Start initial hydrostatic pressure computation
(PID.TID 0000.0001) Pressure is predetermined for buoyancyRelation OCEANIC
(PID.TID 0000.0001) 
(PID.TID 0000.0001) // =======================================================
(PID.TID 0000.0001) // Model current state
(PID.TID 0000.0001) // =======================================================
(PID.TID 0000.0001) 
(PID.TID 0000.0001) SOLVE_FOR_PRESSURE: putPmEinXvector =    F
 cg2d_nsa: Sum(rhs),rhsMax =   0.00000000000000E+00  0.00000000000000E+00
 cg2d_nsa: Sum(rhs),rhsMax =  -1.50873054610922E-03  6.03492218443701E-05
 cg2d_nsa: Sum(rhs),rhsMax =  -3.96041768353671E-03  2.18766023587220E-04
 cg2d_nsa: Sum(rhs),rhsMax =  -6.70151564470212E-03  4.29236468096761E-04
 cg2d_nsa: Sum(rhs),rhsMax =  -9.17158903540410E-03  6.43184796126029E-04
 cg2d_nsa: Sum(rhs),rhsMax =  -1.08944466273607E-02  8.17951762894181E-04
 cg2d_nsa: Sum(rhs),rhsMax =  -1.15449833390475E-02  9.31105228501505E-04
 cg2d_nsa: Sum(rhs),rhsMax =  -1.10127562438728E-02  9.89364856700857E-04
 cg2d_nsa: Sum(rhs),rhsMax =  -9.42153118117660E-03  1.22456378132530E-03
 cg2d_nsa: Sum(rhs),rhsMax =  -7.10092879415478E-03  1.44777510278533E-03
 cg2d_nsa: Sum(rhs),rhsMax =  -4.51794202858617E-03  1.58982062917962E-03
 cg2d_nsa: Sum(rhs),rhsMax =  -2.18275828075682E-03  1.64357697451669E-03
 cg2d_nsa: Sum(rhs),rhsMax =  -5.47818874575135E-04  1.61756159438651E-03
 cg2d_nsa: Sum(rhs),rhsMax =   7.99729215702400E-05  1.53363856658699E-03
 cg2d_nsa: Sum(rhs),rhsMax =  -4.03103055392936E-04  1.42794064105358E-03
 cg2d_nsa: Sum(rhs),rhsMax =  -1.88087816227072E-03  1.49223780009058E-03
 cg2d_nsa: Sum(rhs),rhsMax =  -4.04408898545923E-03  1.56210439833013E-03
 cg2d_nsa: Sum(rhs),rhsMax =  -6.45462888735653E-03  1.63424212417724E-03
 cg2d_nsa: Sum(rhs),rhsMax =  -8.63394916777476E-03  1.70505818258375E-03
 cg2d_nsa: Sum(rhs),rhsMax =  -1.01577899790253E-02  1.77167126795267E-03
 cg2d_nsa: Sum(rhs),rhsMax =  -1.07385064641361E-02  1.83257529256949E-03
 cg2d_nsa: Sum(rhs),rhsMax =  -1.02790482876285E-02  1.88791211257010E-03
 cg2d_nsa: Sum(rhs),rhsMax =  -8.88852268084871E-03  1.93938683036834E-03
 cg2d_nsa: Sum(rhs),rhsMax =  -6.85700208930777E-03  2.06671962961710E-03
 cg2d_nsa: Sum(rhs),rhsMax =  -4.59527343383941E-03  2.17651147754903E-03
 cg2d_nsa: Sum(rhs),rhsMax =  -2.55199122648697E-03  2.23681621448771E-03
 cg2d_nsa: Sum(rhs),rhsMax =  -1.12489762307277E-03  2.25047701189948E-03
 cg2d_nsa: Sum(rhs),rhsMax =  -5.83637551098531E-04  2.23911225793104E-03
 cg2d_nsa: Sum(rhs),rhsMax =  -1.01911453748510E-03  2.31619525022861E-03
 cg2d_nsa: Sum(rhs),rhsMax =  -2.32886288246971E-03  2.39332626017697E-03
 cg2d_nsa: Sum(rhs),rhsMax =  -4.24067141163434E-03  2.46478010301383E-03
 cg2d_nsa: Sum(rhs),rhsMax =  -6.36913436963119E-03  2.52475930808284E-03
 cg2d_nsa: Sum(rhs),rhsMax =  -8.29342190073575E-03  2.56860711139408E-03
 cg2d_nsa: Sum(rhs),rhsMax =  -9.64059752437848E-03  2.59379157734225E-03
 cg2d_nsa: Sum(rhs),rhsMax =  -1.01580044136710E-02  2.60046738549367E-03
 cg2d_nsa: Sum(rhs),rhsMax =  -9.76069656016259E-03  2.59154637839949E-03
 cg2d_nsa: Sum(rhs),rhsMax =  -8.54505743611353E-03  2.57230686657255E-03
 cg2d_nsa: Sum(rhs),rhsMax =  -6.76655617315517E-03  2.57617680962810E-03
 cg2d_nsa: Sum(rhs),rhsMax =  -4.78666958019949E-03  2.60704660144698E-03
 cg2d_nsa: Sum(rhs),rhsMax =  -2.99995521579882E-03  2.55368008147924E-03
 cg2d_nsa: Sum(rhs),rhsMax =  -1.75595287099610E-03  2.53090264338456E-03
 cg2d_nsa: Sum(rhs),rhsMax =  -1.29134012741897E-03  2.55686894056294E-03
 cg2d_nsa: Sum(rhs),rhsMax =  -1.68547885515618E-03  2.59998582265632E-03
 cg2d_nsa: Sum(rhs),rhsMax =  -2.84766403883122E-03  2.65617336651287E-03
 cg2d_nsa: Sum(rhs),rhsMax =  -4.53801261705333E-03  2.71885903556564E-03
 cg2d_nsa: Sum(rhs),rhsMax =  -6.41728542754986E-03  2.78009788298305E-03
 cg2d_nsa: Sum(rhs),rhsMax =  -8.11533157203047E-03  2.83193121211547E-03
 cg2d_nsa: Sum(rhs),rhsMax =  -9.30436778800000E-03  2.86771957752439E-03
 cg2d_nsa: Sum(rhs),rhsMax =  -9.76260390483473E-03  2.88321597495536E-03
 cg2d_nsa: Sum(rhs),rhsMax =  -9.41588730779815E-03  2.87721811406717E-03
 cg2d_nsa: Sum(rhs),rhsMax =  -8.34958539258502E-03  2.85172233008720E-03
 cg2d_nsa: Sum(rhs),rhsMax =  -6.78891543638567E-03  2.90854934270203E-03
 cg2d_nsa: Sum(rhs),rhsMax =  -5.05216128471712E-03  2.93304378873203E-03
 cg2d_nsa: Sum(rhs),rhsMax =  -3.48645857050212E-03  2.88331764939626E-03
 cg2d_nsa: Sum(rhs),rhsMax =  -2.39907580102413E-03  2.77469264862233E-03
 cg2d_nsa: Sum(rhs),rhsMax =  -1.99776865220524E-03  2.64912177658862E-03
 cg2d_nsa: Sum(rhs),rhsMax =  -2.35175883173053E-03  2.63954758294656E-03
 cg2d_nsa: Sum(rhs),rhsMax =  -3.38063145048921E-03  2.64744424363904E-03
 cg2d_nsa: Sum(rhs),rhsMax =  -4.87283018023217E-03  2.67027727544179E-03
 cg2d_nsa: Sum(rhs),rhsMax =  -6.52958386084657E-03  2.75143058756707E-03
 cg2d_nsa: Sum(rhs),rhsMax =  -8.02517502272739E-03  2.84716524598431E-03
 cg2d_nsa: Sum(rhs),rhsMax =  -9.07141259578062E-03  2.92480125559998E-03
 cg2d_nsa: Sum(rhs),rhsMax =  -9.47356449821985E-03  2.97120285406568E-03
 cg2d_nsa: Sum(rhs),rhsMax =  -9.16691588291232E-03  2.97966801557577E-03
 cg2d_nsa: Sum(rhs),rhsMax =  -8.22712327430381E-03  3.00381243170798E-03
 cg2d_nsa: Sum(rhs),rhsMax =  -6.85280723808333E-03  3.08036417092018E-03
 cg2d_nsa: Sum(rhs),rhsMax =  -5.32430712984658E-03  3.09182676407944E-03
 cg2d_nsa: Sum(rhs),rhsMax =  -3.94713122363502E-03  3.03934315451628E-03
 cg2d_nsa: Sum(rhs),rhsMax =  -2.99148602647019E-03  2.93659611564528E-03
 cg2d_nsa: Sum(rhs),rhsMax =  -2.63983293343922E-03  2.80689811369783E-03
 cg2d_nsa: Sum(rhs),rhsMax =  -2.95262890647281E-03  2.68543412802339E-03
 cg2d_nsa: Sum(rhs),rhsMax =  -3.85865374531096E-03  2.73031554560643E-03
 cg2d_nsa: Sum(rhs),rhsMax =  -5.17138126684389E-03  2.80043598454819E-03
 cg2d_nsa: Sum(rhs),rhsMax =  -6.62770789879750E-03  2.88238460396013E-03
 cg2d_nsa: Sum(rhs),rhsMax =  -7.94102481838414E-03  2.96047699925595E-03
 cg2d_nsa: Sum(rhs),rhsMax =  -8.85794572086386E-03  3.01993442877911E-03
 cg2d_nsa: Sum(rhs),rhsMax =  -9.20747801488077E-03  3.04982326090886E-03
 cg2d_nsa: Sum(rhs),rhsMax =  -8.93311455140042E-03  3.04517977076863E-03
 cg2d_nsa: Sum(rhs),rhsMax =  -8.10185265561058E-03  3.11258935307460E-03
 cg2d_nsa: Sum(rhs),rhsMax =  -6.88878914232811E-03  3.17297138477828E-03
 cg2d_nsa: Sum(rhs),rhsMax =  -5.54076166101446E-03  3.17471662139856E-03
 cg2d_nsa: Sum(rhs),rhsMax =  -4.32655842248649E-03  3.11938181432398E-03
 cg2d_nsa: Sum(rhs),rhsMax =  -3.48371943393328E-03  3.01971794783686E-03
 cg2d_nsa: Sum(rhs),rhsMax =  -3.17244045751817E-03  2.89700834097624E-03
 cg2d_nsa: Sum(rhs),rhsMax =  -3.44550638526968E-03  2.77676428602465E-03
 cg2d_nsa: Sum(rhs),rhsMax =  -4.23987130497691E-03  2.78119161883116E-03
 cg2d_nsa: Sum(rhs),rhsMax =  -5.39114845627660E-03  2.84461351464179E-03
 cg2d_nsa: Sum(rhs),rhsMax =  -6.66774852383209E-03  2.91823906866403E-03
 cg2d_nsa: Sum(rhs),rhsMax =  -7.81760204126634E-03  2.98773880220770E-03
 cg2d_nsa: Sum(rhs),rhsMax =  -8.61805633043203E-03  3.03980206316569E-03
 cg2d_nsa: Sum(rhs),rhsMax =  -8.91908459533832E-03  3.06473920810768E-03
 cg2d_nsa: Sum(rhs),rhsMax =  -8.67143904847213E-03  3.06396602457922E-03
 cg2d_nsa: Sum(rhs),rhsMax =  -7.93449141008280E-03  3.16208631888630E-03
 cg2d_nsa: Sum(rhs),rhsMax =  -6.86259106367343E-03  3.21610131334543E-03
 cg2d_nsa: Sum(rhs),rhsMax =  -5.67301249881037E-03  3.21680822767278E-03
 cg2d_nsa: Sum(rhs),rhsMax =  -4.60212382613846E-03  3.16554828228081E-03
 cg2d_nsa: Sum(rhs),rhsMax =  -3.85860099308648E-03  3.07378670550121E-03
 cg2d_nsa: Sum(rhs),rhsMax =  -3.58293255842238E-03  2.96071726842968E-03
 cg2d_nsa: Sum(rhs),rhsMax =  -3.82105702407088E-03  2.84939004049233E-03
 cg2d_nsa: Sum(rhs),rhsMax =  -4.51705669837970E-03  2.80618854434040E-03
(PID.TID 0000.0001) Did not write pickup because writePickupAtEnd = FALSE
(PID.TID 0000.0001)   early fc =  0.000000000000000D+00
 --> objf_test(bi,bj)   =  0.473809598587108D-01
(PID.TID 0000.0001)   local fc =  0.473809598587108D-01
(PID.TID 0000.0001)  global fc =  0.473809598587108D-01
(PID.TID 0000.0001) grdchk perturb(-)fc: fcpertminus =  4.73809598587108E-02
grad-res -------------------------------
 grad-res     0    9    5    5    1    1    1    1   4.73809587569E-02  4.73809576551E-02  4.73809598587E-02
 grad-res     0    9    9   25    0    1    1    1  -1.10179587518E-05 -1.10179607105E-05 -1.77766414478E-07
(PID.TID 0000.0001)  ADM  ref_cost_function      =  4.73809587569147E-02
(PID.TID 0000.0001)  ADM  adjoint_gradient       = -1.10179587518347E-05
(PID.TID 0000.0001)  ADM  finite-diff_grad       = -1.10179607104577E-05
(PID.TID 0000.0001) ====== End of gradient-check number   9 (ierr=  0) =======
(PID.TID 0000.0001) 
(PID.TID 0000.0001) // =======================================================
(PID.TID 0000.0001) // Gradient check results  >>> START <<<
(PID.TID 0000.0001) // =======================================================
(PID.TID 0000.0001) 
(PID.TID 0000.0001)  EPS =   1.000000E-04
(PID.TID 0000.0001) 
(PID.TID 0000.0001) grdchk output h.p:  Id Itile Jtile LAYER   bi   bj   X(Id)           X(Id)+/-EPS
(PID.TID 0000.0001) grdchk output h.c:  Id  FC                   FC1                  FC2
(PID.TID 0000.0001) grdchk output h.g:  Id     FC1-FC2/(2*EPS)      ADJ GRAD(FC)         1-FDGRD/ADGRD
(PID.TID 0000.0001) 
(PID.TID 0000.0001) grdchk output (p):   1     1     1     1    1    1   0.000000000E+00 -1.000000000E-04
(PID.TID 0000.0001) grdchk output (c):   1  4.7380958756915E-02  4.7380959323097E-02  4.7380958190732E-02
(PID.TID 0000.0001) grdchk output (g):   1     5.6618227814442E-06  5.6618226855827E-06 -1.6931209767534E-08
(PID.TID 0000.0001) 
(PID.TID 0000.0001) grdchk output (p):   2     4     1     1    1    1   0.000000000E+00 -1.000000000E-04
(PID.TID 0000.0001) grdchk output (c):   2  4.7380958756915E-02  4.7380958754117E-02  4.7380958759712E-02
(PID.TID 0000.0001) grdchk output (g):   2    -2.7973283411864E-08 -2.7972833499368E-08 -1.6083908541464E-05
(PID.TID 0000.0001) 
(PID.TID 0000.0001) grdchk output (p):   3     2     2     1    1    1   0.000000000E+00 -1.000000000E-04
(PID.TID 0000.0001) grdchk output (c):   3  4.7380958756915E-02  4.7380958867360E-02  4.7380958646469E-02
(PID.TID 0000.0001) grdchk output (g):   3     1.1044562486795E-06  1.1044572924060E-06  9.4501296754590E-07
(PID.TID 0000.0001) 
(PID.TID 0000.0001) grdchk output (p):   4     5     2     1    1    1   0.000000000E+00 -1.000000000E-04
(PID.TID 0000.0001) grdchk output (c):   4  4.7380958756915E-02  4.7380958774784E-02  4.7380958739045E-02
(PID.TID 0000.0001) grdchk output (g):   4     1.7869383056590E-07  1.7869230372270E-07 -8.5445381035054E-06
(PID.TID 0000.0001) 
(PID.TID 0000.0001) grdchk output (p):   5     3     3     1    1    1   0.000000000E+00 -1.000000000E-04
(PID.TID 0000.0001) grdchk output (c):   5  4.7380958756915E-02  4.7380959166064E-02  4.7380958347765E-02
(PID.TID 0000.0001) grdchk output (g):   5     4.0914968982286E-06  4.0914977931804E-06  2.1873450162246E-07
(PID.TID 0000.0001) 
(PID.TID 0000.0001) grdchk output (p):   6     1     4     1    1    1   0.000000000E+00 -1.000000000E-04
(PID.TID 0000.0001) grdchk output (c):   6  4.7380958756915E-02  4.7380958926771E-02  4.7380958587058E-02
(PID.TID 0000.0001) grdchk output (g):   6     1.6985652467882E-06  1.6985645496308E-06 -4.1043918996841E-07
(PID.TID 0000.0001) 
(PID.TID 0000.0001) grdchk output (p):   7     4     4     1    1    1   0.000000000E+00 -1.000000000E-04
(PID.TID 0000.0001) grdchk output (c):   7  4.7380958756915E-02  4.7380958548440E-02  4.7380958965390E-02
(PID.TID 0000.0001) grdchk output (g):   7    -2.0847508441779E-06 -2.0847496491546E-06 -5.7322148383498E-07
(PID.TID 0000.0001) 
(PID.TID 0000.0001) grdchk output (p):   8     2     5     1    1    1   0.000000000E+00 -1.000000000E-04
(PID.TID 0000.0001) grdchk output (c):   8  4.7380958756915E-02  4.7380959292254E-02  4.7380958221576E-02
(PID.TID 0000.0001) grdchk output (g):   8     5.3533893984437E-06  5.3533873360964E-06 -3.8524155776543E-07
(PID.TID 0000.0001) 
(PID.TID 0000.0001) grdchk output (p):   9     5     5     1    1    1   0.000000000E+00 -1.000000000E-04
(PID.TID 0000.0001) grdchk output (c):   9  4.7380958756915E-02  4.7380957655119E-02  4.7380959858711E-02
(PID.TID 0000.0001) grdchk output (g):   9    -1.1017960710458E-05 -1.1017958751835E-05 -1.7776641447753E-07
(PID.TID 0000.0001) 
(PID.TID 0000.0001) grdchk  summary  :  RMS of    9 ratios =  6.0856797436777E-06
(PID.TID 0000.0001) 
(PID.TID 0000.0001) // =======================================================
(PID.TID 0000.0001) // Gradient check results  >>> END <<<
(PID.TID 0000.0001) // =======================================================
(PID.TID 0000.0001) 
(PID.TID 0000.0001)   Seconds in section "ALL                    [THE_MODEL_MAIN]":
(PID.TID 0000.0001)           User time:   4.0585887772031128
(PID.TID 0000.0001)         System time:  0.32397300004959106
(PID.TID 0000.0001)     Wall clock time:   4.4770350456237793
(PID.TID 0000.0001)          No. starts:           1
(PID.TID 0000.0001)           No. stops:           1
(PID.TID 0000.0001)   Seconds in section "INITIALISE_FIXED       [THE_MODEL_MAIN]":
(PID.TID 0000.0001)           User time:   2.4221999803557992E-002
(PID.TID 0000.0001)         System time:   0.0000000000000000
(PID.TID 0000.0001)     Wall clock time:  0.11255812644958496
(PID.TID 0000.0001)          No. starts:           1
(PID.TID 0000.0001)           No. stops:           1
(PID.TID 0000.0001)   Seconds in section "ADTHE_MAIN_LOOP          [ADJOINT RUN]":
(PID.TID 0000.0001)           User time:   1.2736099883913994
(PID.TID 0000.0001)         System time:  0.22003400325775146
(PID.TID 0000.0001)     Wall clock time:   1.4949159622192383
(PID.TID 0000.0001)          No. starts:           1
(PID.TID 0000.0001)           No. stops:           1
(PID.TID 0000.0001)   Seconds in section "FORWARD_STEP        [MAIN_DO_LOOP]":
(PID.TID 0000.0001)           User time:   3.0602178350090981
(PID.TID 0000.0001)         System time:  0.12373813055455685
(PID.TID 0000.0001)     Wall clock time:   3.1888115406036377
(PID.TID 0000.0001)          No. starts:        2000
(PID.TID 0000.0001)           No. stops:        2000
(PID.TID 0000.0001)   Seconds in section "UPDATE_SURF_DR      [FORWARD_STEP]":
(PID.TID 0000.0001)           User time:   7.3047213256359100E-002
(PID.TID 0000.0001)         System time:   1.9289162009954453E-003
(PID.TID 0000.0001)     Wall clock time:   7.5085639953613281E-002
(PID.TID 0000.0001)          No. starts:        4000
(PID.TID 0000.0001)           No. stops:        4000
(PID.TID 0000.0001)   Seconds in section "LOAD_FIELDS_DRIVER  [FORWARD_STEP]":
(PID.TID 0000.0001)           User time:   4.1944675147533417E-002
(PID.TID 0000.0001)         System time:   1.2140553444623947E-003
(PID.TID 0000.0001)     Wall clock time:   4.3196201324462891E-002
(PID.TID 0000.0001)          No. starts:        2000
(PID.TID 0000.0001)           No. stops:        2000
(PID.TID 0000.0001)   Seconds in section "EXTERNAL_FLDS_LOAD [LOAD_FLDS_DRIVER]":
(PID.TID 0000.0001)           User time:   1.4983575791120529E-002
(PID.TID 0000.0001)         System time:   5.2097905427217484E-004
(PID.TID 0000.0001)     Wall clock time:   1.5368938446044922E-002
(PID.TID 0000.0001)          No. starts:        2100
(PID.TID 0000.0001)           No. stops:        2100
(PID.TID 0000.0001)   Seconds in section "CTRL_MAP_FORCING  [FORWARD_STEP]":
(PID.TID 0000.0001)           User time:   1.3945963233709335E-002
(PID.TID 0000.0001)         System time:   4.1600968688726425E-004
(PID.TID 0000.0001)     Wall clock time:   1.4355182647705078E-002
(PID.TID 0000.0001)          No. starts:        2000
(PID.TID 0000.0001)           No. stops:        2000
(PID.TID 0000.0001)   Seconds in section "DO_ATMOSPHERIC_PHYS [FORWARD_STEP]":
(PID.TID 0000.0001)           User time:   1.9279345870018005E-002
(PID.TID 0000.0001)         System time:   5.3880177438259125E-004
(PID.TID 0000.0001)     Wall clock time:   1.9876480102539062E-002
(PID.TID 0000.0001)          No. starts:        2000
(PID.TID 0000.0001)           No. stops:        2000
(PID.TID 0000.0001)   Seconds in section "DO_OCEANIC_PHYS     [FORWARD_STEP]":
(PID.TID 0000.0001)           User time:   7.4776887893676758E-002
(PID.TID 0000.0001)         System time:   6.3510360196232796E-003
(PID.TID 0000.0001)     Wall clock time:   8.1377983093261719E-002
(PID.TID 0000.0001)          No. starts:        2000
(PID.TID 0000.0001)           No. stops:        2000
(PID.TID 0000.0001)   Seconds in section "THERMODYNAMICS      [FORWARD_STEP]":
(PID.TID 0000.0001)           User time:  0.71159258484840393
(PID.TID 0000.0001)         System time:   3.6147955805063248E-002
(PID.TID 0000.0001)     Wall clock time:  0.74937868118286133
(PID.TID 0000.0001)          No. starts:        2000
(PID.TID 0000.0001)           No. stops:        2000
(PID.TID 0000.0001)   Seconds in section "DYNAMICS            [FORWARD_STEP]":
(PID.TID 0000.0001)           User time:   1.1223499178886414
(PID.TID 0000.0001)         System time:   3.9748030714690685E-002
(PID.TID 0000.0001)     Wall clock time:   1.1655044555664062
(PID.TID 0000.0001)          No. starts:        2000
(PID.TID 0000.0001)           No. stops:        2000
(PID.TID 0000.0001)   Seconds in section "SOLVE_FOR_PRESSURE  [FORWARD_STEP]":
(PID.TID 0000.0001)           User time:  0.41086920723319054
(PID.TID 0000.0001)         System time:   1.0109959170222282E-002
(PID.TID 0000.0001)     Wall clock time:  0.42424750328063965
(PID.TID 0000.0001)          No. starts:        2000
(PID.TID 0000.0001)           No. stops:        2000
(PID.TID 0000.0001)   Seconds in section "MOM_CORRECTION_STEP [FORWARD_STEP]":
(PID.TID 0000.0001)           User time:   6.6359765827655792E-002
(PID.TID 0000.0001)         System time:   5.2320184186100960E-003
(PID.TID 0000.0001)     Wall clock time:   7.1773529052734375E-002
(PID.TID 0000.0001)          No. starts:        2000
(PID.TID 0000.0001)           No. stops:        2000
(PID.TID 0000.0001)   Seconds in section "INTEGR_CONTINUITY   [FORWARD_STEP]":
(PID.TID 0000.0001)           User time:   5.4230947047472000E-002
(PID.TID 0000.0001)         System time:   1.2470362707972527E-003
(PID.TID 0000.0001)     Wall clock time:   5.5697441101074219E-002
(PID.TID 0000.0001)          No. starts:        2000
(PID.TID 0000.0001)           No. stops:        2000
(PID.TID 0000.0001)   Seconds in section "TRC_CORRECTION_STEP [FORWARD_STEP]":
(PID.TID 0000.0001)           User time:   1.4368090778589249E-002
(PID.TID 0000.0001)         System time:   3.2502971589565277E-004
(PID.TID 0000.0001)     Wall clock time:   1.4770269393920898E-002
(PID.TID 0000.0001)          No. starts:        2000
(PID.TID 0000.0001)           No. stops:        2000
(PID.TID 0000.0001)   Seconds in section "BLOCKING_EXCHANGES  [FORWARD_STEP]":
(PID.TID 0000.0001)           User time:  0.10980468243360519
(PID.TID 0000.0001)         System time:   7.5349854305386543E-003
(PID.TID 0000.0001)     Wall clock time:  0.11745858192443848
(PID.TID 0000.0001)          No. starts:        2000
(PID.TID 0000.0001)           No. stops:        2000
(PID.TID 0000.0001)   Seconds in section "MONITOR             [FORWARD_STEP]":
(PID.TID 0000.0001)           User time:   5.2849948406219482E-003
(PID.TID 0000.0001)         System time:   1.2000091373920441E-005
(PID.TID 0000.0001)     Wall clock time:   5.3167343139648438E-003
(PID.TID 0000.0001)          No. starts:         100
(PID.TID 0000.0001)           No. stops:         100
(PID.TID 0000.0001)   Seconds in section "COST_TILE           [FORWARD_STEP]":
(PID.TID 0000.0001)           User time:   6.0537267476320267E-002
(PID.TID 0000.0001)         System time:   1.4508748427033424E-003
(PID.TID 0000.0001)     Wall clock time:   6.2090158462524414E-002
(PID.TID 0000.0001)          No. starts:        2000
(PID.TID 0000.0001)           No. stops:        2000
(PID.TID 0000.0001)   Seconds in section "DO_THE_MODEL_IO     [FORWARD_STEP]":
(PID.TID 0000.0001)           User time:   1.5900246798992157E-002
(PID.TID 0000.0001)         System time:   3.6405865103006363E-004
(PID.TID 0000.0001)     Wall clock time:   1.6323566436767578E-002
(PID.TID 0000.0001)          No. starts:        2000
(PID.TID 0000.0001)           No. stops:        2000
(PID.TID 0000.0001)   Seconds in section "DO_WRITE_PICKUP     [FORWARD_STEP]":
(PID.TID 0000.0001)           User time:   1.5203595161437988E-002
(PID.TID 0000.0001)         System time:   3.7203542888164520E-004
(PID.TID 0000.0001)     Wall clock time:   1.5556573867797852E-002
(PID.TID 0000.0001)          No. starts:        2000
(PID.TID 0000.0001)           No. stops:        2000
(PID.TID 0000.0001)   Seconds in section "I/O (WRITE)        [ADJOINT LOOP]":
(PID.TID 0000.0001)           User time:  0.16377612948417664
(PID.TID 0000.0001)         System time:   9.3468081206083298E-002
(PID.TID 0000.0001)     Wall clock time:  0.25743818283081055
(PID.TID 0000.0001)          No. starts:         201
(PID.TID 0000.0001)           No. stops:         201
(PID.TID 0000.0001)   Seconds in section "CTRL_PACK           [THE_MODEL_MAIN]":
(PID.TID 0000.0001)           User time:   6.6304206848144531E-004
(PID.TID 0000.0001)         System time:   0.0000000000000000
(PID.TID 0000.0001)     Wall clock time:   6.6518783569335938E-004
(PID.TID 0000.0001)          No. starts:           1
(PID.TID 0000.0001)           No. stops:           1
(PID.TID 0000.0001)   Seconds in section "CTRL_PACK     [THE_MODEL_MAIN]":
(PID.TID 0000.0001)           User time:   3.6096572875976562E-004
(PID.TID 0000.0001)         System time:   0.0000000000000000
(PID.TID 0000.0001)     Wall clock time:   3.6096572875976562E-004
(PID.TID 0000.0001)          No. starts:           1
(PID.TID 0000.0001)           No. stops:           1
(PID.TID 0000.0001)   Seconds in section "GRDCHK_MAIN         [THE_MODEL_MAIN]":
(PID.TID 0000.0001)           User time:   2.7596137523651123
(PID.TID 0000.0001)         System time:  0.10393899679183960
(PID.TID 0000.0001)     Wall clock time:   2.8684470653533936
(PID.TID 0000.0001)          No. starts:           1
(PID.TID 0000.0001)           No. stops:           1
(PID.TID 0000.0001)   Seconds in section "INITIALISE_VARIA    [THE_MAIN_LOOP]":
(PID.TID 0000.0001)           User time:   1.3819932937622070E-002
(PID.TID 0000.0001)         System time:   8.2500278949737549E-004
(PID.TID 0000.0001)     Wall clock time:   1.4664649963378906E-002
(PID.TID 0000.0001)          No. starts:          18
(PID.TID 0000.0001)           No. stops:          18
(PID.TID 0000.0001)   Seconds in section "MAIN LOOP           [THE_MAIN_LOOP]":
(PID.TID 0000.0001)           User time:   2.7395421266555786
(PID.TID 0000.0001)         System time:  0.10262998938560486
(PID.TID 0000.0001)     Wall clock time:   2.8470666408538818
(PID.TID 0000.0001)          No. starts:          18
(PID.TID 0000.0001)           No. stops:          18
(PID.TID 0000.0001)   Seconds in section "MAIN_DO_LOOP        [THE_MAIN_LOOP]":
(PID.TID 0000.0001)           User time:   2.7064201831817627
(PID.TID 0000.0001)         System time:  0.10138688981533051
(PID.TID 0000.0001)     Wall clock time:   2.8126897811889648
(PID.TID 0000.0001)          No. starts:        1800
(PID.TID 0000.0001)           No. stops:        1800
(PID.TID 0000.0001)   Seconds in section "COST_FINAL         [ADJOINT SPIN-DOWN]":
(PID.TID 0000.0001)           User time:   5.5289268493652344E-004
(PID.TID 0000.0001)         System time:   4.6998262405395508E-005
(PID.TID 0000.0001)     Wall clock time:   6.0033798217773438E-004
(PID.TID 0000.0001)          No. starts:          18
(PID.TID 0000.0001)           No. stops:          18
(PID.TID 0000.0001) // ======================================================
(PID.TID 0000.0001) // Tile <-> Tile communication statistics
(PID.TID 0000.0001) // ======================================================
(PID.TID 0000.0001) // o Tile number: 000001
(PID.TID 0000.0001) //         No. X exchanges =              0
(PID.TID 0000.0001) //            Max. X spins =              0
(PID.TID 0000.0001) //            Min. X spins =     1000000000
(PID.TID 0000.0001) //          Total. X spins =              0
(PID.TID 0000.0001) //            Avg. X spins =       0.00E+00
(PID.TID 0000.0001) //         No. Y exchanges =              0
(PID.TID 0000.0001) //            Max. Y spins =              0
(PID.TID 0000.0001) //            Min. Y spins =     1000000000
(PID.TID 0000.0001) //          Total. Y spins =              0
(PID.TID 0000.0001) //            Avg. Y spins =       0.00E+00
(PID.TID 0000.0001) // o Thread number: 000001
(PID.TID 0000.0001) //            No. barriers =         189288
(PID.TID 0000.0001) //      Max. barrier spins =              1
(PID.TID 0000.0001) //      Min. barrier spins =              1
(PID.TID 0000.0001) //     Total barrier spins =         189288
(PID.TID 0000.0001) //      Avg. barrier spins =       1.00E+00
PROGRAM MAIN: Execution ended Normally
