(PID.TID 0000.0001) 
(PID.TID 0000.0001) // ======================================================
(PID.TID 0000.0001) //                      MITgcm UV
(PID.TID 0000.0001) //                      =========
(PID.TID 0000.0001) // ======================================================
(PID.TID 0000.0001) // execution environment starting up...
(PID.TID 0000.0001) 
(PID.TID 0000.0001) // MITgcmUV version:  checkpoint61g
(PID.TID 0000.0001) // Build user:        jmc
(PID.TID 0000.0001) // Build host:        faulks
(PID.TID 0000.0001) // Build date:        Mon Dec 29 21:21:34 EST 2008
(PID.TID 0000.0001) 
(PID.TID 0000.0001) // =======================================================
(PID.TID 0000.0001) // Execution Environment parameter file "eedata"
(PID.TID 0000.0001) // =======================================================
(PID.TID 0000.0001) ># Example "eedata" file
(PID.TID 0000.0001) ># Lines beginning "#" are comments
(PID.TID 0000.0001) ># nTx - No. threads per process in X
(PID.TID 0000.0001) ># nTy - No. threads per process in Y
(PID.TID 0000.0001) > &EEPARMS
(PID.TID 0000.0001) > &
(PID.TID 0000.0001) ># Note: Some systems use & as the
(PID.TID 0000.0001) ># namelist terminator. Other systems
(PID.TID 0000.0001) ># use a / character (as shown here).
(PID.TID 0000.0001) 
(PID.TID 0000.0001) // =======================================================
(PID.TID 0000.0001) // Computational Grid Specification ( see files "SIZE.h" )
(PID.TID 0000.0001) //                                  ( and "eedata"       )
(PID.TID 0000.0001) // =======================================================
(PID.TID 0000.0001)      nPx =    1 ; /* No. processes in X */
(PID.TID 0000.0001)      nPy =    1 ; /* No. processes in Y */
(PID.TID 0000.0001)      nSx =    1 ; /* No. tiles in X per process */
(PID.TID 0000.0001)      nSy =    1 ; /* No. tiles in Y per process */
(PID.TID 0000.0001)      sNx =    5 ; /* Tile size in X */
(PID.TID 0000.0001)      sNy =    5 ; /* Tile size in Y */
(PID.TID 0000.0001)      OLx =    2 ; /* Tile overlap distance in X */
(PID.TID 0000.0001)      OLy =    2 ; /* Tile overlap distance in Y */
(PID.TID 0000.0001)      nTx =    1 ; /* No. threads in X per process */
(PID.TID 0000.0001)      nTy =    1 ; /* No. threads in Y per process */
(PID.TID 0000.0001)       Nr =    4 ; /* No. levels in the vertical   */
(PID.TID 0000.0001)       nX =    5 ; /* Total domain size in X ( = nPx*nSx*sNx ) */
(PID.TID 0000.0001)       nY =    5 ; /* Total domain size in Y ( = nPy*nSy*sNy ) */
(PID.TID 0000.0001)   nTiles =    1 ; /* Total no. tiles per process ( = nSx*nSy ) */
(PID.TID 0000.0001)   nProcs =    1 ; /* Total no. processes ( = nPx*nPy ) */
(PID.TID 0000.0001) nThreads =    1 ; /* Total no. threads per process ( = nTx*nTy ) */
(PID.TID 0000.0001) usingMPI =    F ; /* Flag used to control whether MPI is in use */
(PID.TID 0000.0001)                   /*  note: To execute a program with MPI calls */
(PID.TID 0000.0001)                   /*  it must be launched appropriately e.g     */
(PID.TID 0000.0001)                   /*  "mpirun -np 64 ......"                    */
(PID.TID 0000.0001) useCoupler=   F ; /* Flag used to control communications with */
(PID.TID 0000.0001)                   /*  other model components, through a coupler */
(PID.TID 0000.0001) 
(PID.TID 0000.0001) // ======================================================
(PID.TID 0000.0001) // Mapping of tiles to threads
(PID.TID 0000.0001) // ======================================================
(PID.TID 0000.0001) // -o- Thread   1, tiles (   1:   1,   1:   1)
(PID.TID 0000.0001) 
(PID.TID 0000.0001) // ======================================================
(PID.TID 0000.0001) // Tile <-> Tile connectvity table
(PID.TID 0000.0001) // ======================================================
(PID.TID 0000.0001) // Tile number: 000001 (process no. = 000001)
(PID.TID 0000.0001) //        WEST: Tile = 000001, Process = 000001, Comm = put
(PID.TID 0000.0001) //                bi = 000001, bj = 000001
(PID.TID 0000.0001) //        EAST: Tile = 000001, Process = 000001, Comm = put
(PID.TID 0000.0001) //                bi = 000001, bj = 000001
(PID.TID 0000.0001) //       SOUTH: Tile = 000001, Process = 000001, Comm = put
(PID.TID 0000.0001) //                bi = 000001, bj = 000001
(PID.TID 0000.0001) //       NORTH: Tile = 000001, Process = 000001, Comm = put
(PID.TID 0000.0001) //                bi = 000001, bj = 000001
(PID.TID 0000.0001) 
(PID.TID 0000.0001) // =======================================================
(PID.TID 0000.0001) // Model parameter file "data"
(PID.TID 0000.0001) // =======================================================
(PID.TID 0000.0001) ># Model parameters
(PID.TID 0000.0001) ># Continuous equation parameters
(PID.TID 0000.0001) > &PARM01
(PID.TID 0000.0001) > tRef=4.,4.,4.,4.,
(PID.TID 0000.0001) > sRef=35.,35.,35.,35.,
(PID.TID 0000.0001) > viscAz=1.E-1,
(PID.TID 0000.0001) > viscAh=1.E5,
(PID.TID 0000.0001) ># viscA4=1.E16,
(PID.TID 0000.0001) ># useJamartWetPoints=.TRUE.,
(PID.TID 0000.0001) > no_slip_sides=.FALSE.,
(PID.TID 0000.0001) > no_slip_bottom=.TRUE.,
(PID.TID 0000.0001) > diffKhT=4.E2,
(PID.TID 0000.0001) > diffKzT=1.E-4,
(PID.TID 0000.0001) > diffKhS=0.0,
(PID.TID 0000.0001) > diffKzS=3.E-5,
(PID.TID 0000.0001) > f0=-1.1914E-04,
(PID.TID 0000.0001) > beta=1.3094E-11,
(PID.TID 0000.0001) > tAlpha=2.E-4,
(PID.TID 0000.0001) ># sBeta =7.4E-4,
(PID.TID 0000.0001) > sBeta = 0.,
(PID.TID 0000.0001) > gravity=9.81,
(PID.TID 0000.0001) > gBaro=9.81,
(PID.TID 0000.0001) > rigidLid=.FALSE.,
(PID.TID 0000.0001) > implicitFreeSurface=.TRUE.,
(PID.TID 0000.0001) > eosType='LINEAR',
(PID.TID 0000.0001) > writeStatePrec=64,
(PID.TID 0000.0001) > writeBinaryPrec=64,
(PID.TID 0000.0001) > readBinaryPrec=64,
(PID.TID 0000.0001) > hFacMin=.05,
(PID.TID 0000.0001) > smoothAbsFuncRange = -1.e-2,
(PID.TID 0000.0001) >#momAdvection = .false.,
(PID.TID 0000.0001) >#momViscosity = .false.,
(PID.TID 0000.0001) >#momPressureForcing = .false.,
(PID.TID 0000.0001) > &
(PID.TID 0000.0001) >
(PID.TID 0000.0001) >
(PID.TID 0000.0001) ># Elliptic solver parameters
(PID.TID 0000.0001) > &PARM02
(PID.TID 0000.0001) > cg2dMaxIters=100,
(PID.TID 0000.0001) > cg2dTargetResidual=1.E-13,
(PID.TID 0000.0001) > &
(PID.TID 0000.0001) ># Time stepping parameters
(PID.TID 0000.0001) > &PARM03
(PID.TID 0000.0001) > niter0=0,
(PID.TID 0000.0001) > ntimesteps=100,
(PID.TID 0000.0001) >#startTime = 0.,
(PID.TID 0000.0001) >#endTime = 7776000,
(PID.TID 0000.0001) > deltaTmom=3600.0,
(PID.TID 0000.0001) > deltaTtracer=3600.0,
(PID.TID 0000.0001) > abEps=0.1,
(PID.TID 0000.0001) > pChkptFreq= 7776000.0,
(PID.TID 0000.0001) > chkptFreq=  0.0,
(PID.TID 0000.0001) >#dumpFreq=   1.0,
(PID.TID 0000.0001) > monitorFreq=1.0,
(PID.TID 0000.0001) > &
(PID.TID 0000.0001) ># Gridding parameters
(PID.TID 0000.0001) > &PARM04
(PID.TID 0000.0001) > usingCartesianGrid=.TRUE.,
(PID.TID 0000.0001) > usingSphericalPolarGrid=.FALSE.,
(PID.TID 0000.0001) > delX=5*200E3,
(PID.TID 0000.0001) > delY=5*200E3,
(PID.TID 0000.0001) ># 1 layer
(PID.TID 0000.0001) >#delZ=5001.,500.,500.,500.,
(PID.TID 0000.0001) ># 2 layers
(PID.TID 0000.0001) >#delZ=1000.,5000.,500.,5000.,
(PID.TID 0000.0001) ># 4 layers
(PID.TID 0000.0001) > delZ=100.,400.,500.,5000.,
(PID.TID 0000.0001) >#delZ=1000.,1500.,1500.,1500.,
(PID.TID 0000.0001) > &
(PID.TID 0000.0001) > &PARM05
(PID.TID 0000.0001) >#bathyFile='walls.bigRidge',
(PID.TID 0000.0001) > bathyFile='noWalls.bigRidge',
(PID.TID 0000.0001) >#bathyFile='box.bigRidge',
(PID.TID 0000.0001) >#bathyFile='meridchannel.bigRidge',
(PID.TID 0000.0001) > hydrogThetaFile=,
(PID.TID 0000.0001) > hydrogSaltFile=,
(PID.TID 0000.0001) > zonalWindFile='windx.sin_y',
(PID.TID 0000.0001) > meridWindFile=,
(PID.TID 0000.0001) > surfQFile=,
(PID.TID 0000.0001) > EmPmRFile=,
(PID.TID 0000.0001) > &
(PID.TID 0000.0001) 
(PID.TID 0000.0001) S/R INI_PARMS ; starts to read PARM01
(PID.TID 0000.0001) S/R INI_PARMS ; read PARM01 : OK
(PID.TID 0000.0001) S/R INI_PARMS ; starts to read PARM02
(PID.TID 0000.0001) S/R INI_PARMS ; read PARM02 : OK
(PID.TID 0000.0001) S/R INI_PARMS ; starts to read PARM03
(PID.TID 0000.0001) S/R INI_PARMS ; read PARM03 : OK
(PID.TID 0000.0001) S/R INI_PARMS ; starts to read PARM04
(PID.TID 0000.0001) S/R INI_PARMS ; read PARM04 : OK
(PID.TID 0000.0001) S/R INI_PARMS ; starts to read PARM05
(PID.TID 0000.0001) S/R INI_PARMS ; read PARM05 : OK
(PID.TID 0000.0001)  PACKAGES_BOOT: opening data.pkg
(PID.TID 0000.0001)  OPEN_COPY_DATA_FILE: opening file data.pkg
(PID.TID 0000.0001) // =======================================================
(PID.TID 0000.0001) // Parameter file "data.pkg"
(PID.TID 0000.0001) // =======================================================
(PID.TID 0000.0001) >#
(PID.TID 0000.0001) ># ********
(PID.TID 0000.0001) ># Packages
(PID.TID 0000.0001) ># ********
(PID.TID 0000.0001) > &PACKAGES
(PID.TID 0000.0001) > useGMRedi    = .FALSE.,
(PID.TID 0000.0001) > useKPP       = .FALSE.,
(PID.TID 0000.0001) > useGrdchk    = .TRUE.,
(PID.TID 0000.0001) > useECCO      = .FALSE.,
(PID.TID 0000.0001) > &
(PID.TID 0000.0001) 
(PID.TID 0000.0001)  PACKAGES_BOOT: finished reading data.pkg
(PID.TID 0000.0001) OPTIM_READPARMS: opening data.optim
(PID.TID 0000.0001)  OPEN_COPY_DATA_FILE: opening file data.optim
(PID.TID 0000.0001) // =======================================================
(PID.TID 0000.0001) // Parameter file "data.optim"
(PID.TID 0000.0001) // =======================================================
(PID.TID 0000.0001) >#
(PID.TID 0000.0001) ># ********************************
(PID.TID 0000.0001) ># Off-line optimization parameters
(PID.TID 0000.0001) ># ********************************
(PID.TID 0000.0001) > &OPTIM
(PID.TID 0000.0001) > optimcycle=0,
(PID.TID 0000.0001) > /
(PID.TID 0000.0001) 
(PID.TID 0000.0001) OPTIM_READPARMS: finished reading data.optim
(PID.TID 0000.0001) CTRL_READPARMS: opening data.ctrl
(PID.TID 0000.0001)  OPEN_COPY_DATA_FILE: opening file data.ctrl
(PID.TID 0000.0001) // =======================================================
(PID.TID 0000.0001) // Parameter file "data.ctrl"
(PID.TID 0000.0001) // =======================================================
(PID.TID 0000.0001) >#
(PID.TID 0000.0001) >#
(PID.TID 0000.0001) ># *********************
(PID.TID 0000.0001) ># ECCO controlvariables
(PID.TID 0000.0001) ># *********************
(PID.TID 0000.0001) > &CTRL_NML
(PID.TID 0000.0001) ># xx_theta_file      = 'xx_theta',
(PID.TID 0000.0001) ># xx_salt_file       = 'xx_salt',
(PID.TID 0000.0001) ># xx_tr1_file        = 'xx_tr1',
(PID.TID 0000.0001) ># xx_hflux_file      = 'xx_hflux',
(PID.TID 0000.0001) ># xx_sflux_file      = 'xx_sflux',
(PID.TID 0000.0001) ># xx_tauu_file       = 'xx_tauu',
(PID.TID 0000.0001) ># xx_tauv_file       = 'xx_tauv',
(PID.TID 0000.0001) ># xx_sst_file        = 'xx_sst',
(PID.TID 0000.0001) ># xx_sss_file        = 'xx_sss',
(PID.TID 0000.0001) ># xx_diffkr_file     = 'xx_diffkr',
(PID.TID 0000.0001) ># xx_kapgm_file      = 'xx_kapgm',
(PID.TID 0000.0001) >#xx_hfacc_file      = 'xx_hfacc',
(PID.TID 0000.0001) > xx_depth_file      = 'xx_depth',
(PID.TID 0000.0001) > &
(PID.TID 0000.0001) >#
(PID.TID 0000.0001) ># *********************
(PID.TID 0000.0001) ># names for ctrl_pack/unpack
(PID.TID 0000.0001) ># *********************
(PID.TID 0000.0001) > &CTRL_PACKNAMES
(PID.TID 0000.0001) > &
(PID.TID 0000.0001) >
(PID.TID 0000.0001) 
(PID.TID 0000.0001) CTRL_READPARMS: finished reading data.ctrl
(PID.TID 0000.0001) COST_READPARMS: opening data.cost
(PID.TID 0000.0001)  OPEN_COPY_DATA_FILE: opening file data.cost
(PID.TID 0000.0001) // =======================================================
(PID.TID 0000.0001) // Parameter file "data.cost"
(PID.TID 0000.0001) // =======================================================
(PID.TID 0000.0001) >#
(PID.TID 0000.0001) >#
(PID.TID 0000.0001) ># ******************
(PID.TID 0000.0001) ># ECCO cost function
(PID.TID 0000.0001) ># ******************
(PID.TID 0000.0001) > &COST_NML
(PID.TID 0000.0001) > mult_tracer  = 0.,
(PID.TID 0000.0001) > mult_test    = 1.,
(PID.TID 0000.0001) > mult_depth   = 1.,
(PID.TID 0000.0001) > &
(PID.TID 0000.0001) 
(PID.TID 0000.0001) COST_READPARMS: finished reading data.cost
(PID.TID 0000.0001) GRDCHK_READPARMS: opening data.grdchk
(PID.TID 0000.0001)  OPEN_COPY_DATA_FILE: opening file data.grdchk
(PID.TID 0000.0001) // =======================================================
(PID.TID 0000.0001) // Parameter file "data.grdchk"
(PID.TID 0000.0001) // =======================================================
(PID.TID 0000.0001) >
(PID.TID 0000.0001) ># *******************
(PID.TID 0000.0001) ># ECCO gradient check
(PID.TID 0000.0001) ># *******************
(PID.TID 0000.0001) > &GRDCHK_NML
(PID.TID 0000.0001) > grdchk_eps       = 1.d-04,
(PID.TID 0000.0001) > nbeg             = 1,
(PID.TID 0000.0001) > nstep            = 1,
(PID.TID 0000.0001) > nend             = 25,
(PID.TID 0000.0001) > grdchkvarindex   = 20,
(PID.TID 0000.0001) > /
(PID.TID 0000.0001) 
(PID.TID 0000.0001) GRDCHK_READPARMS: finished reading data.grdchk
(PID.TID 0000.0001) 
(PID.TID 0000.0001) // =======================================================
(PID.TID 0000.0001) // Gradient check configuration  >>> START <<<
(PID.TID 0000.0001) // =======================================================
(PID.TID 0000.0001) 
(PID.TID 0000.0001)   eps:                              0.100E-03
(PID.TID 0000.0001)   First location:                           1
(PID.TID 0000.0001)   Last location:                           25
(PID.TID 0000.0001)   Increment:                                1
(PID.TID 0000.0001) 
(PID.TID 0000.0001) // =======================================================
(PID.TID 0000.0001) // Gradient check configuration  >>> END <<<
(PID.TID 0000.0001) // =======================================================
(PID.TID 0000.0001) 
(PID.TID 0000.0001) SET_PARMS: done
(PID.TID 0000.0001) Enter INI_VERTICAL_GRID: setInterFDr=    T ; setCenterDr=    F
(PID.TID 0000.0001) %MON XC_max                       =   9.0000000000000E+05
(PID.TID 0000.0001) %MON XC_min                       =   1.0000000000000E+05
(PID.TID 0000.0001) %MON XC_mean                      =   5.0000000000000E+05
(PID.TID 0000.0001) %MON XC_sd                        =   2.8284271247462E+05
(PID.TID 0000.0001) %MON XG_max                       =   8.0000000000000E+05
(PID.TID 0000.0001) %MON XG_min                       =   0.0000000000000E+00
(PID.TID 0000.0001) %MON XG_mean                      =   4.0000000000000E+05
(PID.TID 0000.0001) %MON XG_sd                        =   2.8284271247462E+05
(PID.TID 0000.0001) %MON DXC_max                      =   2.0000000000000E+05
(PID.TID 0000.0001) %MON DXC_min                      =   2.0000000000000E+05
(PID.TID 0000.0001) %MON DXC_mean                     =   2.0000000000000E+05
(PID.TID 0000.0001) %MON DXC_sd                       =   0.0000000000000E+00
(PID.TID 0000.0001) %MON DXF_max                      =   2.0000000000000E+05
(PID.TID 0000.0001) %MON DXF_min                      =   2.0000000000000E+05
(PID.TID 0000.0001) %MON DXF_mean                     =   2.0000000000000E+05
(PID.TID 0000.0001) %MON DXF_sd                       =   0.0000000000000E+00
(PID.TID 0000.0001) %MON DXG_max                      =   2.0000000000000E+05
(PID.TID 0000.0001) %MON DXG_min                      =   2.0000000000000E+05
(PID.TID 0000.0001) %MON DXG_mean                     =   2.0000000000000E+05
(PID.TID 0000.0001) %MON DXG_sd                       =   0.0000000000000E+00
(PID.TID 0000.0001) %MON DXV_max                      =   2.0000000000000E+05
(PID.TID 0000.0001) %MON DXV_min                      =   2.0000000000000E+05
(PID.TID 0000.0001) %MON DXV_mean                     =   2.0000000000000E+05
(PID.TID 0000.0001) %MON DXV_sd                       =   0.0000000000000E+00
(PID.TID 0000.0001) %MON YC_max                       =   9.0000000000000E+05
(PID.TID 0000.0001) %MON YC_min                       =   1.0000000000000E+05
(PID.TID 0000.0001) %MON YC_mean                      =   5.0000000000000E+05
(PID.TID 0000.0001) %MON YC_sd                        =   2.8284271247462E+05
(PID.TID 0000.0001) %MON YG_max                       =   8.0000000000000E+05
(PID.TID 0000.0001) %MON YG_min                       =   0.0000000000000E+00
(PID.TID 0000.0001) %MON YG_mean                      =   4.0000000000000E+05
(PID.TID 0000.0001) %MON YG_sd                        =   2.8284271247462E+05
(PID.TID 0000.0001) %MON DYC_max                      =   2.0000000000000E+05
(PID.TID 0000.0001) %MON DYC_min                      =   2.0000000000000E+05
(PID.TID 0000.0001) %MON DYC_mean                     =   2.0000000000000E+05
(PID.TID 0000.0001) %MON DYC_sd                       =   0.0000000000000E+00
(PID.TID 0000.0001) %MON DYF_max                      =   2.0000000000000E+05
(PID.TID 0000.0001) %MON DYF_min                      =   2.0000000000000E+05
(PID.TID 0000.0001) %MON DYF_mean                     =   2.0000000000000E+05
(PID.TID 0000.0001) %MON DYF_sd                       =   0.0000000000000E+00
(PID.TID 0000.0001) %MON DYG_max                      =   2.0000000000000E+05
(PID.TID 0000.0001) %MON DYG_min                      =   2.0000000000000E+05
(PID.TID 0000.0001) %MON DYG_mean                     =   2.0000000000000E+05
(PID.TID 0000.0001) %MON DYG_sd                       =   0.0000000000000E+00
(PID.TID 0000.0001) %MON DYU_max                      =   2.0000000000000E+05
(PID.TID 0000.0001) %MON DYU_min                      =   2.0000000000000E+05
(PID.TID 0000.0001) %MON DYU_mean                     =   2.0000000000000E+05
(PID.TID 0000.0001) %MON DYU_sd                       =   0.0000000000000E+00
(PID.TID 0000.0001) %MON RA_max                       =   4.0000000000000E+10
(PID.TID 0000.0001) %MON RA_min                       =   4.0000000000000E+10
(PID.TID 0000.0001) %MON RA_mean                      =   4.0000000000000E+10
(PID.TID 0000.0001) %MON RA_sd                        =   0.0000000000000E+00
(PID.TID 0000.0001) %MON RAW_max                      =   4.0000000000000E+10
(PID.TID 0000.0001) %MON RAW_min                      =   4.0000000000000E+10
(PID.TID 0000.0001) %MON RAW_mean                     =   4.0000000000000E+10
(PID.TID 0000.0001) %MON RAW_sd                       =   0.0000000000000E+00
(PID.TID 0000.0001) %MON RAS_max                      =   4.0000000000000E+10
(PID.TID 0000.0001) %MON RAS_min                      =   4.0000000000000E+10
(PID.TID 0000.0001) %MON RAS_mean                     =   4.0000000000000E+10
(PID.TID 0000.0001) %MON RAS_sd                       =   0.0000000000000E+00
(PID.TID 0000.0001) %MON RAZ_max                      =   4.0000000000000E+10
(PID.TID 0000.0001) %MON RAZ_min                      =   4.0000000000000E+10
(PID.TID 0000.0001) %MON RAZ_mean                     =   4.0000000000000E+10
(PID.TID 0000.0001) %MON RAZ_sd                       =   0.0000000000000E+00
(PID.TID 0000.0001) %MON AngleCS_max                  =   1.0000000000000E+00
(PID.TID 0000.0001) %MON AngleCS_min                  =   1.0000000000000E+00
(PID.TID 0000.0001) %MON AngleCS_mean                 =   1.0000000000000E+00
(PID.TID 0000.0001) %MON AngleCS_sd                   =   0.0000000000000E+00
(PID.TID 0000.0001) %MON AngleSN_max                  =   0.0000000000000E+00
(PID.TID 0000.0001) %MON AngleSN_min                  =   0.0000000000000E+00
(PID.TID 0000.0001) %MON AngleSN_mean                 =   0.0000000000000E+00
(PID.TID 0000.0001) %MON AngleSN_sd                   =   0.0000000000000E+00
(PID.TID 0000.0001)  MDS_READ_FIELD: opening global file: noWalls.bigRidge
(PID.TID 0000.0001) // =======================================================
(PID.TID 0000.0001) // Field Model R_low (ini_masks_etc) at iteration          1
(PID.TID 0000.0001) // CMIN =         -5.000000000000000E+03
(PID.TID 0000.0001) // CMAX =         -2.000000000000000E+03
(PID.TID 0000.0001) // CINT =          1.111111111111111E+02
(PID.TID 0000.0001) // SYMBOLS (CMIN->CMAX): -abcdefghijklmnopqrstuvwxyz+
(PID.TID 0000.0001) //                  0.0: .
(PID.TID 0000.0001) // RANGE I (Lo:Hi:Step):(  -1:   7:   1)
(PID.TID 0000.0001) // RANGE J (Lo:Hi:Step):(   7:  -1:  -1)
(PID.TID 0000.0001) // RANGE K (Lo:Hi:Step):(   1:   1:   1)
(PID.TID 0000.0001) // =======================================================
(PID.TID 0000.0001) K =   1
(PID.TID 0000.0001) //
(PID.TID 0000.0001) // |--J--|101234567
(PID.TID 0000.0001) //      7 ----+----
(PID.TID 0000.0001) //      6 ----+----
(PID.TID 0000.0001) //      5 ----+----
(PID.TID 0000.0001) //      4 ----+----
(PID.TID 0000.0001) //      3 ----+----
(PID.TID 0000.0001) //      2 ----+----
(PID.TID 0000.0001) //      1 ----+----
(PID.TID 0000.0001) //      0 ----+----
(PID.TID 0000.0001) //     -1 ----+----
(PID.TID 0000.0001) // =======================================================
(PID.TID 0000.0001) // END OF FIELD                                          =
(PID.TID 0000.0001) // =======================================================
(PID.TID 0000.0001) 
(PID.TID 0000.0001) // =======================================================
(PID.TID 0000.0001) // Field Model Ro_surf (ini_masks_etc) at iteration          1
(PID.TID 0000.0001) // CMIN =          1.000000000000000E+32
(PID.TID 0000.0001) // CMAX =         -1.000000000000000E+32
(PID.TID 0000.0001) // CINT =          0.000000000000000E+00
(PID.TID 0000.0001) // SYMBOLS (CMIN->CMAX): -abcdefghijklmnopqrstuvwxyz+
(PID.TID 0000.0001) //                  0.0: .
(PID.TID 0000.0001) // RANGE I (Lo:Hi:Step):(  -1:   7:   1)
(PID.TID 0000.0001) // RANGE J (Lo:Hi:Step):(   7:  -1:  -1)
(PID.TID 0000.0001) // RANGE K (Lo:Hi:Step):(   1:   1:   1)
(PID.TID 0000.0001) // =======================================================
(PID.TID 0000.0001) // =======================================================
(PID.TID 0000.0001) // END OF FIELD                                          =
(PID.TID 0000.0001) // =======================================================
(PID.TID 0000.0001) 
(PID.TID 0000.0001) // =======================================================
(PID.TID 0000.0001) // Field hFacC at iteration          1
(PID.TID 0000.0001) // CMIN =          1.000000000000000E+00
(PID.TID 0000.0001) // CMAX =          1.000000000000000E+00
(PID.TID 0000.0001) // CINT =          0.000000000000000E+00
(PID.TID 0000.0001) // SYMBOLS (CMIN->CMAX): -abcdefghijklmnopqrstuvwxyz+
(PID.TID 0000.0001) //                  0.0: .
(PID.TID 0000.0001) // RANGE I (Lo:Hi:Step):(  -1:   7:   1)
(PID.TID 0000.0001) // RANGE J (Lo:Hi:Step):(   7:  -1:  -1)
(PID.TID 0000.0001) // RANGE K (Lo:Hi:Step):(   1:   1:   1)
(PID.TID 0000.0001) // =======================================================
(PID.TID 0000.0001) // =======================================================
(PID.TID 0000.0001) // END OF FIELD                                          =
(PID.TID 0000.0001) // =======================================================
(PID.TID 0000.0001) 
(PID.TID 0000.0001) // =======================================================
(PID.TID 0000.0001) // Field hFacW at iteration          1
(PID.TID 0000.0001) // CMIN =          1.000000000000000E+00
(PID.TID 0000.0001) // CMAX =          1.000000000000000E+00
(PID.TID 0000.0001) // CINT =          0.000000000000000E+00
(PID.TID 0000.0001) // SYMBOLS (CMIN->CMAX): -abcdefghijklmnopqrstuvwxyz+
(PID.TID 0000.0001) //                  0.0: .
(PID.TID 0000.0001) // RANGE I (Lo:Hi:Step):(  -1:   7:   1)
(PID.TID 0000.0001) // RANGE J (Lo:Hi:Step):(   7:  -1:  -1)
(PID.TID 0000.0001) // RANGE K (Lo:Hi:Step):(   1:   1:   1)
(PID.TID 0000.0001) // =======================================================
(PID.TID 0000.0001) // =======================================================
(PID.TID 0000.0001) // END OF FIELD                                          =
(PID.TID 0000.0001) // =======================================================
(PID.TID 0000.0001) 
(PID.TID 0000.0001) // =======================================================
(PID.TID 0000.0001) // Field hFacS at iteration          1
(PID.TID 0000.0001) // CMIN =          1.000000000000000E+00
(PID.TID 0000.0001) // CMAX =          1.000000000000000E+00
(PID.TID 0000.0001) // CINT =          0.000000000000000E+00
(PID.TID 0000.0001) // SYMBOLS (CMIN->CMAX): -abcdefghijklmnopqrstuvwxyz+
(PID.TID 0000.0001) //                  0.0: .
(PID.TID 0000.0001) // RANGE I (Lo:Hi:Step):(  -1:   7:   1)
(PID.TID 0000.0001) // RANGE J (Lo:Hi:Step):(   7:  -1:  -1)
(PID.TID 0000.0001) // RANGE K (Lo:Hi:Step):(   1:   1:   1)
(PID.TID 0000.0001) // =======================================================
(PID.TID 0000.0001) // =======================================================
(PID.TID 0000.0001) // END OF FIELD                                          =
(PID.TID 0000.0001) // =======================================================
(PID.TID 0000.0001) 
(PID.TID 0000.0001) 
(PID.TID 0000.0001) // ===================================
(PID.TID 0000.0001) // GAD parameters :
(PID.TID 0000.0001) // ===================================
(PID.TID 0000.0001) tempAdvScheme =   /* Temp. Horiz.Advection scheme selector */
(PID.TID 0000.0001)                       2
(PID.TID 0000.0001)     ;
(PID.TID 0000.0001) tempVertAdvScheme =   /* Temp. Vert. Advection scheme selector */
(PID.TID 0000.0001)                       2
(PID.TID 0000.0001)     ;
(PID.TID 0000.0001) tempMultiDimAdvec =   /* use Muti-Dim Advec method for Temp */
(PID.TID 0000.0001)                   F
(PID.TID 0000.0001)     ;
(PID.TID 0000.0001) tempSOM_Advection = /* use 2nd Order Moment Advection for Temp */
(PID.TID 0000.0001)                   F
(PID.TID 0000.0001)     ;
(PID.TID 0000.0001) AdamsBashforthGt = /* apply Adams-Bashforth extrapolation on Gt */
(PID.TID 0000.0001)                   T
(PID.TID 0000.0001)     ;
(PID.TID 0000.0001) AdamsBashforth_T = /* apply Adams-Bashforth extrapolation on Temp */
(PID.TID 0000.0001)                   F
(PID.TID 0000.0001)     ;
(PID.TID 0000.0001) saltAdvScheme =   /* Salt. Horiz.advection scheme selector */
(PID.TID 0000.0001)                       2
(PID.TID 0000.0001)     ;
(PID.TID 0000.0001) saltVertAdvScheme =   /* Salt. Vert. Advection scheme selector */
(PID.TID 0000.0001)                       2
(PID.TID 0000.0001)     ;
(PID.TID 0000.0001) saltMultiDimAdvec =   /* use Muti-Dim Advec method for Salt */
(PID.TID 0000.0001)                   F
(PID.TID 0000.0001)     ;
(PID.TID 0000.0001) saltSOM_Advection = /* use 2nd Order Moment Advection for Salt */
(PID.TID 0000.0001)                   F
(PID.TID 0000.0001)     ;
(PID.TID 0000.0001) AdamsBashforthGs = /* apply Adams-Bashforth extrapolation on Gs */
(PID.TID 0000.0001)                   T
(PID.TID 0000.0001)     ;
(PID.TID 0000.0001) AdamsBashforth_S = /* apply Adams-Bashforth extrapolation on Salt */
(PID.TID 0000.0001)                   F
(PID.TID 0000.0001)     ;
(PID.TID 0000.0001) // ===================================
(PID.TID 0000.0001) ctrl-wet 1:    nvarlength =           25
(PID.TID 0000.0001) ctrl-wet 2: surface wet C =           25
(PID.TID 0000.0001) ctrl-wet 3: surface wet W =           25
(PID.TID 0000.0001) ctrl-wet 4: surface wet S =           25
(PID.TID 0000.0001) ctrl-wet 4a:surface wet V =            0
(PID.TID 0000.0001) ctrl-wet 5: 3D wet points =          100
(PID.TID 0000.0001) ctrl-wet 6: no recs for i =     1           0
(PID.TID 0000.0001) ctrl-wet 6: no recs for i =     2           0
(PID.TID 0000.0001) ctrl-wet 6: no recs for i =     3           0
(PID.TID 0000.0001) ctrl-wet 6: no recs for i =     4           0
(PID.TID 0000.0001) ctrl-wet 6: no recs for i =     5           0
(PID.TID 0000.0001) ctrl-wet 6: no recs for i =     6           0
(PID.TID 0000.0001) ctrl-wet 6: no recs for i =     7           0
(PID.TID 0000.0001) ctrl-wet 6: no recs for i =     8           0
(PID.TID 0000.0001) ctrl-wet 6: no recs for i =     9           0
(PID.TID 0000.0001) ctrl-wet 6: no recs for i =    10           0
(PID.TID 0000.0001) ctrl-wet 6: no recs for i =    11           0
(PID.TID 0000.0001) ctrl-wet 6: no recs for i =    12           0
(PID.TID 0000.0001) ctrl-wet 6: no recs for i =    13           0
(PID.TID 0000.0001) ctrl-wet 6: no recs for i =    14           0
(PID.TID 0000.0001) ctrl-wet 6: no recs for i =    15           0
(PID.TID 0000.0001) ctrl-wet 6: no recs for i =    16           0
(PID.TID 0000.0001) ctrl-wet 6: no recs for i =    17           0
(PID.TID 0000.0001) ctrl-wet 6: no recs for i =    18           0
(PID.TID 0000.0001) ctrl-wet 6: no recs for i =    19           0
(PID.TID 0000.0001) ctrl-wet 6: no recs for i =    20           1
(PID.TID 0000.0001) ctrl-wet 6: no recs for i =    21           0
(PID.TID 0000.0001) ctrl-wet 6: no recs for i =    22           0
(PID.TID 0000.0001) ctrl-wet 6: no recs for i =    23           0
(PID.TID 0000.0001) ctrl-wet 6: no recs for i =    24           0
(PID.TID 0000.0001) ctrl-wet 6: no recs for i =    25           0
(PID.TID 0000.0001) ctrl-wet 6: no recs for i =    26           0
(PID.TID 0000.0001) ctrl-wet 6: no recs for i =    27           0
(PID.TID 0000.0001) ctrl-wet 6: no recs for i =    28           0
(PID.TID 0000.0001) ctrl-wet 6: no recs for i =    29           0
(PID.TID 0000.0001) ctrl-wet 6: no recs for i =    30           0
(PID.TID 0000.0001) ctrl-wet 6: no recs for i =    31           0
(PID.TID 0000.0001) ctrl-wet 6: no recs for i =    32           0
(PID.TID 0000.0001) ctrl-wet 6: no recs for i =    33           0
(PID.TID 0000.0001) ctrl-wet 6: no recs for i =    34           0
(PID.TID 0000.0001) ctrl-wet 6: no recs for i =    35           0
(PID.TID 0000.0001) ctrl-wet 6: no recs for i =    36           0
(PID.TID 0000.0001) ctrl-wet 6: no recs for i =    37           0
(PID.TID 0000.0001) ctrl-wet 6: no recs for i =    38           0
(PID.TID 0000.0001) ctrl-wet 6: no recs for i =    39           0
(PID.TID 0000.0001) ctrl-wet 6: no recs for i =    40           0
(PID.TID 0000.0001) ctrl-wet 6: no recs for i =    41           0
(PID.TID 0000.0001) ctrl-wet 6: no recs for i =    42           0
(PID.TID 0000.0001) ctrl-wet 6: no recs for i =    43           0
(PID.TID 0000.0001) ctrl-wet 6: no recs for i =    44           0
(PID.TID 0000.0001) ctrl-wet 6: no recs for i =    45           0
(PID.TID 0000.0001) ctrl-wet 6: no recs for i =    46           0
(PID.TID 0000.0001) ctrl-wet 6: no recs for i =    47           0
(PID.TID 0000.0001) ctrl-wet 6: no recs for i =    48           0
(PID.TID 0000.0001) ctrl-wet 6: no recs for i =    49           0
(PID.TID 0000.0001) ctrl-wet 6: no recs for i =    50           0
(PID.TID 0000.0001) ctrl-wet 6: no recs for i =    51           0
(PID.TID 0000.0001) ctrl-wet 6: no recs for i =    52           0
(PID.TID 0000.0001) ctrl-wet 6: no recs for i =    53           0
(PID.TID 0000.0001) ctrl-wet 6: no recs for i =    54           0
(PID.TID 0000.0001) ctrl-wet 6: no recs for i =    55           0
(PID.TID 0000.0001) ctrl-wet 6: no recs for i =    56           0
(PID.TID 0000.0001) ctrl-wet 6: no recs for i =    57           0
(PID.TID 0000.0001) ctrl-wet 6: no recs for i =    58           0
(PID.TID 0000.0001) ctrl-wet 6: no recs for i =    59           0
(PID.TID 0000.0001) ctrl-wet 6: no recs for i =    60           0
(PID.TID 0000.0001) ctrl-wet 7: flux           200
(PID.TID 0000.0001) ctrl-wet 8: atmos          200
(PID.TID 0000.0001) ctrl-wet -------------------------------------------------
(PID.TID 0000.0001) ctrl-wet 13: global nvarlength for Nr =    4          25
(PID.TID 0000.0001) ctrl-wet -------------------------------------------------
(PID.TID 0000.0001) ctrl-wet 14: global nWet C/S/W/V k=    1          25          25          25           0
(PID.TID 0000.0001) ctrl-wet 14: global nWet C/S/W/V k=    2          25          25          25           0
(PID.TID 0000.0001) ctrl-wet 14: global nWet C/S/W/V k=    3          25          25          25           0
(PID.TID 0000.0001) ctrl-wet 14: global nWet C/S/W/V k=    4          25          25          25           0
(PID.TID 0000.0001) ctrl-wet -------------------------------------------------
(PID.TID 0000.0001) ctrl-wet -------------------------------------------------
(PID.TID 0000.0001) ctrl-wet -------------------------------------------------
(PID.TID 0000.0001) ctrl_init: no. of control variables:            1
(PID.TID 0000.0001) ctrl_init: control vector length:              25
(PID.TID 0000.0001) %MON fCori_max                    =  -1.0735540000000E-04
(PID.TID 0000.0001) %MON fCori_min                    =  -1.1783060000000E-04
(PID.TID 0000.0001) %MON fCori_mean                   =  -1.1259300000000E-04
(PID.TID 0000.0001) %MON fCori_sd                     =   3.7035424771427E-06
(PID.TID 0000.0001) %MON fCoriG_max                   =  -1.0866480000000E-04
(PID.TID 0000.0001) %MON fCoriG_min                   =  -1.1914000000000E-04
(PID.TID 0000.0001) %MON fCoriG_mean                  =  -1.1390240000000E-04
(PID.TID 0000.0001) %MON fCoriG_sd                    =   3.7035424771427E-06
(PID.TID 0000.0001) %MON fCoriCos_max                 =   0.0000000000000E+00
(PID.TID 0000.0001) %MON fCoriCos_min                 =   0.0000000000000E+00
(PID.TID 0000.0001) %MON fCoriCos_mean                =   0.0000000000000E+00
(PID.TID 0000.0001) %MON fCoriCos_sd                  =   0.0000000000000E+00
(PID.TID 0000.0001) INI_CG2D: CG2D normalisation factor =  1.9999999999999996E-04
(PID.TID 0000.0001) 
(PID.TID 0000.0001) // =======================================================
(PID.TID 0000.0001) // Model configuration
(PID.TID 0000.0001) // =======================================================
(PID.TID 0000.0001) //
(PID.TID 0000.0001) // "Physical" paramters ( PARM01 in namelist )
(PID.TID 0000.0001) //
(PID.TID 0000.0001) buoyancyRelation = /* Type of relation to get Buoyancy */
(PID.TID 0000.0001)               'OCEANIC'
(PID.TID 0000.0001)     ;
(PID.TID 0000.0001) fluidIsAir  =  /* fluid major constituent is Air */
(PID.TID 0000.0001)                   F
(PID.TID 0000.0001)     ;
(PID.TID 0000.0001) fluidIsWater=  /* fluid major constituent is Water */
(PID.TID 0000.0001)                   T
(PID.TID 0000.0001)     ;
(PID.TID 0000.0001) usingPCoords =  /* use p (or p*) vertical coordinate */
(PID.TID 0000.0001)                   F
(PID.TID 0000.0001)     ;
(PID.TID 0000.0001) usingZCoords =  /* use z (or z*) vertical coordinate */
(PID.TID 0000.0001)                   T
(PID.TID 0000.0001)     ;
(PID.TID 0000.0001) tRef =   /* Reference temperature profile ( oC or K ) */
(PID.TID 0000.0001)     4 @  4.000000000000000E+00              /* K =  1:  4 */
(PID.TID 0000.0001)     ;
(PID.TID 0000.0001) sRef =   /* Reference salinity profile ( psu ) */
(PID.TID 0000.0001)     4 @  3.500000000000000E+01              /* K =  1:  4 */
(PID.TID 0000.0001)     ;
(PID.TID 0000.0001) viscAh =   /* Lateral eddy viscosity ( m^2/s ) */
(PID.TID 0000.0001)                 1.000000000000000E+05
(PID.TID 0000.0001)     ;
(PID.TID 0000.0001) viscAhMax =   /* Maximum lateral eddy viscosity ( m^2/s ) */
(PID.TID 0000.0001)                 1.000000000000000E+21
(PID.TID 0000.0001)     ;
(PID.TID 0000.0001) viscAhGrid =   /* Grid dependent lateral eddy viscosity ( non-dim. ) */
(PID.TID 0000.0001)                 0.000000000000000E+00
(PID.TID 0000.0001)     ;
(PID.TID 0000.0001) useFullLeith =   /* Use Full Form of Leith Viscosity on/off flag*/
(PID.TID 0000.0001)                   F
(PID.TID 0000.0001)     ;
(PID.TID 0000.0001) useStrainTensionVisc =   /* Use StrainTension Form of Viscous Operator on/off flag*/
(PID.TID 0000.0001)                   F
(PID.TID 0000.0001)     ;
(PID.TID 0000.0001) useAreaViscLength =   /* Use area for visc length instead of geom. mean*/
(PID.TID 0000.0001)                   F
(PID.TID 0000.0001)     ;
(PID.TID 0000.0001) viscC2leith = /* Leith harmonic visc. factor (on grad(vort),non-dim.) */
(PID.TID 0000.0001)                 0.000000000000000E+00
(PID.TID 0000.0001)     ;
(PID.TID 0000.0001) viscC2leithD = /* Leith harmonic viscosity factor (on grad(div),non-dim.) */
(PID.TID 0000.0001)                 0.000000000000000E+00
(PID.TID 0000.0001)     ;
(PID.TID 0000.0001) viscC2smag =   /* Smagorinsky harmonic viscosity factor (non-dim.) */
(PID.TID 0000.0001)                 0.000000000000000E+00
(PID.TID 0000.0001)     ;
(PID.TID 0000.0001) viscA4 =   /* Lateral biharmonic viscosity ( m^4/s ) */
(PID.TID 0000.0001)                 0.000000000000000E+00
(PID.TID 0000.0001)     ;
(PID.TID 0000.0001) viscA4Max =   /* Maximum biharmonic viscosity ( m^2/s ) */
(PID.TID 0000.0001)                 1.000000000000000E+21
(PID.TID 0000.0001)     ;
(PID.TID 0000.0001) viscA4Grid =   /* Grid dependent biharmonic viscosity ( non-dim. ) */
(PID.TID 0000.0001)                 0.000000000000000E+00
(PID.TID 0000.0001)     ;
(PID.TID 0000.0001) viscC4leith = /* Leith biharm viscosity factor (on grad(vort), non-dim.) */
(PID.TID 0000.0001)                 0.000000000000000E+00
(PID.TID 0000.0001)     ;
(PID.TID 0000.0001) viscC4leithD = /* Leith biharm viscosity factor (on grad(div), non-dim.) */
(PID.TID 0000.0001)                 0.000000000000000E+00
(PID.TID 0000.0001)     ;
(PID.TID 0000.0001) viscC4Smag = /* Smagorinsky biharm viscosity factor (non-dim) */
(PID.TID 0000.0001)                 0.000000000000000E+00
(PID.TID 0000.0001)     ;
(PID.TID 0000.0001) no_slip_sides =  /* Viscous BCs: No-slip sides */
(PID.TID 0000.0001)                   F
(PID.TID 0000.0001)     ;
(PID.TID 0000.0001) sideDragFactor = /* side-drag scaling factor (non-dim) */
(PID.TID 0000.0001)                 2.000000000000000E+00
(PID.TID 0000.0001)     ;
(PID.TID 0000.0001) viscAr =   /* Vertical eddy viscosity ( m^2/s ) */
(PID.TID 0000.0001)                 1.000000000000000E-01
(PID.TID 0000.0001)     ;
(PID.TID 0000.0001) no_slip_bottom =  /* Viscous BCs: No-slip bottom */
(PID.TID 0000.0001)                   T
(PID.TID 0000.0001)     ;
(PID.TID 0000.0001) bottomDragLinear = /* linear bottom-drag coefficient ( m/s ) */
(PID.TID 0000.0001)                 0.000000000000000E+00
(PID.TID 0000.0001)     ;
(PID.TID 0000.0001) bottomDragQuadratic = /* quadratic bottom-drag coefficient (-) */
(PID.TID 0000.0001)                 0.000000000000000E+00
(PID.TID 0000.0001)     ;
(PID.TID 0000.0001) diffKhT =   /* Laplacian diffusion of heat laterally ( m^2/s ) */
(PID.TID 0000.0001)                 4.000000000000000E+02
(PID.TID 0000.0001)     ;
(PID.TID 0000.0001) diffK4T =   /* Biharmonic diffusion of heat laterally ( m^4/s ) */
(PID.TID 0000.0001)                 0.000000000000000E+00
(PID.TID 0000.0001)     ;
(PID.TID 0000.0001) diffKhS =   /* Laplacian diffusion of salt laterally ( m^2/s ) */
(PID.TID 0000.0001)                 0.000000000000000E+00
(PID.TID 0000.0001)     ;
(PID.TID 0000.0001) diffK4S =   /* Biharmonic diffusion of salt laterally ( m^4/s ) */
(PID.TID 0000.0001)                 0.000000000000000E+00
(PID.TID 0000.0001)     ;
(PID.TID 0000.0001) diffKrNrT = /* vertical profile of vertical diffusion of Temp ( m^2/s )*/
(PID.TID 0000.0001)     4 @  1.000000000000000E-04              /* K =  1:  4 */
(PID.TID 0000.0001)     ;
(PID.TID 0000.0001) diffKrNrS = /* vertical profile of vertical diffusion of Salt ( m^2/s )*/
(PID.TID 0000.0001)     4 @  3.000000000000000E-05              /* K =  1:  4 */
(PID.TID 0000.0001)     ;
(PID.TID 0000.0001) diffKrBL79surf = /* Surface diffusion for Bryan and Lewis 79 ( m^2/s ) */
(PID.TID 0000.0001)                 0.000000000000000E+00
(PID.TID 0000.0001)     ;
(PID.TID 0000.0001) diffKrBL79deep = /* Deep diffusion for Bryan and Lewis 1979 ( m^2/s ) */
(PID.TID 0000.0001)                 0.000000000000000E+00
(PID.TID 0000.0001)     ;
(PID.TID 0000.0001) diffKrBL79scl = /* Depth scale for Bryan and Lewis 1979 ( m ) */
(PID.TID 0000.0001)                 2.000000000000000E+02
(PID.TID 0000.0001)     ;
(PID.TID 0000.0001) diffKrBL79Ho = /* Turning depth for Bryan and Lewis 1979 ( m ) */
(PID.TID 0000.0001)                -2.000000000000000E+03
(PID.TID 0000.0001)     ;
(PID.TID 0000.0001) ivdc_kappa = /* Implicit Vertical Diffusivity for Convection ( m^2/s ) */
(PID.TID 0000.0001)                 0.000000000000000E+00
(PID.TID 0000.0001)     ;
(PID.TID 0000.0001) hMixCriteria=  /* Criteria for mixed-layer diagnostic */
(PID.TID 0000.0001)                -8.000000000000000E-01
(PID.TID 0000.0001)     ;
(PID.TID 0000.0001) dRhoSmall=  /* Parameter for mixed-layer diagnostic */
(PID.TID 0000.0001)                 1.000000000000000E-06
(PID.TID 0000.0001)     ;
(PID.TID 0000.0001) hMixSmooth=  /* Smoothing parameter for mixed-layer diagnostic */
(PID.TID 0000.0001)                 0.000000000000000E+00
(PID.TID 0000.0001)     ;
(PID.TID 0000.0001) eosType =  /* Type of Equation of State */
(PID.TID 0000.0001)               'LINEAR'
(PID.TID 0000.0001)     ;
(PID.TID 0000.0001) tAlpha =   /* Linear EOS thermal expansion coefficient ( 1/oC ) */
(PID.TID 0000.0001)                 2.000000000000000E-04
(PID.TID 0000.0001)     ;
(PID.TID 0000.0001) sBeta =   /* Linear EOS haline contraction coefficient ( 1/psu ) */
(PID.TID 0000.0001)                 0.000000000000000E+00
(PID.TID 0000.0001)     ;
(PID.TID 0000.0001) rhonil =   /* Reference density ( kg/m^3 ) */
(PID.TID 0000.0001)                 9.998000000000000E+02
(PID.TID 0000.0001)     ;
(PID.TID 0000.0001) rhoConst =   /* Reference density ( kg/m^3 ) */
(PID.TID 0000.0001)                 9.998000000000000E+02
(PID.TID 0000.0001)     ;
(PID.TID 0000.0001) rhoFacC = /* normalized Reference density @ cell-Center (-) */
(PID.TID 0000.0001)     4 @  1.000000000000000E+00              /* K =  1:  4 */
(PID.TID 0000.0001)     ;
(PID.TID 0000.0001) rhoFacF = /* normalized Reference density @ W-Interface (-) */
(PID.TID 0000.0001)     5 @  1.000000000000000E+00              /* K =  1:  5 */
(PID.TID 0000.0001)     ;
(PID.TID 0000.0001) rhoConstFresh =   /* Reference density ( kg/m^3 ) */
(PID.TID 0000.0001)                 9.998000000000000E+02
(PID.TID 0000.0001)     ;
(PID.TID 0000.0001) gravity =   /* Gravitational acceleration ( m/s^2 ) */
(PID.TID 0000.0001)                 9.810000000000000E+00
(PID.TID 0000.0001)     ;
(PID.TID 0000.0001) gBaro =   /* Barotropic gravity ( m/s^2 ) */
(PID.TID 0000.0001)                 9.810000000000000E+00
(PID.TID 0000.0001)     ;
(PID.TID 0000.0001) rotationPeriod =   /* Rotation Period ( s ) */
(PID.TID 0000.0001)                 8.616400000000000E+04
(PID.TID 0000.0001)     ;
(PID.TID 0000.0001) omega =   /* Angular velocity ( rad/s ) */
(PID.TID 0000.0001)                 7.292123516990375E-05
(PID.TID 0000.0001)     ;
(PID.TID 0000.0001) f0 =   /* Reference coriolis parameter ( 1/s ) */
(PID.TID 0000.0001)                -1.191400000000000E-04
(PID.TID 0000.0001)     ;
(PID.TID 0000.0001) beta =   /* Beta ( 1/(m.s) ) */
(PID.TID 0000.0001)                 1.309400000000000E-11
(PID.TID 0000.0001)     ;
(PID.TID 0000.0001) freeSurfFac =   /* Implicit free surface factor */
(PID.TID 0000.0001)                 1.000000000000000E+00
(PID.TID 0000.0001)     ;
(PID.TID 0000.0001) implicitFreeSurface =   /* Implicit free surface on/off flag */
(PID.TID 0000.0001)                   T
(PID.TID 0000.0001)     ;
(PID.TID 0000.0001) rigidLid =   /* Rigid lid on/off flag */
(PID.TID 0000.0001)                   F
(PID.TID 0000.0001)     ;
(PID.TID 0000.0001) implicSurfPress =   /* Surface Pressure implicit factor (0-1)*/
(PID.TID 0000.0001)                 1.000000000000000E+00
(PID.TID 0000.0001)     ;
(PID.TID 0000.0001) implicDiv2Dflow =   /* Barot. Flow Div. implicit factor (0-1)*/
(PID.TID 0000.0001)                 1.000000000000000E+00
(PID.TID 0000.0001)     ;
(PID.TID 0000.0001) exactConserv =   /* Exact Volume Conservation on/off flag*/
(PID.TID 0000.0001)                   F
(PID.TID 0000.0001)     ;
(PID.TID 0000.0001) linFSConserveTr =   /* Tracer correction for Lin Free Surface on/off flag*/
(PID.TID 0000.0001)                   F
(PID.TID 0000.0001)     ;
(PID.TID 0000.0001) uniformLin_PhiSurf =   /* use uniform Bo_surf on/off flag*/
(PID.TID 0000.0001)                   T
(PID.TID 0000.0001)     ;
(PID.TID 0000.0001) nonlinFreeSurf =   /* Non-linear Free Surf. options (-1,0,1,2,3)*/
(PID.TID 0000.0001)                       0
(PID.TID 0000.0001)     ;
(PID.TID 0000.0001)      -1,0= Off ; 1,2,3= On, 2=+rescale gU,gV, 3=+update cg2d solv.
(PID.TID 0000.0001) hFacInf =   /* lower threshold for hFac (nonlinFreeSurf only)*/
(PID.TID 0000.0001)                 2.000000000000000E-01
(PID.TID 0000.0001)     ;
(PID.TID 0000.0001) hFacSup =   /* upper threshold for hFac (nonlinFreeSurf only)*/
(PID.TID 0000.0001)                 2.000000000000000E+00
(PID.TID 0000.0001)     ;
(PID.TID 0000.0001) select_rStar = /* r* Vertical coord. options (=0 r coord.; > 0 uses r*) */
(PID.TID 0000.0001)                       0
(PID.TID 0000.0001)     ;
(PID.TID 0000.0001) selectAddFluid = /* option for mass source/sink of fluid (=0: off) */
(PID.TID 0000.0001)                       0
(PID.TID 0000.0001)     ;
(PID.TID 0000.0001) useRealFreshWaterFlux = /* Real Fresh Water Flux on/off flag*/
(PID.TID 0000.0001)                   F
(PID.TID 0000.0001)     ;
(PID.TID 0000.0001) temp_EvPrRn = /* Temp. of Evap/Prec/R (UNSET=use local T)(oC)*/
(PID.TID 0000.0001)                 1.234567000000000E+05
(PID.TID 0000.0001)     ;
(PID.TID 0000.0001) salt_EvPrRn = /* Salin. of Evap/Prec/R (UNSET=use local S)(ppt)*/
(PID.TID 0000.0001)                 0.000000000000000E+00
(PID.TID 0000.0001)     ;
(PID.TID 0000.0001) convertFW2Salt = /* convert F.W. Flux to Salt Flux (-1=use local S)(ppt)*/
(PID.TID 0000.0001)                 3.500000000000000E+01
(PID.TID 0000.0001)     ;
(PID.TID 0000.0001) use3Dsolver = /* use 3-D pressure solver on/off flag */
(PID.TID 0000.0001)                   F
(PID.TID 0000.0001)     ;
(PID.TID 0000.0001) nonHydrostatic =  /* Non-Hydrostatic on/off flag */
(PID.TID 0000.0001)                   F
(PID.TID 0000.0001)     ;
(PID.TID 0000.0001) nh_Am2 = /* Non-Hydrostatic terms scaling factor */
(PID.TID 0000.0001)                 1.000000000000000E+00
(PID.TID 0000.0001)     ;
(PID.TID 0000.0001) quasiHydrostatic = /* Quasi-Hydrostatic on/off flag */
(PID.TID 0000.0001)                   F
(PID.TID 0000.0001)     ;
(PID.TID 0000.0001) momStepping =  /* Momentum equation on/off flag */
(PID.TID 0000.0001)                   T
(PID.TID 0000.0001)     ;
(PID.TID 0000.0001) vectorInvariantMomentum= /* Vector-Invariant Momentum on/off */
(PID.TID 0000.0001)                   F
(PID.TID 0000.0001)     ;
(PID.TID 0000.0001) momAdvection =  /* Momentum advection on/off flag */
(PID.TID 0000.0001)                   T
(PID.TID 0000.0001)     ;
(PID.TID 0000.0001) momViscosity =  /* Momentum viscosity on/off flag */
(PID.TID 0000.0001)                   T
(PID.TID 0000.0001)     ;
(PID.TID 0000.0001) momImplVertAdv =/* Momentum implicit vert. advection on/off*/
(PID.TID 0000.0001)                   F
(PID.TID 0000.0001)     ;
(PID.TID 0000.0001) implicitViscosity = /* Implicit viscosity on/off flag */
(PID.TID 0000.0001)                   F
(PID.TID 0000.0001)     ;
(PID.TID 0000.0001) metricTerms =  /* metric-Terms on/off flag */
(PID.TID 0000.0001)                   F
(PID.TID 0000.0001)     ;
(PID.TID 0000.0001) useNHMTerms = /* Non-Hydrostatic Metric-Terms on/off */
(PID.TID 0000.0001)                   F
(PID.TID 0000.0001)     ;
(PID.TID 0000.0001) useConstantF =  /* use Constant f0 Coriolis flag */
(PID.TID 0000.0001)                   F
(PID.TID 0000.0001)     ;
(PID.TID 0000.0001) useBetaPlaneF = /* use Beta-Plane Coriolis flag */
(PID.TID 0000.0001)                   T
(PID.TID 0000.0001)     ;
(PID.TID 0000.0001) useSphereF  =   /* use Spherical Coriolis flag */
(PID.TID 0000.0001)                   F
(PID.TID 0000.0001)     ;
(PID.TID 0000.0001) use3dCoriolis = /* 3-D Coriolis on/off flag */
(PID.TID 0000.0001)                   F
(PID.TID 0000.0001)     ;
(PID.TID 0000.0001) useCoriolis =  /* Coriolis on/off flag */
(PID.TID 0000.0001)                   T
(PID.TID 0000.0001)     ;
(PID.TID 0000.0001) useCDscheme =  /* CD scheme on/off flag */
(PID.TID 0000.0001)                   F
(PID.TID 0000.0001)     ;
(PID.TID 0000.0001) useJamartWetPoints= /* Coriolis WetPoints method flag */
(PID.TID 0000.0001)                   F
(PID.TID 0000.0001)     ;
(PID.TID 0000.0001) useJamartMomAdv= /* V.I. Non-linear terms Jamart flag */
(PID.TID 0000.0001)                   F
(PID.TID 0000.0001)     ;
(PID.TID 0000.0001) useAbsVorticity= /* Work with f+zeta in Coriolis */
(PID.TID 0000.0001)                   F
(PID.TID 0000.0001)     ;
(PID.TID 0000.0001) selectVortScheme= /* Scheme selector for Vorticity-Term */
(PID.TID 0000.0001)               123456789
(PID.TID 0000.0001)    = 0 : enstrophy (Shallow-Water Eq.) conserving scheme by Sadourny, JAS 75
(PID.TID 0000.0001)    = 1 : same as 0 with modified hFac
(PID.TID 0000.0001)    = 2 : energy conserving scheme (used by Sadourny in JAS 75 paper)
(PID.TID 0000.0001)    = 3 : energy (general) and enstrophy (2D, nonDiv.) conserving scheme
(PID.TID 0000.0001)          from Sadourny (Burridge & Haseler, ECMWF Rep.4, 1977)
(PID.TID 0000.0001)     ;
(PID.TID 0000.0001) upwindVorticity= /* Upwind bias vorticity flag */
(PID.TID 0000.0001)                   F
(PID.TID 0000.0001)     ;
(PID.TID 0000.0001) highOrderVorticity= /* High order interp. of vort. flag */
(PID.TID 0000.0001)                   F
(PID.TID 0000.0001)     ;
(PID.TID 0000.0001) upwindShear= /* Upwind vertical Shear advection flag */
(PID.TID 0000.0001)                   F
(PID.TID 0000.0001)     ;
(PID.TID 0000.0001) selectKEscheme= /* Kinetic Energy scheme selector */
(PID.TID 0000.0001)                       0
(PID.TID 0000.0001)     ;
(PID.TID 0000.0001) momForcing =  /* Momentum forcing on/off flag */
(PID.TID 0000.0001)                   T
(PID.TID 0000.0001)     ;
(PID.TID 0000.0001) momPressureForcing =  /* Momentum pressure term on/off flag */
(PID.TID 0000.0001)                   T
(PID.TID 0000.0001)     ;
(PID.TID 0000.0001) implicitIntGravWave= /* Implicit Internal Gravity Wave flag */
(PID.TID 0000.0001)                   F
(PID.TID 0000.0001)     ;
(PID.TID 0000.0001) staggerTimeStep =   /* Stagger time stepping on/off flag */
(PID.TID 0000.0001)                   F
(PID.TID 0000.0001)     ;
(PID.TID 0000.0001) multiDimAdvection =   /* enable/disable Multi-Dim Advection */
(PID.TID 0000.0001)                   T
(PID.TID 0000.0001)     ;
(PID.TID 0000.0001) useMultiDimAdvec =   /* Multi-Dim Advection is/is-not used */
(PID.TID 0000.0001)                   F
(PID.TID 0000.0001)     ;
(PID.TID 0000.0001) implicitDiffusion =/* Implicit Diffusion on/off flag */
(PID.TID 0000.0001)                   F
(PID.TID 0000.0001)     ;
(PID.TID 0000.0001) tempStepping =  /* Temperature equation on/off flag */
(PID.TID 0000.0001)                   T
(PID.TID 0000.0001)     ;
(PID.TID 0000.0001) tempAdvection=  /* Temperature advection on/off flag */
(PID.TID 0000.0001)                   T
(PID.TID 0000.0001)     ;
(PID.TID 0000.0001) tempImplVertAdv =/* Temp. implicit vert. advection on/off */
(PID.TID 0000.0001)                   F
(PID.TID 0000.0001)     ;
(PID.TID 0000.0001) tempForcing  =  /* Temperature forcing on/off flag */
(PID.TID 0000.0001)                   T
(PID.TID 0000.0001)     ;
(PID.TID 0000.0001) tempIsActiveTr = /* Temp. is a dynamically Active Tracer */
(PID.TID 0000.0001)                   T
(PID.TID 0000.0001)     ;
(PID.TID 0000.0001) saltStepping =  /* Salinity equation on/off flag */
(PID.TID 0000.0001)                   T
(PID.TID 0000.0001)     ;
(PID.TID 0000.0001) saltAdvection=  /* Salinity advection on/off flag */
(PID.TID 0000.0001)                   T
(PID.TID 0000.0001)     ;
(PID.TID 0000.0001) saltImplVertAdv =/* Sali. implicit vert. advection on/off */
(PID.TID 0000.0001)                   F
(PID.TID 0000.0001)     ;
(PID.TID 0000.0001) saltForcing  =  /* Salinity forcing on/off flag */
(PID.TID 0000.0001)                   T
(PID.TID 0000.0001)     ;
(PID.TID 0000.0001) saltIsActiveTr = /* Salt  is a dynamically Active Tracer */
(PID.TID 0000.0001)                   F
(PID.TID 0000.0001)     ;
(PID.TID 0000.0001)  readBinaryPrec = /* Precision used for reading binary files */
(PID.TID 0000.0001)                      64
(PID.TID 0000.0001)     ;
(PID.TID 0000.0001) writeBinaryPrec = /* Precision used for writing binary files */
(PID.TID 0000.0001)                      64
(PID.TID 0000.0001)     ;
(PID.TID 0000.0001)  globalFiles = /* write "global" (=not per tile) files */
(PID.TID 0000.0001)                   F
(PID.TID 0000.0001)     ;
(PID.TID 0000.0001)  useSingleCpuIO = /* only master MPI process does I/O */
(PID.TID 0000.0001)                   F
(PID.TID 0000.0001)     ;
(PID.TID 0000.0001)  debugMode  =  /* Debug Mode on/off flag */
(PID.TID 0000.0001)                   F
(PID.TID 0000.0001)     ;
(PID.TID 0000.0001)    debLevA  =  /* 1rst level of debugging */
(PID.TID 0000.0001)                       1
(PID.TID 0000.0001)     ;
(PID.TID 0000.0001)    debLevB  =  /* 2nd  level of debugging */
(PID.TID 0000.0001)                       2
(PID.TID 0000.0001)     ;
(PID.TID 0000.0001)  debugLevel =  /* select debugging level */
(PID.TID 0000.0001)                       1
(PID.TID 0000.0001)     ;
(PID.TID 0000.0001) //
(PID.TID 0000.0001) // Elliptic solver(s) paramters ( PARM02 in namelist )
(PID.TID 0000.0001) //
(PID.TID 0000.0001) cg2dMaxIters =   /* Upper limit on 2d con. grad iterations  */
(PID.TID 0000.0001)                     100
(PID.TID 0000.0001)     ;
(PID.TID 0000.0001) cg2dChkResFreq =   /* 2d con. grad convergence test frequency */
(PID.TID 0000.0001)                       1
(PID.TID 0000.0001)     ;
(PID.TID 0000.0001) cg2dTargetResidual =   /* 2d con. grad target residual  */
(PID.TID 0000.0001)                 1.000000000000000E-13
(PID.TID 0000.0001)     ;
(PID.TID 0000.0001) cg2dTargetResWunit =   /* CG2d target residual [W units] */
(PID.TID 0000.0001)                -1.000000000000000E+00
(PID.TID 0000.0001)     ;
(PID.TID 0000.0001) cg2dPreCondFreq =   /* Freq. for updating cg2d preconditioner */
(PID.TID 0000.0001)                       1
(PID.TID 0000.0001)     ;
(PID.TID 0000.0001) //
(PID.TID 0000.0001) // Time stepping paramters ( PARM03 in namelist )
(PID.TID 0000.0001) //
(PID.TID 0000.0001) deltaTmom =   /* Momentum equation timestep ( s ) */
(PID.TID 0000.0001)                 3.600000000000000E+03
(PID.TID 0000.0001)     ;
(PID.TID 0000.0001) deltaTfreesurf =   /* FreeSurface equation timestep ( s ) */
(PID.TID 0000.0001)                 3.600000000000000E+03
(PID.TID 0000.0001)     ;
(PID.TID 0000.0001) dTtracerLev =   /* Tracer equation timestep ( s ) */
(PID.TID 0000.0001)     4 @  3.600000000000000E+03              /* K =  1:  4 */
(PID.TID 0000.0001)     ;
(PID.TID 0000.0001) deltaTClock  =   /* Model clock timestep ( s ) */
(PID.TID 0000.0001)                 3.600000000000000E+03
(PID.TID 0000.0001)     ;
(PID.TID 0000.0001) cAdjFreq =   /* Convective adjustment interval ( s ) */
(PID.TID 0000.0001)                 0.000000000000000E+00
(PID.TID 0000.0001)     ;
(PID.TID 0000.0001) momForcingOutAB = /* =1: take Momentum Forcing out of Adams-Bash. stepping */
(PID.TID 0000.0001)                       0
(PID.TID 0000.0001)     ;
(PID.TID 0000.0001) tracForcingOutAB = /* =1: take T,S,pTr Forcing out of Adams-Bash. stepping */
(PID.TID 0000.0001)                       0
(PID.TID 0000.0001)     ;
(PID.TID 0000.0001) momDissip_In_AB = /* put Dissipation Tendency in Adams-Bash. stepping */
(PID.TID 0000.0001)                   T
(PID.TID 0000.0001)     ;
(PID.TID 0000.0001) doAB_onGtGs = /* apply AB on Tendencies (rather than on T,S)*/
(PID.TID 0000.0001)                   T
(PID.TID 0000.0001)     ;
(PID.TID 0000.0001) abEps =   /* Adams-Bashforth-2 stabilizing weight */
(PID.TID 0000.0001)                 1.000000000000000E-01
(PID.TID 0000.0001)     ;
(PID.TID 0000.0001) pickupStrictlyMatch= /* stop if pickup do not strictly match */
(PID.TID 0000.0001)                   T
(PID.TID 0000.0001)     ;
(PID.TID 0000.0001) nIter0 =   /* Run starting timestep number  */
(PID.TID 0000.0001)                       0
(PID.TID 0000.0001)     ;
(PID.TID 0000.0001) nTimeSteps =   /* Number of timesteps */
(PID.TID 0000.0001)                     100
(PID.TID 0000.0001)     ;
(PID.TID 0000.0001) baseTime =   /* Model base time ( s ). */
(PID.TID 0000.0001)                 0.000000000000000E+00
(PID.TID 0000.0001)     ;
(PID.TID 0000.0001) startTime =   /* Run start time ( s ). */
(PID.TID 0000.0001)                 0.000000000000000E+00
(PID.TID 0000.0001)     ;
(PID.TID 0000.0001) endTime =   /* Integration ending time ( s ). */
(PID.TID 0000.0001)                 3.600000000000000E+05
(PID.TID 0000.0001)     ;
(PID.TID 0000.0001) pChkPtFreq =   /* Permanent restart/checkpoint file interval ( s ). */
(PID.TID 0000.0001)                 7.776000000000000E+06
(PID.TID 0000.0001)     ;
(PID.TID 0000.0001) chkPtFreq =   /* Rolling restart/checkpoint file interval ( s ). */
(PID.TID 0000.0001)                 0.000000000000000E+00
(PID.TID 0000.0001)     ;
(PID.TID 0000.0001) pickup_write_mdsio =   /* Model IO flag. */
(PID.TID 0000.0001)                   T
(PID.TID 0000.0001)     ;
(PID.TID 0000.0001) pickup_read_mdsio =   /* Model IO flag. */
(PID.TID 0000.0001)                   T
(PID.TID 0000.0001)     ;
(PID.TID 0000.0001) pickup_write_mnc =   /* Model IO flag. */
(PID.TID 0000.0001)                   F
(PID.TID 0000.0001)     ;
(PID.TID 0000.0001) pickup_read_mnc =   /* Model IO flag. */
(PID.TID 0000.0001)                   F
(PID.TID 0000.0001)     ;
(PID.TID 0000.0001) pickup_write_immed =   /* Model IO flag. */
(PID.TID 0000.0001)                   F
(PID.TID 0000.0001)     ;
(PID.TID 0000.0001) writePickupAtEnd =   /* Model IO flag. */
(PID.TID 0000.0001)                   T
(PID.TID 0000.0001)     ;
(PID.TID 0000.0001) dumpFreq =   /* Model state write out interval ( s ). */
(PID.TID 0000.0001)                 0.000000000000000E+00
(PID.TID 0000.0001)     ;
(PID.TID 0000.0001) dumpInitAndLast= /* write out Initial & Last iter. model state */
(PID.TID 0000.0001)                   T
(PID.TID 0000.0001)     ;
(PID.TID 0000.0001) snapshot_mdsio =   /* Model IO flag. */
(PID.TID 0000.0001)                   T
(PID.TID 0000.0001)     ;
(PID.TID 0000.0001) snapshot_mnc =   /* Model IO flag. */
(PID.TID 0000.0001)                   F
(PID.TID 0000.0001)     ;
(PID.TID 0000.0001) monitorFreq =   /* Monitor output interval ( s ). */
(PID.TID 0000.0001)                 1.000000000000000E+00
(PID.TID 0000.0001)     ;
(PID.TID 0000.0001) monitorSelect = /* select group of variables to monitor */
(PID.TID 0000.0001)                       3
(PID.TID 0000.0001)     ;
(PID.TID 0000.0001) monitor_stdio =   /* Model IO flag. */
(PID.TID 0000.0001)                   T
(PID.TID 0000.0001)     ;
(PID.TID 0000.0001) monitor_mnc =   /* Model IO flag. */
(PID.TID 0000.0001)                   F
(PID.TID 0000.0001)     ;
(PID.TID 0000.0001) externForcingPeriod =   /* forcing period (s) */
(PID.TID 0000.0001)                 0.000000000000000E+00
(PID.TID 0000.0001)     ;
(PID.TID 0000.0001) externForcingCycle =   /* period of the cyle (s). */
(PID.TID 0000.0001)                 0.000000000000000E+00
(PID.TID 0000.0001)     ;
(PID.TID 0000.0001) tauThetaClimRelax =   /* relaxation time scale (s) */
(PID.TID 0000.0001)                 0.000000000000000E+00
(PID.TID 0000.0001)     ;
(PID.TID 0000.0001) tauSaltClimRelax =   /* relaxation time scale (s) */
(PID.TID 0000.0001)                 0.000000000000000E+00
(PID.TID 0000.0001)     ;
(PID.TID 0000.0001) latBandClimRelax =   /* max. Lat. where relaxation */
(PID.TID 0000.0001)                 3.000000000000000E+06
(PID.TID 0000.0001)     ;
(PID.TID 0000.0001) //
(PID.TID 0000.0001) // Gridding paramters ( PARM04 in namelist )
(PID.TID 0000.0001) //
(PID.TID 0000.0001) usingCartesianGrid = /* Cartesian coordinates flag ( True/False ) */
(PID.TID 0000.0001)                   T
(PID.TID 0000.0001)     ;
(PID.TID 0000.0001) usingCylindricalGrid = /* Cylindrical coordinates flag ( True/False ) */
(PID.TID 0000.0001)                   F
(PID.TID 0000.0001)     ;
(PID.TID 0000.0001) usingSphericalPolarGrid = /* Spherical coordinates flag ( True/False ) */
(PID.TID 0000.0001)                   F
(PID.TID 0000.0001)     ;
(PID.TID 0000.0001) usingCurvilinearGrid = /* Curvilinear coordinates flag ( True/False ) */
(PID.TID 0000.0001)                   F
(PID.TID 0000.0001)     ;
(PID.TID 0000.0001) Ro_SeaLevel = /* r(1) ( units of r ==  m ) */
(PID.TID 0000.0001)                 0.000000000000000E+00
(PID.TID 0000.0001)     ;
(PID.TID 0000.0001) rkSign =   /* index orientation relative to vertical coordinate */
(PID.TID 0000.0001)                -1.000000000000000E+00
(PID.TID 0000.0001)     ;
(PID.TID 0000.0001) gravitySign = /* gravity orientation relative to vertical coordinate */
(PID.TID 0000.0001)                -1.000000000000000E+00
(PID.TID 0000.0001)     ;
(PID.TID 0000.0001) mass2rUnit = /* convert mass per unit area [kg/m2] to r-units [m] */
(PID.TID 0000.0001)                 1.000200040008002E-03
(PID.TID 0000.0001)     ;
(PID.TID 0000.0001) rUnit2mass = /* convert r-units [m] to mass per unit area [kg/m2] */
(PID.TID 0000.0001)                 9.998000000000000E+02
(PID.TID 0000.0001)     ;
(PID.TID 0000.0001) drC =   /* C spacing ( units of r ) */
(PID.TID 0000.0001)                 5.000000000000000E+01,      /* K =  1 */
(PID.TID 0000.0001)                 2.500000000000000E+02,      /* K =  2 */
(PID.TID 0000.0001)                 4.500000000000000E+02,      /* K =  3 */
(PID.TID 0000.0001)                 2.750000000000000E+03       /* K =  4 */
(PID.TID 0000.0001)     ;
(PID.TID 0000.0001) drF =   /* W spacing ( units of r ) */
(PID.TID 0000.0001)                 1.000000000000000E+02,      /* K =  1 */
(PID.TID 0000.0001)                 4.000000000000000E+02,      /* K =  2 */
(PID.TID 0000.0001)                 5.000000000000000E+02,      /* K =  3 */
(PID.TID 0000.0001)                 5.000000000000000E+03       /* K =  4 */
(PID.TID 0000.0001)     ;
(PID.TID 0000.0001) delX =   /* U spacing ( m - cartesian, degrees - spherical ) */
(PID.TID 0000.0001)     5 @  2.000000000000000E+05              /* I =  1:  5 */
(PID.TID 0000.0001)     ;
(PID.TID 0000.0001) delY =   /* V spacing ( m - cartesian, degrees - spherical ) */
(PID.TID 0000.0001)     5 @  2.000000000000000E+05              /* J =  1:  5 */
(PID.TID 0000.0001)     ;
(PID.TID 0000.0001) phiMin =    /* South edge (ignored - cartesian, degrees - spherical ) */
(PID.TID 0000.0001)                 0.000000000000000E+00
(PID.TID 0000.0001)     ;
(PID.TID 0000.0001) thetaMin =    /* West edge ( ignored - cartesian, degrees - spherical ) */
(PID.TID 0000.0001)                 0.000000000000000E+00
(PID.TID 0000.0001)     ;
(PID.TID 0000.0001) rSphere =  /* Radius ( ignored - cartesian, m - spherical ) */
(PID.TID 0000.0001)                 6.370000000000000E+06
(PID.TID 0000.0001)     ;
(PID.TID 0000.0001) deepAtmosphere = /* Deep/Shallow Atmosphere flag (True/False) */
(PID.TID 0000.0001)                   F
(PID.TID 0000.0001)     ;
(PID.TID 0000.0001) xcoord =   /* P-point X coord ( m - cartesian, degrees - spherical ) */
(PID.TID 0000.0001)                 1.000000000000000E+05,      /* I =  1 */
(PID.TID 0000.0001)                 3.000000000000000E+05,      /* I =  2 */
(PID.TID 0000.0001)                 5.000000000000000E+05,      /* I =  3 */
(PID.TID 0000.0001)                 7.000000000000000E+05,      /* I =  4 */
(PID.TID 0000.0001)                 9.000000000000000E+05       /* I =  5 */
(PID.TID 0000.0001)     ;
(PID.TID 0000.0001) ycoord =   /* P-point Y coord ( m - cartesian, degrees - spherical ) */
(PID.TID 0000.0001)                 1.000000000000000E+05,      /* J =  1 */
(PID.TID 0000.0001)                 3.000000000000000E+05,      /* J =  2 */
(PID.TID 0000.0001)                 5.000000000000000E+05,      /* J =  3 */
(PID.TID 0000.0001)                 7.000000000000000E+05,      /* J =  4 */
(PID.TID 0000.0001)                 9.000000000000000E+05       /* J =  5 */
(PID.TID 0000.0001)     ;
(PID.TID 0000.0001) rcoord =   /* P-point R coordinate (  units of r ) */
(PID.TID 0000.0001)                -5.000000000000000E+01,      /* K =  1 */
(PID.TID 0000.0001)                -3.000000000000000E+02,      /* K =  2 */
(PID.TID 0000.0001)                -7.500000000000000E+02,      /* K =  3 */
(PID.TID 0000.0001)                -3.500000000000000E+03       /* K =  4 */
(PID.TID 0000.0001)     ;
(PID.TID 0000.0001) rF =   /* W-Interf. R coordinate (  units of r ) */
(PID.TID 0000.0001)                 0.000000000000000E+00,      /* K =  1 */
(PID.TID 0000.0001)                -1.000000000000000E+02,      /* K =  2 */
(PID.TID 0000.0001)                -5.000000000000000E+02,      /* K =  3 */
(PID.TID 0000.0001)                -1.000000000000000E+03,      /* K =  4 */
(PID.TID 0000.0001)                -6.000000000000000E+03       /* K =  5 */
(PID.TID 0000.0001)     ;
(PID.TID 0000.0001) deepFacC = /* deep-model grid factor @ cell-Center (-) */
(PID.TID 0000.0001)     4 @  1.000000000000000E+00              /* K =  1:  4 */
(PID.TID 0000.0001)     ;
(PID.TID 0000.0001) deepFacF = /* deep-model grid factor @ W-Interface (-) */
(PID.TID 0000.0001)     5 @  1.000000000000000E+00              /* K =  1:  5 */
(PID.TID 0000.0001)     ;
(PID.TID 0000.0001) rVel2wUnit = /* convert units: rVel -> wSpeed (=1 if z-coord)*/
(PID.TID 0000.0001)     5 @  1.000000000000000E+00              /* K =  1:  5 */
(PID.TID 0000.0001)     ;
(PID.TID 0000.0001) wUnit2rVel = /* convert units: wSpeed -> rVel (=1 if z-coord)*/
(PID.TID 0000.0001)     5 @  1.000000000000000E+00              /* K =  1:  5 */
(PID.TID 0000.0001)     ;
(PID.TID 0000.0001) dBdrRef = /* Vertical gradient of reference boyancy [(m/s/r)^2)] */
(PID.TID 0000.0001)     4 @  0.000000000000000E+00              /* K =  1:  4 */
(PID.TID 0000.0001)     ;
(PID.TID 0000.0001) rotateGrid = /* use rotated grid ( True/False ) */
(PID.TID 0000.0001)                   F
(PID.TID 0000.0001)     ;
(PID.TID 0000.0001) phiEuler = /* Euler angle, rotation about original z-coordinate [rad] */
(PID.TID 0000.0001)                 0.000000000000000E+00
(PID.TID 0000.0001)     ;
(PID.TID 0000.0001) thetaEuler = /* Euler angle, rotation about new x-coordinate [rad] */
(PID.TID 0000.0001)                 0.000000000000000E+00
(PID.TID 0000.0001)     ;
(PID.TID 0000.0001) psiEuler = /* Euler angle, rotation about new z-coordinate [rad] */
(PID.TID 0000.0001)                 0.000000000000000E+00
(PID.TID 0000.0001)     ;
(PID.TID 0000.0001) dxF =  /* dxF(:,1,:,1) ( units: m ) */
(PID.TID 0000.0001)     5 @  2.000000000000000E+05              /* I =  1:  5 */
(PID.TID 0000.0001)     ;
(PID.TID 0000.0001) dxF =  /* dxF(1,:,1,:) ( units: m ) */
(PID.TID 0000.0001)     5 @  2.000000000000000E+05              /* J =  1:  5 */
(PID.TID 0000.0001)     ;
(PID.TID 0000.0001) dyF =  /* dyF(:,1,:,1) ( units: m ) */
(PID.TID 0000.0001)     5 @  2.000000000000000E+05              /* I =  1:  5 */
(PID.TID 0000.0001)     ;
(PID.TID 0000.0001) dyF =  /* dyF(1,:,1,:) ( units: m ) */
(PID.TID 0000.0001)     5 @  2.000000000000000E+05              /* J =  1:  5 */
(PID.TID 0000.0001)     ;
(PID.TID 0000.0001) dxG =  /* dxG(:,1,:,1) ( units: m ) */
(PID.TID 0000.0001)     5 @  2.000000000000000E+05              /* I =  1:  5 */
(PID.TID 0000.0001)     ;
(PID.TID 0000.0001) dxG =  /* dxG(1,:,1,:) ( units: m ) */
(PID.TID 0000.0001)     5 @  2.000000000000000E+05              /* J =  1:  5 */
(PID.TID 0000.0001)     ;
(PID.TID 0000.0001) dyG =  /* dyG(:,1,:,1) ( units: m ) */
(PID.TID 0000.0001)     5 @  2.000000000000000E+05              /* I =  1:  5 */
(PID.TID 0000.0001)     ;
(PID.TID 0000.0001) dyG =  /* dyG(1,:,1,:) ( units: m ) */
(PID.TID 0000.0001)     5 @  2.000000000000000E+05              /* J =  1:  5 */
(PID.TID 0000.0001)     ;
(PID.TID 0000.0001) dxC =  /* dxC(:,1,:,1) ( units: m ) */
(PID.TID 0000.0001)     5 @  2.000000000000000E+05              /* I =  1:  5 */
(PID.TID 0000.0001)     ;
(PID.TID 0000.0001) dxC =  /* dxC(1,:,1,:) ( units: m ) */
(PID.TID 0000.0001)     5 @  2.000000000000000E+05              /* J =  1:  5 */
(PID.TID 0000.0001)     ;
(PID.TID 0000.0001) dyC =  /* dyC(:,1,:,1) ( units: m ) */
(PID.TID 0000.0001)     5 @  2.000000000000000E+05              /* I =  1:  5 */
(PID.TID 0000.0001)     ;
(PID.TID 0000.0001) dyC =  /* dyC(1,:,1,:) ( units: m ) */
(PID.TID 0000.0001)     5 @  2.000000000000000E+05              /* J =  1:  5 */
(PID.TID 0000.0001)     ;
(PID.TID 0000.0001) dxV =  /* dxV(:,1,:,1) ( units: m ) */
(PID.TID 0000.0001)     5 @  2.000000000000000E+05              /* I =  1:  5 */
(PID.TID 0000.0001)     ;
(PID.TID 0000.0001) dxV =  /* dxV(1,:,1,:) ( units: m ) */
(PID.TID 0000.0001)     5 @  2.000000000000000E+05              /* J =  1:  5 */
(PID.TID 0000.0001)     ;
(PID.TID 0000.0001) dyU =  /* dyU(:,1,:,1) ( units: m ) */
(PID.TID 0000.0001)     5 @  2.000000000000000E+05              /* I =  1:  5 */
(PID.TID 0000.0001)     ;
(PID.TID 0000.0001) dyU =  /* dyU(1,:,1,:) ( units: m ) */
(PID.TID 0000.0001)     5 @  2.000000000000000E+05              /* J =  1:  5 */
(PID.TID 0000.0001)     ;
(PID.TID 0000.0001) rA  =  /* rA (:,1,:,1) ( units: m^2 ) */
(PID.TID 0000.0001)     5 @  4.000000000000000E+10              /* I =  1:  5 */
(PID.TID 0000.0001)     ;
(PID.TID 0000.0001) rA  =  /* rA (1,:,1,:) ( units: m^2 ) */
(PID.TID 0000.0001)     5 @  4.000000000000000E+10              /* J =  1:  5 */
(PID.TID 0000.0001)     ;
(PID.TID 0000.0001) rAw =  /* rAw(:,1,:,1) ( units: m^2 ) */
(PID.TID 0000.0001)     5 @  4.000000000000000E+10              /* I =  1:  5 */
(PID.TID 0000.0001)     ;
(PID.TID 0000.0001) rAw =  /* rAw(1,:,1,:) ( units: m^2 ) */
(PID.TID 0000.0001)     5 @  4.000000000000000E+10              /* J =  1:  5 */
(PID.TID 0000.0001)     ;
(PID.TID 0000.0001) rAs =  /* rAs(:,1,:,1) ( units: m^2 ) */
(PID.TID 0000.0001)     5 @  4.000000000000000E+10              /* I =  1:  5 */
(PID.TID 0000.0001)     ;
(PID.TID 0000.0001) rAs =  /* rAs(1,:,1,:) ( units: m^2 ) */
(PID.TID 0000.0001)     5 @  4.000000000000000E+10              /* J =  1:  5 */
(PID.TID 0000.0001)     ;
(PID.TID 0000.0001) globalArea = /* Integrated horizontal Area (m^2) */
(PID.TID 0000.0001)                 1.000000000000000E+12
(PID.TID 0000.0001)     ;
(PID.TID 0000.0001) // =======================================================
(PID.TID 0000.0001) // End of Model config. summary
(PID.TID 0000.0001) // =======================================================
(PID.TID 0000.0001) 
(PID.TID 0000.0001) == Packages configuration : Check & print summary ==
(PID.TID 0000.0001) 
(PID.TID 0000.0001) GAD_CHECK: #define ALLOW_GENERIC_ADVDIFF
(PID.TID 0000.0001) CTRL_CHECK: ctrl package
(PID.TID 0000.0001) COST_CHECK: cost package
(PID.TID 0000.0001) CTRL_CHECK: ctrl package
(PID.TID 0000.0001) // =======================================================
(PID.TID 0000.0001) // CONFIG_CHECK : Normal End
(PID.TID 0000.0001) // =======================================================
(PID.TID 0000.0001) 
(PID.TID 0000.0001)  MDS_READ_FIELD: opening global file: noWalls.bigRidge
(PID.TID 0000.0001) // =======================================================
(PID.TID 0000.0001) // Field Model R_low (ini_masks_etc) at iteration          1
(PID.TID 0000.0001) // CMIN =         -5.000000000000000E+03
(PID.TID 0000.0001) // CMAX =         -2.000000000000000E+03
(PID.TID 0000.0001) // CINT =          1.111111111111111E+02
(PID.TID 0000.0001) // SYMBOLS (CMIN->CMAX): -abcdefghijklmnopqrstuvwxyz+
(PID.TID 0000.0001) //                  0.0: .
(PID.TID 0000.0001) // RANGE I (Lo:Hi:Step):(  -1:   7:   1)
(PID.TID 0000.0001) // RANGE J (Lo:Hi:Step):(   7:  -1:  -1)
(PID.TID 0000.0001) // RANGE K (Lo:Hi:Step):(   1:   1:   1)
(PID.TID 0000.0001) // =======================================================
(PID.TID 0000.0001) K =   1
(PID.TID 0000.0001) //
(PID.TID 0000.0001) // |--J--|101234567
(PID.TID 0000.0001) //      7 ----+----
(PID.TID 0000.0001) //      6 ----+----
(PID.TID 0000.0001) //      5 ----+----
(PID.TID 0000.0001) //      4 ----+----
(PID.TID 0000.0001) //      3 ----+----
(PID.TID 0000.0001) //      2 ----+----
(PID.TID 0000.0001) //      1 ----+----
(PID.TID 0000.0001) //      0 ----+----
(PID.TID 0000.0001) //     -1 ----+----
(PID.TID 0000.0001) // =======================================================
(PID.TID 0000.0001) // END OF FIELD                                          =
(PID.TID 0000.0001) // =======================================================
(PID.TID 0000.0001) 
(PID.TID 0000.0001) // =======================================================
(PID.TID 0000.0001) // Field Model Ro_surf (ini_masks_etc) at iteration          1
(PID.TID 0000.0001) // CMIN =          1.000000000000000E+32
(PID.TID 0000.0001) // CMAX =         -1.000000000000000E+32
(PID.TID 0000.0001) // CINT =          0.000000000000000E+00
(PID.TID 0000.0001) // SYMBOLS (CMIN->CMAX): -abcdefghijklmnopqrstuvwxyz+
(PID.TID 0000.0001) //                  0.0: .
(PID.TID 0000.0001) // RANGE I (Lo:Hi:Step):(  -1:   7:   1)
(PID.TID 0000.0001) // RANGE J (Lo:Hi:Step):(   7:  -1:  -1)
(PID.TID 0000.0001) // RANGE K (Lo:Hi:Step):(   1:   1:   1)
(PID.TID 0000.0001) // =======================================================
(PID.TID 0000.0001) // =======================================================
(PID.TID 0000.0001) // END OF FIELD                                          =
(PID.TID 0000.0001) // =======================================================
(PID.TID 0000.0001) 
(PID.TID 0000.0001) // =======================================================
(PID.TID 0000.0001) // Field hFacC at iteration          1
(PID.TID 0000.0001) // CMIN =          1.000000000000000E+00
(PID.TID 0000.0001) // CMAX =          1.000000000000000E+00
(PID.TID 0000.0001) // CINT =          0.000000000000000E+00
(PID.TID 0000.0001) // SYMBOLS (CMIN->CMAX): -abcdefghijklmnopqrstuvwxyz+
(PID.TID 0000.0001) //                  0.0: .
(PID.TID 0000.0001) // RANGE I (Lo:Hi:Step):(  -1:   7:   1)
(PID.TID 0000.0001) // RANGE J (Lo:Hi:Step):(   7:  -1:  -1)
(PID.TID 0000.0001) // RANGE K (Lo:Hi:Step):(   1:   1:   1)
(PID.TID 0000.0001) // =======================================================
(PID.TID 0000.0001) // =======================================================
(PID.TID 0000.0001) // END OF FIELD                                          =
(PID.TID 0000.0001) // =======================================================
(PID.TID 0000.0001) 
(PID.TID 0000.0001) // =======================================================
(PID.TID 0000.0001) // Field hFacW at iteration          1
(PID.TID 0000.0001) // CMIN =          1.000000000000000E+00
(PID.TID 0000.0001) // CMAX =          1.000000000000000E+00
(PID.TID 0000.0001) // CINT =          0.000000000000000E+00
(PID.TID 0000.0001) // SYMBOLS (CMIN->CMAX): -abcdefghijklmnopqrstuvwxyz+
(PID.TID 0000.0001) //                  0.0: .
(PID.TID 0000.0001) // RANGE I (Lo:Hi:Step):(  -1:   7:   1)
(PID.TID 0000.0001) // RANGE J (Lo:Hi:Step):(   7:  -1:  -1)
(PID.TID 0000.0001) // RANGE K (Lo:Hi:Step):(   1:   1:   1)
(PID.TID 0000.0001) // =======================================================
(PID.TID 0000.0001) // =======================================================
(PID.TID 0000.0001) // END OF FIELD                                          =
(PID.TID 0000.0001) // =======================================================
(PID.TID 0000.0001) 
(PID.TID 0000.0001) // =======================================================
(PID.TID 0000.0001) // Field hFacS at iteration          1
(PID.TID 0000.0001) // CMIN =          1.000000000000000E+00
(PID.TID 0000.0001) // CMAX =          1.000000000000000E+00
(PID.TID 0000.0001) // CINT =          0.000000000000000E+00
(PID.TID 0000.0001) // SYMBOLS (CMIN->CMAX): -abcdefghijklmnopqrstuvwxyz+
(PID.TID 0000.0001) //                  0.0: .
(PID.TID 0000.0001) // RANGE I (Lo:Hi:Step):(  -1:   7:   1)
(PID.TID 0000.0001) // RANGE J (Lo:Hi:Step):(   7:  -1:  -1)
(PID.TID 0000.0001) // RANGE K (Lo:Hi:Step):(   1:   1:   1)
(PID.TID 0000.0001) // =======================================================
(PID.TID 0000.0001) // =======================================================
(PID.TID 0000.0001) // END OF FIELD                                          =
(PID.TID 0000.0001) // =======================================================
(PID.TID 0000.0001) 
(PID.TID 0000.0001) %MON fCori_max                    =  -1.0735540000000E-04
(PID.TID 0000.0001) %MON fCori_min                    =  -1.1783060000000E-04
(PID.TID 0000.0001) %MON fCori_mean                   =  -1.1259300000000E-04
(PID.TID 0000.0001) %MON fCori_sd                     =   3.7035424771427E-06
(PID.TID 0000.0001) %MON fCoriG_max                   =  -1.0866480000000E-04
(PID.TID 0000.0001) %MON fCoriG_min                   =  -1.1914000000000E-04
(PID.TID 0000.0001) %MON fCoriG_mean                  =  -1.1390240000000E-04
(PID.TID 0000.0001) %MON fCoriG_sd                    =   3.7035424771427E-06
(PID.TID 0000.0001) %MON fCoriCos_max                 =   0.0000000000000E+00
(PID.TID 0000.0001) %MON fCoriCos_min                 =   0.0000000000000E+00
(PID.TID 0000.0001) %MON fCoriCos_mean                =   0.0000000000000E+00
(PID.TID 0000.0001) %MON fCoriCos_sd                  =   0.0000000000000E+00
(PID.TID 0000.0001) INI_CG2D: CG2D normalisation factor =  1.9999999999999996E-04
(PID.TID 0000.0001) 
                     ctrl_depth_ini: ctrl update R_low,
                                     adding the control vector.
(PID.TID 0000.0001)  MDS_READ_FIELD: opening file: xx_depth.0000000000.001.001.data
(PID.TID 0000.0001) // =======================================================
(PID.TID 0000.0001) // Field Model Ro_surf (update_masks_etc) at iteration          1
(PID.TID 0000.0001) // CMIN =          1.000000000000000E+32
(PID.TID 0000.0001) // CMAX =         -1.000000000000000E+32
(PID.TID 0000.0001) // CINT =          0.000000000000000E+00
(PID.TID 0000.0001) // SYMBOLS (CMIN->CMAX): -abcdefghijklmnopqrstuvwxyz+
(PID.TID 0000.0001) //                  0.0: .
(PID.TID 0000.0001) // RANGE I (Lo:Hi:Step):(  -1:   7:   1)
(PID.TID 0000.0001) // RANGE J (Lo:Hi:Step):(   7:  -1:  -1)
(PID.TID 0000.0001) // RANGE K (Lo:Hi:Step):(   1:   1:   1)
(PID.TID 0000.0001) // =======================================================
(PID.TID 0000.0001) // =======================================================
(PID.TID 0000.0001) // END OF FIELD                                          =
(PID.TID 0000.0001) // =======================================================
(PID.TID 0000.0001) 
(PID.TID 0000.0001) // =======================================================
(PID.TID 0000.0001) // Field hFacC at iteration          1
(PID.TID 0000.0001) // CMIN =          1.000000000000000E+00
(PID.TID 0000.0001) // CMAX =          1.000000000000000E+00
(PID.TID 0000.0001) // CINT =          0.000000000000000E+00
(PID.TID 0000.0001) // SYMBOLS (CMIN->CMAX): -abcdefghijklmnopqrstuvwxyz+
(PID.TID 0000.0001) //                  0.0: .
(PID.TID 0000.0001) // RANGE I (Lo:Hi:Step):(  -1:   7:   1)
(PID.TID 0000.0001) // RANGE J (Lo:Hi:Step):(   7:  -1:  -1)
(PID.TID 0000.0001) // RANGE K (Lo:Hi:Step):(   1:   1:   1)
(PID.TID 0000.0001) // =======================================================
(PID.TID 0000.0001) // =======================================================
(PID.TID 0000.0001) // END OF FIELD                                          =
(PID.TID 0000.0001) // =======================================================
(PID.TID 0000.0001) 
(PID.TID 0000.0001) // =======================================================
(PID.TID 0000.0001) // Field hFacW at iteration          1
(PID.TID 0000.0001) // CMIN =          1.000000000000000E+00
(PID.TID 0000.0001) // CMAX =          1.000000000000000E+00
(PID.TID 0000.0001) // CINT =          0.000000000000000E+00
(PID.TID 0000.0001) // SYMBOLS (CMIN->CMAX): -abcdefghijklmnopqrstuvwxyz+
(PID.TID 0000.0001) //                  0.0: .
(PID.TID 0000.0001) // RANGE I (Lo:Hi:Step):(  -1:   7:   1)
(PID.TID 0000.0001) // RANGE J (Lo:Hi:Step):(   7:  -1:  -1)
(PID.TID 0000.0001) // RANGE K (Lo:Hi:Step):(   1:   1:   1)
(PID.TID 0000.0001) // =======================================================
(PID.TID 0000.0001) // =======================================================
(PID.TID 0000.0001) // END OF FIELD                                          =
(PID.TID 0000.0001) // =======================================================
(PID.TID 0000.0001) 
(PID.TID 0000.0001) // =======================================================
(PID.TID 0000.0001) // Field hFacS at iteration          1
(PID.TID 0000.0001) // CMIN =          1.000000000000000E+00
(PID.TID 0000.0001) // CMAX =          1.000000000000000E+00
(PID.TID 0000.0001) // CINT =          0.000000000000000E+00
(PID.TID 0000.0001) // SYMBOLS (CMIN->CMAX): -abcdefghijklmnopqrstuvwxyz+
(PID.TID 0000.0001) //                  0.0: .
(PID.TID 0000.0001) // RANGE I (Lo:Hi:Step):(  -1:   7:   1)
(PID.TID 0000.0001) // RANGE J (Lo:Hi:Step):(   7:  -1:  -1)
(PID.TID 0000.0001) // RANGE K (Lo:Hi:Step):(   1:   1:   1)
(PID.TID 0000.0001) // =======================================================
(PID.TID 0000.0001) // =======================================================
(PID.TID 0000.0001) // END OF FIELD                                          =
(PID.TID 0000.0001) // =======================================================
(PID.TID 0000.0001) 
(PID.TID 0000.0001) // =======================================================
(PID.TID 0000.0001) // Field Initial Temperature at iteration          1
(PID.TID 0000.0001) // CMIN =          4.000000000000000E+00
(PID.TID 0000.0001) // CMAX =          4.000000000000000E+00
(PID.TID 0000.0001) // CINT =          0.000000000000000E+00
(PID.TID 0000.0001) // SYMBOLS (CMIN->CMAX): -abcdefghijklmnopqrstuvwxyz+
(PID.TID 0000.0001) //                  0.0: .
(PID.TID 0000.0001) // RANGE I (Lo:Hi:Step):(   1:   5:   1)
(PID.TID 0000.0001) // RANGE J (Lo:Hi:Step):(   5:   1:  -1)
(PID.TID 0000.0001) // RANGE K (Lo:Hi:Step):(   1:   1:   1)
(PID.TID 0000.0001) // =======================================================
(PID.TID 0000.0001) // =======================================================
(PID.TID 0000.0001) // END OF FIELD                                          =
(PID.TID 0000.0001) // =======================================================
(PID.TID 0000.0001) 
(PID.TID 0000.0001) // =======================================================
(PID.TID 0000.0001) // Field Initial Salinity at iteration          1
(PID.TID 0000.0001) // CMIN =          3.500000000000000E+01
(PID.TID 0000.0001) // CMAX =          3.500000000000000E+01
(PID.TID 0000.0001) // CINT =          0.000000000000000E+00
(PID.TID 0000.0001) // SYMBOLS (CMIN->CMAX): -abcdefghijklmnopqrstuvwxyz+
(PID.TID 0000.0001) //                  0.0: .
(PID.TID 0000.0001) // RANGE I (Lo:Hi:Step):(   1:   5:   1)
(PID.TID 0000.0001) // RANGE J (Lo:Hi:Step):(   5:   1:  -1)
(PID.TID 0000.0001) // RANGE K (Lo:Hi:Step):(   1:   1:   1)
(PID.TID 0000.0001) // =======================================================
(PID.TID 0000.0001) // =======================================================
(PID.TID 0000.0001) // END OF FIELD                                          =
(PID.TID 0000.0001) // =======================================================
(PID.TID 0000.0001) 
(PID.TID 0000.0001) Start initial hydrostatic pressure computation
(PID.TID 0000.0001) Pressure is predetermined for buoyancyRelation OCEANIC
(PID.TID 0000.0001) 
(PID.TID 0000.0001)  MDS_READ_FIELD: opening global file: windx.sin_y
(PID.TID 0000.0001) // =======================================================
(PID.TID 0000.0001) // Begin MONITOR dynamic field statistics
(PID.TID 0000.0001) // =======================================================
(PID.TID 0000.0001) %MON time_tsnumber                =                     0
(PID.TID 0000.0001) %MON time_secondsf                =   0.0000000000000E+00
(PID.TID 0000.0001) %MON dynstat_eta_max              =   0.0000000000000E+00
(PID.TID 0000.0001) %MON dynstat_eta_min              =   0.0000000000000E+00
(PID.TID 0000.0001) %MON dynstat_eta_mean             =   0.0000000000000E+00
(PID.TID 0000.0001) %MON dynstat_eta_sd               =   0.0000000000000E+00
(PID.TID 0000.0001) %MON dynstat_eta_del2             =   0.0000000000000E+00
(PID.TID 0000.0001) %MON dynstat_uvel_max             =   0.0000000000000E+00
(PID.TID 0000.0001) %MON dynstat_uvel_min             =   0.0000000000000E+00
(PID.TID 0000.0001) %MON dynstat_uvel_mean            =   0.0000000000000E+00
(PID.TID 0000.0001) %MON dynstat_uvel_sd              =   0.0000000000000E+00
(PID.TID 0000.0001) %MON dynstat_uvel_del2            =   0.0000000000000E+00
(PID.TID 0000.0001) %MON dynstat_vvel_max             =   0.0000000000000E+00
(PID.TID 0000.0001) %MON dynstat_vvel_min             =   0.0000000000000E+00
(PID.TID 0000.0001) %MON dynstat_vvel_mean            =   0.0000000000000E+00
(PID.TID 0000.0001) %MON dynstat_vvel_sd              =   0.0000000000000E+00
(PID.TID 0000.0001) %MON dynstat_vvel_del2            =   0.0000000000000E+00
(PID.TID 0000.0001) %MON dynstat_wvel_max             =   0.0000000000000E+00
(PID.TID 0000.0001) %MON dynstat_wvel_min             =   0.0000000000000E+00
(PID.TID 0000.0001) %MON dynstat_wvel_mean            =   0.0000000000000E+00
(PID.TID 0000.0001) %MON dynstat_wvel_sd              =   0.0000000000000E+00
(PID.TID 0000.0001) %MON dynstat_wvel_del2            =   0.0000000000000E+00
(PID.TID 0000.0001) %MON dynstat_theta_max            =   4.0000000000000E+00
(PID.TID 0000.0001) %MON dynstat_theta_min            =   4.0000000000000E+00
(PID.TID 0000.0001) %MON dynstat_theta_mean           =   4.0000000000000E+00
(PID.TID 0000.0001) %MON dynstat_theta_sd             =   0.0000000000000E+00
(PID.TID 0000.0001) %MON dynstat_theta_del2           =   0.0000000000000E+00
(PID.TID 0000.0001) %MON dynstat_salt_max             =   3.5000000000000E+01
(PID.TID 0000.0001) %MON dynstat_salt_min             =   3.5000000000000E+01
(PID.TID 0000.0001) %MON dynstat_salt_mean            =   3.5000000000000E+01
(PID.TID 0000.0001) %MON dynstat_salt_sd              =   0.0000000000000E+00
(PID.TID 0000.0001) %MON dynstat_salt_del2            =   0.0000000000000E+00
(PID.TID 0000.0001) %MON dynstat_sst_max              =   4.0000000000000E+00
(PID.TID 0000.0001) %MON dynstat_sst_min              =   4.0000000000000E+00
(PID.TID 0000.0001) %MON dynstat_sst_mean             =   4.0000000000000E+00
(PID.TID 0000.0001) %MON dynstat_sst_sd               =   0.0000000000000E+00
(PID.TID 0000.0001) %MON dynstat_sst_del2             =   0.0000000000000E+00
(PID.TID 0000.0001) %MON dynstat_sss_max              =   3.5000000000000E+01
(PID.TID 0000.0001) %MON dynstat_sss_min              =   3.5000000000000E+01
(PID.TID 0000.0001) %MON dynstat_sss_mean             =   3.5000000000000E+01
(PID.TID 0000.0001) %MON dynstat_sss_sd               =   0.0000000000000E+00
(PID.TID 0000.0001) %MON dynstat_sss_del2             =   0.0000000000000E+00
(PID.TID 0000.0001) %MON extforcing_qnet_max          =   0.0000000000000E+00
(PID.TID 0000.0001) %MON extforcing_qnet_min          =   0.0000000000000E+00
(PID.TID 0000.0001) %MON extforcing_qnet_mean         =   0.0000000000000E+00
(PID.TID 0000.0001) %MON extforcing_qnet_sd           =   0.0000000000000E+00
(PID.TID 0000.0001) %MON extforcing_qnet_del2         =   0.0000000000000E+00
(PID.TID 0000.0001) %MON extforcing_qsw_max           =   0.0000000000000E+00
(PID.TID 0000.0001) %MON extforcing_qsw_min           =   0.0000000000000E+00
(PID.TID 0000.0001) %MON extforcing_qsw_mean          =   0.0000000000000E+00
(PID.TID 0000.0001) %MON extforcing_qsw_sd            =   0.0000000000000E+00
(PID.TID 0000.0001) %MON extforcing_qsw_del2          =   0.0000000000000E+00
(PID.TID 0000.0001) %MON extforcing_empmr_max         =   0.0000000000000E+00
(PID.TID 0000.0001) %MON extforcing_empmr_min         =   0.0000000000000E+00
(PID.TID 0000.0001) %MON extforcing_empmr_mean        =   0.0000000000000E+00
(PID.TID 0000.0001) %MON extforcing_empmr_sd          =   0.0000000000000E+00
(PID.TID 0000.0001) %MON extforcing_empmr_del2        =   0.0000000000000E+00
(PID.TID 0000.0001) %MON extforcing_fu_max            =   1.0000000000000E-01
(PID.TID 0000.0001) %MON extforcing_fu_min            =   1.0000000000000E-01
(PID.TID 0000.0001) %MON extforcing_fu_mean           =   1.0000000000000E-01
(PID.TID 0000.0001) %MON extforcing_fu_sd             =   0.0000000000000E+00
(PID.TID 0000.0001) %MON extforcing_fu_del2           =   0.0000000000000E+00
(PID.TID 0000.0001) %MON extforcing_fv_max            =   0.0000000000000E+00
(PID.TID 0000.0001) %MON extforcing_fv_min            =   0.0000000000000E+00
(PID.TID 0000.0001) %MON extforcing_fv_mean           =   0.0000000000000E+00
(PID.TID 0000.0001) %MON extforcing_fv_sd             =   0.0000000000000E+00
(PID.TID 0000.0001) %MON extforcing_fv_del2           =   0.0000000000000E+00
(PID.TID 0000.0001) %MON advcfl_uvel_max              =   0.0000000000000E+00
(PID.TID 0000.0001) %MON advcfl_vvel_max              =   0.0000000000000E+00
(PID.TID 0000.0001) %MON advcfl_wvel_max              =   0.0000000000000E+00
(PID.TID 0000.0001) %MON advcfl_W_hf_max              =   0.0000000000000E+00
(PID.TID 0000.0001) %MON pe_b_mean                    =   0.0000000000000E+00
(PID.TID 0000.0001) %MON ke_max                       =   0.0000000000000E+00
(PID.TID 0000.0001) %MON ke_mean                      =   0.0000000000000E+00
(PID.TID 0000.0001) %MON ke_vol                       =   4.4009158039362E+15
(PID.TID 0000.0001) %MON vort_r_min                   =   0.0000000000000E+00
(PID.TID 0000.0001) %MON vort_r_max                   =   0.0000000000000E+00
(PID.TID 0000.0001) %MON vort_a_mean                  =  -1.1390240000000E-04
(PID.TID 0000.0001) %MON vort_a_sd                    =   3.7035424771431E-06
(PID.TID 0000.0001) %MON vort_p_mean                  =  -1.5528913309106E-04
(PID.TID 0000.0001) %MON vort_p_sd                    =   4.1188240600708E-05
(PID.TID 0000.0001) %MON surfExpan_theta_mean         =   0.0000000000000E+00
(PID.TID 0000.0001) %MON surfExpan_salt_mean          =   0.0000000000000E+00
(PID.TID 0000.0001) // =======================================================
(PID.TID 0000.0001) // End MONITOR dynamic field statistics
(PID.TID 0000.0001) // =======================================================
 cg2d: Sum(rhs),rhsMax =   0.00000000000000E+00  0.00000000000000E+00
(PID.TID 0000.0001)                    cg2d_init_res =    0.00000000000000E+00
(PID.TID 0000.0001)                       cg2d_iters =     0
(PID.TID 0000.0001)                         cg2d_res =    0.00000000000000E+00
(PID.TID 0000.0001) // =======================================================
(PID.TID 0000.0001) // Begin MONITOR dynamic field statistics
(PID.TID 0000.0001) // =======================================================
(PID.TID 0000.0001) %MON time_tsnumber                =                     1
(PID.TID 0000.0001) %MON time_secondsf                =   3.6000000000000E+03
(PID.TID 0000.0001) %MON dynstat_eta_max              =   0.0000000000000E+00
(PID.TID 0000.0001) %MON dynstat_eta_min              =   0.0000000000000E+00
(PID.TID 0000.0001) %MON dynstat_eta_mean             =   0.0000000000000E+00
(PID.TID 0000.0001) %MON dynstat_eta_sd               =   0.0000000000000E+00
(PID.TID 0000.0001) %MON dynstat_eta_del2             =   0.0000000000000E+00
(PID.TID 0000.0001) %MON dynstat_uvel_max             =   3.6007201440288E-03
(PID.TID 0000.0001) %MON dynstat_uvel_min             =   0.0000000000000E+00
(PID.TID 0000.0001) %MON dynstat_uvel_mean            =   8.1817519453754E-05
(PID.TID 0000.0001) %MON dynstat_uvel_sd              =   5.3657048366644E-04
(PID.TID 0000.0001) %MON dynstat_uvel_del2            =   0.0000000000000E+00
(PID.TID 0000.0001) %MON dynstat_vvel_max             =   0.0000000000000E+00
(PID.TID 0000.0001) %MON dynstat_vvel_min             =   0.0000000000000E+00
(PID.TID 0000.0001) %MON dynstat_vvel_mean            =   0.0000000000000E+00
(PID.TID 0000.0001) %MON dynstat_vvel_sd              =   0.0000000000000E+00
(PID.TID 0000.0001) %MON dynstat_vvel_del2            =   0.0000000000000E+00
(PID.TID 0000.0001) %MON dynstat_wvel_max             =   0.0000000000000E+00
(PID.TID 0000.0001) %MON dynstat_wvel_min             =   0.0000000000000E+00
(PID.TID 0000.0001) %MON dynstat_wvel_mean            =   0.0000000000000E+00
(PID.TID 0000.0001) %MON dynstat_wvel_sd              =   0.0000000000000E+00
(PID.TID 0000.0001) %MON dynstat_wvel_del2            =   0.0000000000000E+00
(PID.TID 0000.0001) %MON dynstat_theta_max            =   4.0000000000000E+00
(PID.TID 0000.0001) %MON dynstat_theta_min            =   4.0000000000000E+00
(PID.TID 0000.0001) %MON dynstat_theta_mean           =   4.0000000000000E+00
(PID.TID 0000.0001) %MON dynstat_theta_sd             =   0.0000000000000E+00
(PID.TID 0000.0001) %MON dynstat_theta_del2           =   0.0000000000000E+00
(PID.TID 0000.0001) %MON dynstat_salt_max             =   3.5000000000000E+01
(PID.TID 0000.0001) %MON dynstat_salt_min             =   3.5000000000000E+01
(PID.TID 0000.0001) %MON dynstat_salt_mean            =   3.5000000000000E+01
(PID.TID 0000.0001) %MON dynstat_salt_sd              =   0.0000000000000E+00
(PID.TID 0000.0001) %MON dynstat_salt_del2            =   0.0000000000000E+00
(PID.TID 0000.0001) %MON dynstat_sst_max              =   4.0000000000000E+00
(PID.TID 0000.0001) %MON dynstat_sst_min              =   4.0000000000000E+00
(PID.TID 0000.0001) %MON dynstat_sst_mean             =   4.0000000000000E+00
(PID.TID 0000.0001) %MON dynstat_sst_sd               =   0.0000000000000E+00
(PID.TID 0000.0001) %MON dynstat_sst_del2             =   0.0000000000000E+00
(PID.TID 0000.0001) %MON dynstat_sss_max              =   3.5000000000000E+01
(PID.TID 0000.0001) %MON dynstat_sss_min              =   3.5000000000000E+01
(PID.TID 0000.0001) %MON dynstat_sss_mean             =   3.5000000000000E+01
(PID.TID 0000.0001) %MON dynstat_sss_sd               =   0.0000000000000E+00
(PID.TID 0000.0001) %MON dynstat_sss_del2             =   0.0000000000000E+00
(PID.TID 0000.0001) %MON extforcing_qnet_max          =   0.0000000000000E+00
(PID.TID 0000.0001) %MON extforcing_qnet_min          =   0.0000000000000E+00
(PID.TID 0000.0001) %MON extforcing_qnet_mean         =   0.0000000000000E+00
(PID.TID 0000.0001) %MON extforcing_qnet_sd           =   0.0000000000000E+00
(PID.TID 0000.0001) %MON extforcing_qnet_del2         =   0.0000000000000E+00
(PID.TID 0000.0001) %MON extforcing_qsw_max           =   0.0000000000000E+00
(PID.TID 0000.0001) %MON extforcing_qsw_min           =   0.0000000000000E+00
(PID.TID 0000.0001) %MON extforcing_qsw_mean          =   0.0000000000000E+00
(PID.TID 0000.0001) %MON extforcing_qsw_sd            =   0.0000000000000E+00
(PID.TID 0000.0001) %MON extforcing_qsw_del2          =   0.0000000000000E+00
(PID.TID 0000.0001) %MON extforcing_empmr_max         =   0.0000000000000E+00
(PID.TID 0000.0001) %MON extforcing_empmr_min         =   0.0000000000000E+00
(PID.TID 0000.0001) %MON extforcing_empmr_mean        =   0.0000000000000E+00
(PID.TID 0000.0001) %MON extforcing_empmr_sd          =   0.0000000000000E+00
(PID.TID 0000.0001) %MON extforcing_empmr_del2        =   0.0000000000000E+00
(PID.TID 0000.0001) %MON extforcing_fu_max            =   1.0000000000000E-01
(PID.TID 0000.0001) %MON extforcing_fu_min            =   1.0000000000000E-01
(PID.TID 0000.0001) %MON extforcing_fu_mean           =   1.0000000000000E-01
(PID.TID 0000.0001) %MON extforcing_fu_sd             =   0.0000000000000E+00
(PID.TID 0000.0001) %MON extforcing_fu_del2           =   0.0000000000000E+00
(PID.TID 0000.0001) %MON extforcing_fv_max            =   0.0000000000000E+00
(PID.TID 0000.0001) %MON extforcing_fv_min            =   0.0000000000000E+00
(PID.TID 0000.0001) %MON extforcing_fv_mean           =   0.0000000000000E+00
(PID.TID 0000.0001) %MON extforcing_fv_sd             =   0.0000000000000E+00
(PID.TID 0000.0001) %MON extforcing_fv_del2           =   0.0000000000000E+00
(PID.TID 0000.0001) %MON advcfl_uvel_max              =   6.4812962592519E-05
(PID.TID 0000.0001) %MON advcfl_vvel_max              =   0.0000000000000E+00
(PID.TID 0000.0001) %MON advcfl_wvel_max              =   0.0000000000000E+00
(PID.TID 0000.0001) %MON advcfl_W_hf_max              =   0.0000000000000E+00
(PID.TID 0000.0001) %MON pe_b_mean                    =   0.0000000000000E+00
(PID.TID 0000.0001) %MON ke_max                       =   6.4825927778074E-06
(PID.TID 0000.0001) %MON ke_mean                      =   1.4730099521580E-07
(PID.TID 0000.0001) %MON ke_vol                       =   4.4009158039362E+15
(PID.TID 0000.0001) %MON vort_r_min                   =   0.0000000000000E+00
(PID.TID 0000.0001) %MON vort_r_max                   =   0.0000000000000E+00
(PID.TID 0000.0001) %MON vort_a_mean                  =  -1.1390240000000E-04
(PID.TID 0000.0001) %MON vort_a_sd                    =   3.7035424771431E-06
(PID.TID 0000.0001) %MON vort_p_mean                  =  -1.5528913309106E-04
(PID.TID 0000.0001) %MON vort_p_sd                    =   4.1188240600708E-05
(PID.TID 0000.0001) %MON surfExpan_theta_mean         =   0.0000000000000E+00
(PID.TID 0000.0001) %MON surfExpan_salt_mean          =   0.0000000000000E+00
(PID.TID 0000.0001) // =======================================================
(PID.TID 0000.0001) // End MONITOR dynamic field statistics
(PID.TID 0000.0001) // =======================================================
 cg2d: Sum(rhs),rhsMax =  -2.49999999999996E+01  6.03492218443698E-05
(PID.TID 0000.0001)                    cg2d_init_res =    4.99999999999993E+00
(PID.TID 0000.0001)                       cg2d_iters =     3
(PID.TID 0000.0001)                         cg2d_res =    2.51859023877888E-14
(PID.TID 0000.0001) // =======================================================
(PID.TID 0000.0001) // Begin MONITOR dynamic field statistics
(PID.TID 0000.0001) // =======================================================
(PID.TID 0000.0001) %MON time_tsnumber                =                     2
(PID.TID 0000.0001) %MON time_secondsf                =   7.2000000000000E+03
(PID.TID 0000.0001) %MON dynstat_eta_max              =   9.7765739387878E-05
(PID.TID 0000.0001) %MON dynstat_eta_min              =   9.7765739387878E-05
(PID.TID 0000.0001) %MON dynstat_eta_mean             =   9.7765739387878E-05
(PID.TID 0000.0001) %MON dynstat_eta_sd               =   4.8713747758949E-20
(PID.TID 0000.0001) %MON dynstat_eta_del2             =   2.7647155398380E-20
(PID.TID 0000.0001) %MON dynstat_uvel_max             =   7.1184796959392E-03
(PID.TID 0000.0001) %MON dynstat_uvel_min             =  -9.7578195523695E-21
(PID.TID 0000.0001) %MON dynstat_uvel_mean            =   1.6363503890751E-04
(PID.TID 0000.0001) %MON dynstat_uvel_sd              =   1.0605076614857E-03
(PID.TID 0000.0001) %MON dynstat_uvel_del2            =   3.8532545210135E-21
(PID.TID 0000.0001) %MON dynstat_vvel_max             =   2.4709812362472E-03
(PID.TID 0000.0001) %MON dynstat_vvel_min             =  -2.5370330836161E-20
(PID.TID 0000.0001) %MON dynstat_vvel_mean            =   5.3678660128296E-05
(PID.TID 0000.0001) %MON dynstat_vvel_sd              =   3.5222235975882E-04
(PID.TID 0000.0001) %MON dynstat_vvel_del2            =   6.7892874574915E-06
(PID.TID 0000.0001) %MON dynstat_wvel_max             =   2.7157149829967E-08
(PID.TID 0000.0001) %MON dynstat_wvel_min             =  -8.6242090343506E-22
(PID.TID 0000.0001) %MON dynstat_wvel_mean            =   3.8795928328523E-10
(PID.TID 0000.0001) %MON dynstat_wvel_sd              =   3.2226318403777E-09
(PID.TID 0000.0001) %MON dynstat_wvel_del2            =   3.4090336885447E-22
(PID.TID 0000.0001) %MON dynstat_theta_max            =   4.0000000000000E+00
(PID.TID 0000.0001) %MON dynstat_theta_min            =   4.0000000000000E+00
(PID.TID 0000.0001) %MON dynstat_theta_mean           =   4.0000000000000E+00
(PID.TID 0000.0001) %MON dynstat_theta_sd             =   0.0000000000000E+00
(PID.TID 0000.0001) %MON dynstat_theta_del2           =   0.0000000000000E+00
(PID.TID 0000.0001) %MON dynstat_salt_max             =   3.5000000000000E+01
(PID.TID 0000.0001) %MON dynstat_salt_min             =   3.5000000000000E+01
(PID.TID 0000.0001) %MON dynstat_salt_mean            =   3.5000000000000E+01
(PID.TID 0000.0001) %MON dynstat_salt_sd              =   0.0000000000000E+00
(PID.TID 0000.0001) %MON dynstat_salt_del2            =   0.0000000000000E+00
(PID.TID 0000.0001) %MON dynstat_sst_max              =   4.0000000000000E+00
(PID.TID 0000.0001) %MON dynstat_sst_min              =   4.0000000000000E+00
(PID.TID 0000.0001) %MON dynstat_sst_mean             =   4.0000000000000E+00
(PID.TID 0000.0001) %MON dynstat_sst_sd               =   0.0000000000000E+00
(PID.TID 0000.0001) %MON dynstat_sst_del2             =   0.0000000000000E+00
(PID.TID 0000.0001) %MON dynstat_sss_max              =   3.5000000000000E+01
(PID.TID 0000.0001) %MON dynstat_sss_min              =   3.5000000000000E+01
(PID.TID 0000.0001) %MON dynstat_sss_mean             =   3.5000000000000E+01
(PID.TID 0000.0001) %MON dynstat_sss_sd               =   0.0000000000000E+00
(PID.TID 0000.0001) %MON dynstat_sss_del2             =   0.0000000000000E+00
(PID.TID 0000.0001) %MON extforcing_qnet_max          =   0.0000000000000E+00
(PID.TID 0000.0001) %MON extforcing_qnet_min          =   0.0000000000000E+00
(PID.TID 0000.0001) %MON extforcing_qnet_mean         =   0.0000000000000E+00
(PID.TID 0000.0001) %MON extforcing_qnet_sd           =   0.0000000000000E+00
(PID.TID 0000.0001) %MON extforcing_qnet_del2         =   0.0000000000000E+00
(PID.TID 0000.0001) %MON extforcing_qsw_max           =   0.0000000000000E+00
(PID.TID 0000.0001) %MON extforcing_qsw_min           =   0.0000000000000E+00
(PID.TID 0000.0001) %MON extforcing_qsw_mean          =   0.0000000000000E+00
(PID.TID 0000.0001) %MON extforcing_qsw_sd            =   0.0000000000000E+00
(PID.TID 0000.0001) %MON extforcing_qsw_del2          =   0.0000000000000E+00
(PID.TID 0000.0001) %MON extforcing_empmr_max         =   0.0000000000000E+00
(PID.TID 0000.0001) %MON extforcing_empmr_min         =   0.0000000000000E+00
(PID.TID 0000.0001) %MON extforcing_empmr_mean        =   0.0000000000000E+00
(PID.TID 0000.0001) %MON extforcing_empmr_sd          =   0.0000000000000E+00
(PID.TID 0000.0001) %MON extforcing_empmr_del2        =   0.0000000000000E+00
(PID.TID 0000.0001) %MON extforcing_fu_max            =   1.0000000000000E-01
(PID.TID 0000.0001) %MON extforcing_fu_min            =   1.0000000000000E-01
(PID.TID 0000.0001) %MON extforcing_fu_mean           =   1.0000000000000E-01
(PID.TID 0000.0001) %MON extforcing_fu_sd             =   0.0000000000000E+00
(PID.TID 0000.0001) %MON extforcing_fu_del2           =   0.0000000000000E+00
(PID.TID 0000.0001) %MON extforcing_fv_max            =   0.0000000000000E+00
(PID.TID 0000.0001) %MON extforcing_fv_min            =   0.0000000000000E+00
(PID.TID 0000.0001) %MON extforcing_fv_mean           =   0.0000000000000E+00
(PID.TID 0000.0001) %MON extforcing_fv_sd             =   0.0000000000000E+00
(PID.TID 0000.0001) %MON extforcing_fv_del2           =   0.0000000000000E+00
(PID.TID 0000.0001) %MON advcfl_uvel_max              =   1.2813263452691E-04
(PID.TID 0000.0001) %MON advcfl_vvel_max              =   4.4477662252450E-05
(PID.TID 0000.0001) %MON advcfl_wvel_max              =   1.9553147877576E-06
(PID.TID 0000.0001) %MON advcfl_W_hf_max              =   3.1047152523662E-20
(PID.TID 0000.0001) %MON pe_b_mean                    =   1.0652936297383E-11
(PID.TID 0000.0001) %MON ke_max                       =   2.8322883428819E-05
(PID.TID 0000.0001) %MON ke_mean                      =   6.3919745764771E-07
(PID.TID 0000.0001) %MON ke_vol                       =   4.4009158039362E+15
(PID.TID 0000.0001) %MON vort_r_min                   =  -2.2204460492503E-26
(PID.TID 0000.0001) %MON vort_r_max                   =   2.2204460492503E-26
(PID.TID 0000.0001) %MON vort_a_mean                  =  -1.1390240000000E-04
(PID.TID 0000.0001) %MON vort_a_sd                    =   3.7035424771431E-06
(PID.TID 0000.0001) %MON vort_p_mean                  =  -1.5528913309106E-04
(PID.TID 0000.0001) %MON vort_p_sd                    =   4.1188240600708E-05
(PID.TID 0000.0001) %MON surfExpan_theta_mean         =   1.0862859931986E-07
(PID.TID 0000.0001) %MON surfExpan_salt_mean          =   9.5050024404881E-07
(PID.TID 0000.0001) // =======================================================
(PID.TID 0000.0001) // End MONITOR dynamic field statistics
(PID.TID 0000.0001) // =======================================================
 cg2d: Sum(rhs),rhsMax =  -1.81034404639062E+01  2.18766023587219E-04
(PID.TID 0000.0001)                    cg2d_init_res =    3.47816426360398E+00
(PID.TID 0000.0001)                       cg2d_iters =     9
(PID.TID 0000.0001)                         cg2d_res =    4.45180196731803E-16
(PID.TID 0000.0001) // =======================================================
(PID.TID 0000.0001) // Begin MONITOR dynamic field statistics
(PID.TID 0000.0001) // =======================================================
(PID.TID 0000.0001) %MON time_tsnumber                =                     3
(PID.TID 0000.0001) %MON time_secondsf                =   1.0800000000000E+04
(PID.TID 0000.0001) %MON dynstat_eta_max              =   2.6582054065699E-04
(PID.TID 0000.0001) %MON dynstat_eta_min              =   2.3666834551796E-04
(PID.TID 0000.0001) %MON dynstat_eta_mean             =   2.5663506589318E-04
(PID.TID 0000.0001) %MON dynstat_eta_sd               =   7.7050815859629E-06
(PID.TID 0000.0001) %MON dynstat_eta_del2             =   2.7834964946470E-06
(PID.TID 0000.0001) %MON dynstat_uvel_max             =   9.1421069785233E-03
(PID.TID 0000.0001) %MON dynstat_uvel_min             =  -1.2918508834982E-06
(PID.TID 0000.0001) %MON dynstat_uvel_mean            =   2.1062116258559E-04
(PID.TID 0000.0001) %MON dynstat_uvel_sd              =   1.3485825619833E-03
(PID.TID 0000.0001) %MON dynstat_uvel_del2            =   6.9909345059028E-06
(PID.TID 0000.0001) %MON dynstat_vvel_max             =   6.3664456522585E-03
(PID.TID 0000.0001) %MON dynstat_vvel_min             =  -3.6663548632425E-06
(PID.TID 0000.0001) %MON dynstat_vvel_mean            =   1.4090639886984E-04
(PID.TID 0000.0001) %MON dynstat_vvel_sd              =   9.0799142315154E-04
(PID.TID 0000.0001) %MON dynstat_vvel_del2            =   1.7553210981259E-05
(PID.TID 0000.0001) %MON dynstat_wvel_max             =   1.1191086565011E-07
(PID.TID 0000.0001) %MON dynstat_wvel_min             =  -2.9517198649177E-08
(PID.TID 0000.0001) %MON dynstat_wvel_mean            =   6.7512674477295E-10
(PID.TID 0000.0001) %MON dynstat_wvel_sd              =   3.9953975844246E-08
(PID.TID 0000.0001) %MON dynstat_wvel_del2            =   1.8048389065631E-08
(PID.TID 0000.0001) %MON dynstat_theta_max            =   4.0000000000000E+00
(PID.TID 0000.0001) %MON dynstat_theta_min            =   4.0000000000000E+00
(PID.TID 0000.0001) %MON dynstat_theta_mean           =   4.0000000000000E+00
(PID.TID 0000.0001) %MON dynstat_theta_sd             =   0.0000000000000E+00
(PID.TID 0000.0001) %MON dynstat_theta_del2           =   0.0000000000000E+00
(PID.TID 0000.0001) %MON dynstat_salt_max             =   3.5000000000000E+01
(PID.TID 0000.0001) %MON dynstat_salt_min             =   3.5000000000000E+01
(PID.TID 0000.0001) %MON dynstat_salt_mean            =   3.5000000000000E+01
(PID.TID 0000.0001) %MON dynstat_salt_sd              =   0.0000000000000E+00
(PID.TID 0000.0001) %MON dynstat_salt_del2            =   0.0000000000000E+00
(PID.TID 0000.0001) %MON dynstat_sst_max              =   4.0000000000000E+00
(PID.TID 0000.0001) %MON dynstat_sst_min              =   4.0000000000000E+00
(PID.TID 0000.0001) %MON dynstat_sst_mean             =   4.0000000000000E+00
(PID.TID 0000.0001) %MON dynstat_sst_sd               =   0.0000000000000E+00
(PID.TID 0000.0001) %MON dynstat_sst_del2             =   0.0000000000000E+00
(PID.TID 0000.0001) %MON dynstat_sss_max              =   3.5000000000000E+01
(PID.TID 0000.0001) %MON dynstat_sss_min              =   3.5000000000000E+01
(PID.TID 0000.0001) %MON dynstat_sss_mean             =   3.5000000000000E+01
(PID.TID 0000.0001) %MON dynstat_sss_sd               =   0.0000000000000E+00
(PID.TID 0000.0001) %MON dynstat_sss_del2             =   0.0000000000000E+00
(PID.TID 0000.0001) %MON extforcing_qnet_max          =   0.0000000000000E+00
(PID.TID 0000.0001) %MON extforcing_qnet_min          =   0.0000000000000E+00
(PID.TID 0000.0001) %MON extforcing_qnet_mean         =   0.0000000000000E+00
(PID.TID 0000.0001) %MON extforcing_qnet_sd           =   0.0000000000000E+00
(PID.TID 0000.0001) %MON extforcing_qnet_del2         =   0.0000000000000E+00
(PID.TID 0000.0001) %MON extforcing_qsw_max           =   0.0000000000000E+00
(PID.TID 0000.0001) %MON extforcing_qsw_min           =   0.0000000000000E+00
(PID.TID 0000.0001) %MON extforcing_qsw_mean          =   0.0000000000000E+00
(PID.TID 0000.0001) %MON extforcing_qsw_sd            =   0.0000000000000E+00
(PID.TID 0000.0001) %MON extforcing_qsw_del2          =   0.0000000000000E+00
(PID.TID 0000.0001) %MON extforcing_empmr_max         =   0.0000000000000E+00
(PID.TID 0000.0001) %MON extforcing_empmr_min         =   0.0000000000000E+00
(PID.TID 0000.0001) %MON extforcing_empmr_mean        =   0.0000000000000E+00
(PID.TID 0000.0001) %MON extforcing_empmr_sd          =   0.0000000000000E+00
(PID.TID 0000.0001) %MON extforcing_empmr_del2        =   0.0000000000000E+00
(PID.TID 0000.0001) %MON extforcing_fu_max            =   1.0000000000000E-01
(PID.TID 0000.0001) %MON extforcing_fu_min            =   1.0000000000000E-01
(PID.TID 0000.0001) %MON extforcing_fu_mean           =   1.0000000000000E-01
(PID.TID 0000.0001) %MON extforcing_fu_sd             =   0.0000000000000E+00
(PID.TID 0000.0001) %MON extforcing_fu_del2           =   0.0000000000000E+00
(PID.TID 0000.0001) %MON extforcing_fv_max            =   0.0000000000000E+00
(PID.TID 0000.0001) %MON extforcing_fv_min            =   0.0000000000000E+00
(PID.TID 0000.0001) %MON extforcing_fv_mean           =   0.0000000000000E+00
(PID.TID 0000.0001) %MON extforcing_fv_sd             =   0.0000000000000E+00
(PID.TID 0000.0001) %MON extforcing_fv_del2           =   0.0000000000000E+00
(PID.TID 0000.0001) %MON advcfl_uvel_max              =   1.6455792561342E-04
(PID.TID 0000.0001) %MON advcfl_vvel_max              =   1.1459602174065E-04
(PID.TID 0000.0001) %MON advcfl_wvel_max              =   4.1874690623879E-06
(PID.TID 0000.0001) %MON advcfl_W_hf_max              =   4.0287911634038E-06
(PID.TID 0000.0001) %MON pe_b_mean                    =   7.3471557543962E-11
(PID.TID 0000.0001) %MON ke_max                       =   6.0243321356798E-05
(PID.TID 0000.0001) %MON ke_mean                      =   1.3536696191868E-06
(PID.TID 0000.0001) %MON ke_vol                       =   4.4009158039362E+15
(PID.TID 0000.0001) %MON vort_r_min                   =  -3.6453700071561E-10
(PID.TID 0000.0001) %MON vort_r_max                   =   9.8888487084355E-10
(PID.TID 0000.0001) %MON vort_a_mean                  =  -1.1390240000000E-04
(PID.TID 0000.0001) %MON vort_a_sd                    =   3.7035382325471E-06
(PID.TID 0000.0001) %MON vort_p_mean                  =  -1.5528913309106E-04
(PID.TID 0000.0001) %MON vort_p_sd                    =   4.1188240080367E-05
(PID.TID 0000.0001) %MON surfExpan_theta_mean         =   1.7652147389478E-07
(PID.TID 0000.0001) %MON surfExpan_salt_mean          =   1.5445628965793E-06
(PID.TID 0000.0001) // =======================================================
(PID.TID 0000.0001) // End MONITOR dynamic field statistics
(PID.TID 0000.0001) // =======================================================
 cg2d: Sum(rhs),rhsMax =  -1.54955562832148E+01  4.32479836297446E-04
(PID.TID 0000.0001)                    cg2d_init_res =    1.43086276014243E+00
(PID.TID 0000.0001)                       cg2d_iters =    14
(PID.TID 0000.0001)                         cg2d_res =    5.67101021326227E-14
(PID.TID 0000.0001) // =======================================================
(PID.TID 0000.0001) // Begin MONITOR dynamic field statistics
(PID.TID 0000.0001) // =======================================================
(PID.TID 0000.0001) %MON time_tsnumber                =                     4
(PID.TID 0000.0001) %MON time_secondsf                =   1.4400000000000E+04
(PID.TID 0000.0001) %MON dynstat_eta_max              =   4.4404325312634E-04
(PID.TID 0000.0001) %MON dynstat_eta_min              =   4.0967729259785E-04
(PID.TID 0000.0001) %MON dynstat_eta_mean             =   4.3425821377673E-04
(PID.TID 0000.0001) %MON dynstat_eta_sd               =   9.5277312496800E-06
(PID.TID 0000.0001) %MON dynstat_eta_del2             =   3.8572500594265E-06
(PID.TID 0000.0001) %MON dynstat_uvel_max             =   9.4069333971749E-03
(PID.TID 0000.0001) %MON dynstat_uvel_min             =  -2.6062755419423E-06
(PID.TID 0000.0001) %MON dynstat_uvel_mean            =   2.1408576526011E-04
(PID.TID 0000.0001) %MON dynstat_uvel_sd              =   1.3602365559730E-03
(PID.TID 0000.0001) %MON dynstat_uvel_del2            =   2.1682801471029E-05
(PID.TID 0000.0001) %MON dynstat_vvel_max             =   1.0592905138517E-02
(PID.TID 0000.0001) %MON dynstat_vvel_min             =  -8.8871632490562E-06
(PID.TID 0000.0001) %MON dynstat_vvel_mean            =   2.3880652978713E-04
(PID.TID 0000.0001) %MON dynstat_vvel_sd              =   1.5137282334021E-03
(PID.TID 0000.0001) %MON dynstat_vvel_del2            =   2.8703326744759E-05
(PID.TID 0000.0001) %MON dynstat_wvel_max             =   2.3935665614287E-07
(PID.TID 0000.0001) %MON dynstat_wvel_min             =  -8.4953549600983E-08
(PID.TID 0000.0001) %MON dynstat_wvel_mean            =   8.0438308303682E-10
(PID.TID 0000.0001) %MON dynstat_wvel_sd              =   9.4205485084288E-08
(PID.TID 0000.0001) %MON dynstat_wvel_del2            =   4.4110001105781E-08
(PID.TID 0000.0001) %MON dynstat_theta_max            =   4.0000000000000E+00
(PID.TID 0000.0001) %MON dynstat_theta_min            =   4.0000000000000E+00
(PID.TID 0000.0001) %MON dynstat_theta_mean           =   4.0000000000000E+00
(PID.TID 0000.0001) %MON dynstat_theta_sd             =   0.0000000000000E+00
(PID.TID 0000.0001) %MON dynstat_theta_del2           =   0.0000000000000E+00
(PID.TID 0000.0001) %MON dynstat_salt_max             =   3.5000000000000E+01
(PID.TID 0000.0001) %MON dynstat_salt_min             =   3.5000000000000E+01
(PID.TID 0000.0001) %MON dynstat_salt_mean            =   3.5000000000000E+01
(PID.TID 0000.0001) %MON dynstat_salt_sd              =   0.0000000000000E+00
(PID.TID 0000.0001) %MON dynstat_salt_del2            =   0.0000000000000E+00
(PID.TID 0000.0001) %MON dynstat_sst_max              =   4.0000000000000E+00
(PID.TID 0000.0001) %MON dynstat_sst_min              =   4.0000000000000E+00
(PID.TID 0000.0001) %MON dynstat_sst_mean             =   4.0000000000000E+00
(PID.TID 0000.0001) %MON dynstat_sst_sd               =   0.0000000000000E+00
(PID.TID 0000.0001) %MON dynstat_sst_del2             =   0.0000000000000E+00
(PID.TID 0000.0001) %MON dynstat_sss_max              =   3.5000000000000E+01
(PID.TID 0000.0001) %MON dynstat_sss_min              =   3.5000000000000E+01
(PID.TID 0000.0001) %MON dynstat_sss_mean             =   3.5000000000000E+01
(PID.TID 0000.0001) %MON dynstat_sss_sd               =   0.0000000000000E+00
(PID.TID 0000.0001) %MON dynstat_sss_del2             =   0.0000000000000E+00
(PID.TID 0000.0001) %MON extforcing_qnet_max          =   0.0000000000000E+00
(PID.TID 0000.0001) %MON extforcing_qnet_min          =   0.0000000000000E+00
(PID.TID 0000.0001) %MON extforcing_qnet_mean         =   0.0000000000000E+00
(PID.TID 0000.0001) %MON extforcing_qnet_sd           =   0.0000000000000E+00
(PID.TID 0000.0001) %MON extforcing_qnet_del2         =   0.0000000000000E+00
(PID.TID 0000.0001) %MON extforcing_qsw_max           =   0.0000000000000E+00
(PID.TID 0000.0001) %MON extforcing_qsw_min           =   0.0000000000000E+00
(PID.TID 0000.0001) %MON extforcing_qsw_mean          =   0.0000000000000E+00
(PID.TID 0000.0001) %MON extforcing_qsw_sd            =   0.0000000000000E+00
(PID.TID 0000.0001) %MON extforcing_qsw_del2          =   0.0000000000000E+00
(PID.TID 0000.0001) %MON extforcing_empmr_max         =   0.0000000000000E+00
(PID.TID 0000.0001) %MON extforcing_empmr_min         =   0.0000000000000E+00
(PID.TID 0000.0001) %MON extforcing_empmr_mean        =   0.0000000000000E+00
(PID.TID 0000.0001) %MON extforcing_empmr_sd          =   0.0000000000000E+00
(PID.TID 0000.0001) %MON extforcing_empmr_del2        =   0.0000000000000E+00
(PID.TID 0000.0001) %MON extforcing_fu_max            =   1.0000000000000E-01
(PID.TID 0000.0001) %MON extforcing_fu_min            =   1.0000000000000E-01
(PID.TID 0000.0001) %MON extforcing_fu_mean           =   1.0000000000000E-01
(PID.TID 0000.0001) %MON extforcing_fu_sd             =   0.0000000000000E+00
(PID.TID 0000.0001) %MON extforcing_fu_del2           =   0.0000000000000E+00
(PID.TID 0000.0001) %MON extforcing_fv_max            =   0.0000000000000E+00
(PID.TID 0000.0001) %MON extforcing_fv_min            =   0.0000000000000E+00
(PID.TID 0000.0001) %MON extforcing_fv_mean           =   0.0000000000000E+00
(PID.TID 0000.0001) %MON extforcing_fv_sd             =   0.0000000000000E+00
(PID.TID 0000.0001) %MON extforcing_fv_del2           =   0.0000000000000E+00
(PID.TID 0000.0001) %MON advcfl_uvel_max              =   1.6932480114915E-04
(PID.TID 0000.0001) %MON advcfl_vvel_max              =   1.9067229249330E-04
(PID.TID 0000.0001) %MON advcfl_wvel_max              =   4.9954175409222E-06
(PID.TID 0000.0001) %MON advcfl_W_hf_max              =   8.6168396211432E-06
(PID.TID 0000.0001) %MON pe_b_mean                    =   2.1028148871397E-10
(PID.TID 0000.0001) %MON ke_max                       =   9.5661544739040E-05
(PID.TID 0000.0001) %MON ke_mean                      =   2.1222389631800E-06
(PID.TID 0000.0001) %MON ke_vol                       =   4.4009158039362E+15
(PID.TID 0000.0001) %MON vort_r_min                   =  -1.1306402459800E-09
(PID.TID 0000.0001) %MON vort_r_max                   =   3.1018039608297E-09
(PID.TID 0000.0001) %MON vort_a_mean                  =  -1.1390240000000E-04
(PID.TID 0000.0001) %MON vort_a_sd                    =   3.7035289066555E-06
(PID.TID 0000.0001) %MON vort_p_mean                  =  -1.5528913309106E-04
(PID.TID 0000.0001) %MON vort_p_sd                    =   4.1188238941813E-05
(PID.TID 0000.0001) %MON surfExpan_theta_mean         =   1.9735905320394E-07
(PID.TID 0000.0001) %MON surfExpan_salt_mean          =   1.7268917155345E-06
(PID.TID 0000.0001) // =======================================================
(PID.TID 0000.0001) // End MONITOR dynamic field statistics
(PID.TID 0000.0001) // =======================================================
 cg2d: Sum(rhs),rhsMax =  -1.41111452329496E+01  6.49958988323414E-04
(PID.TID 0000.0001)                    cg2d_init_res =    9.14684349812362E-01
(PID.TID 0000.0001)                       cg2d_iters =    14
(PID.TID 0000.0001)                         cg2d_res =    4.47006240288649E-15
(PID.TID 0000.0001) // =======================================================
(PID.TID 0000.0001) // Begin MONITOR dynamic field statistics
(PID.TID 0000.0001) // =======================================================
(PID.TID 0000.0001) %MON time_tsnumber                =                     5
(PID.TID 0000.0001) %MON time_secondsf                =   1.8000000000000E+04
(PID.TID 0000.0001) %MON dynstat_eta_max              =   6.0972832578272E-04
(PID.TID 0000.0001) %MON dynstat_eta_min              =   5.7820755519401E-04
(PID.TID 0000.0001) %MON dynstat_eta_mean             =   5.9432393604409E-04
(PID.TID 0000.0001) %MON dynstat_eta_sd               =   7.5925493493963E-06
(PID.TID 0000.0001) %MON dynstat_eta_del2             =   3.5788110918846E-06
(PID.TID 0000.0001) %MON dynstat_uvel_max             =   8.0182849852974E-03
(PID.TID 0000.0001) %MON dynstat_uvel_min             =  -4.3879567693892E-06
(PID.TID 0000.0001) %MON dynstat_uvel_mean            =   1.7527491281720E-04
(PID.TID 0000.0001) %MON dynstat_uvel_sd              =   1.1178709230512E-03
(PID.TID 0000.0001) %MON dynstat_uvel_del2            =   4.2224932280934E-05
(PID.TID 0000.0001) %MON dynstat_vvel_max             =   1.4275203998761E-02
(PID.TID 0000.0001) %MON dynstat_vvel_min             =  -1.3419107843848E-05
(PID.TID 0000.0001) %MON dynstat_vvel_mean            =   3.2738606443168E-04
(PID.TID 0000.0001) %MON dynstat_vvel_sd              =   2.0463787351564E-03
(PID.TID 0000.0001) %MON dynstat_vvel_del2            =   3.8559727828500E-05
(PID.TID 0000.0001) %MON dynstat_wvel_max             =   3.1072833339244E-07
(PID.TID 0000.0001) %MON dynstat_wvel_min             =  -1.8383131271561E-07
(PID.TID 0000.0001) %MON dynstat_wvel_mean            =   9.0216655726166E-10
(PID.TID 0000.0001) %MON dynstat_wvel_sd              =   1.3710232117795E-07
(PID.TID 0000.0001) %MON dynstat_wvel_del2            =   7.3344865896760E-08
(PID.TID 0000.0001) %MON dynstat_theta_max            =   4.0000000000000E+00
(PID.TID 0000.0001) %MON dynstat_theta_min            =   4.0000000000000E+00
(PID.TID 0000.0001) %MON dynstat_theta_mean           =   4.0000000000000E+00
(PID.TID 0000.0001) %MON dynstat_theta_sd             =   0.0000000000000E+00
(PID.TID 0000.0001) %MON dynstat_theta_del2           =   0.0000000000000E+00
(PID.TID 0000.0001) %MON dynstat_salt_max             =   3.5000000000000E+01
(PID.TID 0000.0001) %MON dynstat_salt_min             =   3.5000000000000E+01
(PID.TID 0000.0001) %MON dynstat_salt_mean            =   3.5000000000000E+01
(PID.TID 0000.0001) %MON dynstat_salt_sd              =   0.0000000000000E+00
(PID.TID 0000.0001) %MON dynstat_salt_del2            =   0.0000000000000E+00
(PID.TID 0000.0001) %MON dynstat_sst_max              =   4.0000000000000E+00
(PID.TID 0000.0001) %MON dynstat_sst_min              =   4.0000000000000E+00
(PID.TID 0000.0001) %MON dynstat_sst_mean             =   4.0000000000000E+00
(PID.TID 0000.0001) %MON dynstat_sst_sd               =   0.0000000000000E+00
(PID.TID 0000.0001) %MON dynstat_sst_del2             =   0.0000000000000E+00
(PID.TID 0000.0001) %MON dynstat_sss_max              =   3.5000000000000E+01
(PID.TID 0000.0001) %MON dynstat_sss_min              =   3.5000000000000E+01
(PID.TID 0000.0001) %MON dynstat_sss_mean             =   3.5000000000000E+01
(PID.TID 0000.0001) %MON dynstat_sss_sd               =   0.0000000000000E+00
(PID.TID 0000.0001) %MON dynstat_sss_del2             =   0.0000000000000E+00
(PID.TID 0000.0001) %MON extforcing_qnet_max          =   0.0000000000000E+00
(PID.TID 0000.0001) %MON extforcing_qnet_min          =   0.0000000000000E+00
(PID.TID 0000.0001) %MON extforcing_qnet_mean         =   0.0000000000000E+00
(PID.TID 0000.0001) %MON extforcing_qnet_sd           =   0.0000000000000E+00
(PID.TID 0000.0001) %MON extforcing_qnet_del2         =   0.0000000000000E+00
(PID.TID 0000.0001) %MON extforcing_qsw_max           =   0.0000000000000E+00
(PID.TID 0000.0001) %MON extforcing_qsw_min           =   0.0000000000000E+00
(PID.TID 0000.0001) %MON extforcing_qsw_mean          =   0.0000000000000E+00
(PID.TID 0000.0001) %MON extforcing_qsw_sd            =   0.0000000000000E+00
(PID.TID 0000.0001) %MON extforcing_qsw_del2          =   0.0000000000000E+00
(PID.TID 0000.0001) %MON extforcing_empmr_max         =   0.0000000000000E+00
(PID.TID 0000.0001) %MON extforcing_empmr_min         =   0.0000000000000E+00
(PID.TID 0000.0001) %MON extforcing_empmr_mean        =   0.0000000000000E+00
(PID.TID 0000.0001) %MON extforcing_empmr_sd          =   0.0000000000000E+00
(PID.TID 0000.0001) %MON extforcing_empmr_del2        =   0.0000000000000E+00
(PID.TID 0000.0001) %MON extforcing_fu_max            =   1.0000000000000E-01
(PID.TID 0000.0001) %MON extforcing_fu_min            =   1.0000000000000E-01
(PID.TID 0000.0001) %MON extforcing_fu_mean           =   1.0000000000000E-01
(PID.TID 0000.0001) %MON extforcing_fu_sd             =   0.0000000000000E+00
(PID.TID 0000.0001) %MON extforcing_fu_del2           =   0.0000000000000E+00
(PID.TID 0000.0001) %MON extforcing_fv_max            =   0.0000000000000E+00
(PID.TID 0000.0001) %MON extforcing_fv_min            =   0.0000000000000E+00
(PID.TID 0000.0001) %MON extforcing_fv_mean           =   0.0000000000000E+00
(PID.TID 0000.0001) %MON extforcing_fv_sd             =   0.0000000000000E+00
(PID.TID 0000.0001) %MON extforcing_fv_del2           =   0.0000000000000E+00
(PID.TID 0000.0001) %MON advcfl_uvel_max              =   1.4432912973535E-04
(PID.TID 0000.0001) %MON advcfl_vvel_max              =   2.5695367197771E-04
(PID.TID 0000.0001) %MON advcfl_wvel_max              =   4.4744880008511E-06
(PID.TID 0000.0001) %MON advcfl_W_hf_max              =   1.1186220002128E-05
(PID.TID 0000.0001) %MON pe_b_mean                    =   3.9374338209690E-10
(PID.TID 0000.0001) %MON ke_max                       =   1.2685382298527E-04
(PID.TID 0000.0001) %MON ke_mean                      =   2.7876021292754E-06
(PID.TID 0000.0001) %MON ke_vol                       =   4.4009158039362E+15
(PID.TID 0000.0001) %MON vort_r_min                   =  -2.2284490279146E-09
(PID.TID 0000.0001) %MON vort_r_max                   =   6.0392681550772E-09
(PID.TID 0000.0001) %MON vort_a_mean                  =  -1.1390240000000E-04
(PID.TID 0000.0001) %MON vort_a_sd                    =   3.7035145534055E-06
(PID.TID 0000.0001) %MON vort_p_mean                  =  -1.5528913309106E-04
(PID.TID 0000.0001) %MON vort_p_sd                    =   4.1188237128137E-05
(PID.TID 0000.0001) %MON surfExpan_theta_mean         =   1.7785080251929E-07
(PID.TID 0000.0001) %MON surfExpan_salt_mean          =   1.5561945220438E-06
(PID.TID 0000.0001) // =======================================================
(PID.TID 0000.0001) // End MONITOR dynamic field statistics
(PID.TID 0000.0001) // =======================================================
 cg2d: Sum(rhs),rhsMax =  -1.31144322332613E+01  8.30737102828387E-04
(PID.TID 0000.0001)                    cg2d_init_res =    8.03487295551385E-01
(PID.TID 0000.0001)                       cg2d_iters =    14
(PID.TID 0000.0001)                         cg2d_res =    3.99850321402176E-14
(PID.TID 0000.0001) // =======================================================
(PID.TID 0000.0001) // Begin MONITOR dynamic field statistics
(PID.TID 0000.0001) // =======================================================
(PID.TID 0000.0001) %MON time_tsnumber                =                     6
(PID.TID 0000.0001) %MON time_secondsf                =   2.1600000000000E+04
(PID.TID 0000.0001) %MON dynstat_eta_max              =   7.3281067186733E-04
(PID.TID 0000.0001) %MON dynstat_eta_min              =   6.9058386844703E-04
(PID.TID 0000.0001) %MON dynstat_eta_mean             =   7.0597302442767E-04
(PID.TID 0000.0001) %MON dynstat_eta_sd               =   1.0439025804325E-05
(PID.TID 0000.0001) %MON dynstat_eta_del2             =   4.0872938777311E-06
(PID.TID 0000.0001) %MON dynstat_uvel_max             =   5.3372309662735E-03
(PID.TID 0000.0001) %MON dynstat_uvel_min             =  -2.2140961058479E-05
(PID.TID 0000.0001) %MON dynstat_uvel_mean            =   1.0283157514289E-04
(PID.TID 0000.0001) %MON dynstat_uvel_sd              =   6.8796073596172E-04
(PID.TID 0000.0001) %MON dynstat_uvel_del2            =   6.5897657634745E-05
(PID.TID 0000.0001) %MON dynstat_vvel_max             =   1.6726289870128E-02
(PID.TID 0000.0001) %MON dynstat_vvel_min             =  -1.5751127995137E-05
(PID.TID 0000.0001) %MON dynstat_vvel_mean            =   3.8961073256631E-04
(PID.TID 0000.0001) %MON dynstat_vvel_sd              =   2.4087167512486E-03
(PID.TID 0000.0001) %MON dynstat_vvel_del2            =   4.5086071110424E-05
(PID.TID 0000.0001) %MON dynstat_wvel_max             =   2.9721216847062E-07
(PID.TID 0000.0001) %MON dynstat_wvel_min             =  -3.1835882901544E-07
(PID.TID 0000.0001) %MON dynstat_wvel_mean            =   9.0912417330426E-10
(PID.TID 0000.0001) %MON dynstat_wvel_sd              =   1.6527802060087E-07
(PID.TID 0000.0001) %MON dynstat_wvel_del2            =   9.9438701463450E-08
(PID.TID 0000.0001) %MON dynstat_theta_max            =   4.0000000000000E+00
(PID.TID 0000.0001) %MON dynstat_theta_min            =   4.0000000000000E+00
(PID.TID 0000.0001) %MON dynstat_theta_mean           =   4.0000000000000E+00
(PID.TID 0000.0001) %MON dynstat_theta_sd             =   0.0000000000000E+00
(PID.TID 0000.0001) %MON dynstat_theta_del2           =   0.0000000000000E+00
(PID.TID 0000.0001) %MON dynstat_salt_max             =   3.5000000000000E+01
(PID.TID 0000.0001) %MON dynstat_salt_min             =   3.5000000000000E+01
(PID.TID 0000.0001) %MON dynstat_salt_mean            =   3.5000000000000E+01
(PID.TID 0000.0001) %MON dynstat_salt_sd              =   0.0000000000000E+00
(PID.TID 0000.0001) %MON dynstat_salt_del2            =   0.0000000000000E+00
(PID.TID 0000.0001) %MON dynstat_sst_max              =   4.0000000000000E+00
(PID.TID 0000.0001) %MON dynstat_sst_min              =   4.0000000000000E+00
(PID.TID 0000.0001) %MON dynstat_sst_mean             =   4.0000000000000E+00
(PID.TID 0000.0001) %MON dynstat_sst_sd               =   0.0000000000000E+00
(PID.TID 0000.0001) %MON dynstat_sst_del2             =   0.0000000000000E+00
(PID.TID 0000.0001) %MON dynstat_sss_max              =   3.5000000000000E+01
(PID.TID 0000.0001) %MON dynstat_sss_min              =   3.5000000000000E+01
(PID.TID 0000.0001) %MON dynstat_sss_mean             =   3.5000000000000E+01
(PID.TID 0000.0001) %MON dynstat_sss_sd               =   0.0000000000000E+00
(PID.TID 0000.0001) %MON dynstat_sss_del2             =   0.0000000000000E+00
(PID.TID 0000.0001) %MON extforcing_qnet_max          =   0.0000000000000E+00
(PID.TID 0000.0001) %MON extforcing_qnet_min          =   0.0000000000000E+00
(PID.TID 0000.0001) %MON extforcing_qnet_mean         =   0.0000000000000E+00
(PID.TID 0000.0001) %MON extforcing_qnet_sd           =   0.0000000000000E+00
(PID.TID 0000.0001) %MON extforcing_qnet_del2         =   0.0000000000000E+00
(PID.TID 0000.0001) %MON extforcing_qsw_max           =   0.0000000000000E+00
(PID.TID 0000.0001) %MON extforcing_qsw_min           =   0.0000000000000E+00
(PID.TID 0000.0001) %MON extforcing_qsw_mean          =   0.0000000000000E+00
(PID.TID 0000.0001) %MON extforcing_qsw_sd            =   0.0000000000000E+00
(PID.TID 0000.0001) %MON extforcing_qsw_del2          =   0.0000000000000E+00
(PID.TID 0000.0001) %MON extforcing_empmr_max         =   0.0000000000000E+00
(PID.TID 0000.0001) %MON extforcing_empmr_min         =   0.0000000000000E+00
(PID.TID 0000.0001) %MON extforcing_empmr_mean        =   0.0000000000000E+00
(PID.TID 0000.0001) %MON extforcing_empmr_sd          =   0.0000000000000E+00
(PID.TID 0000.0001) %MON extforcing_empmr_del2        =   0.0000000000000E+00
(PID.TID 0000.0001) %MON extforcing_fu_max            =   1.0000000000000E-01
(PID.TID 0000.0001) %MON extforcing_fu_min            =   1.0000000000000E-01
(PID.TID 0000.0001) %MON extforcing_fu_mean           =   1.0000000000000E-01
(PID.TID 0000.0001) %MON extforcing_fu_sd             =   0.0000000000000E+00
(PID.TID 0000.0001) %MON extforcing_fu_del2           =   0.0000000000000E+00
(PID.TID 0000.0001) %MON extforcing_fv_max            =   0.0000000000000E+00
(PID.TID 0000.0001) %MON extforcing_fv_min            =   0.0000000000000E+00
(PID.TID 0000.0001) %MON extforcing_fv_mean           =   0.0000000000000E+00
(PID.TID 0000.0001) %MON extforcing_fv_sd             =   0.0000000000000E+00
(PID.TID 0000.0001) %MON extforcing_fv_del2           =   0.0000000000000E+00
(PID.TID 0000.0001) %MON advcfl_uvel_max              =   9.6070157392923E-05
(PID.TID 0000.0001) %MON advcfl_vvel_max              =   3.0107321766230E-04
(PID.TID 0000.0001) %MON advcfl_wvel_max              =   4.5843671378223E-06
(PID.TID 0000.0001) %MON advcfl_W_hf_max              =   1.1460917844556E-05
(PID.TID 0000.0001) %MON pe_b_mean                    =   5.5560623681644E-10
(PID.TID 0000.0001) %MON ke_max                       =   1.4699173450944E-04
(PID.TID 0000.0001) %MON ke_mean                      =   3.2187886088738E-06
(PID.TID 0000.0001) %MON ke_vol                       =   4.4009158039362E+15
(PID.TID 0000.0001) %MON vort_r_min                   =  -3.5290683994828E-09
(PID.TID 0000.0001) %MON vort_r_max                   =   9.2765002755769E-09
(PID.TID 0000.0001) %MON vort_a_mean                  =  -1.1390240000000E-04
(PID.TID 0000.0001) %MON vort_a_sd                    =   3.7034959048420E-06
(PID.TID 0000.0001) %MON vort_p_mean                  =  -1.5528913309106E-04
(PID.TID 0000.0001) %MON vort_p_sd                    =   4.1188234639930E-05
(PID.TID 0000.0001) %MON surfExpan_theta_mean         =   1.2405454264843E-07
(PID.TID 0000.0001) %MON surfExpan_salt_mean          =   1.0854772481737E-06
(PID.TID 0000.0001) // =======================================================
(PID.TID 0000.0001) // End MONITOR dynamic field statistics
(PID.TID 0000.0001) // =======================================================
 cg2d: Sum(rhs),rhsMax =  -1.21209090325389E+01  9.52510661965281E-04
(PID.TID 0000.0001)                    cg2d_init_res =    8.27571664156696E-01
(PID.TID 0000.0001)                       cg2d_iters =    14
(PID.TID 0000.0001)                         cg2d_res =    7.32307064349345E-14
(PID.TID 0000.0001) // =======================================================
(PID.TID 0000.0001) // Begin MONITOR dynamic field statistics
(PID.TID 0000.0001) // =======================================================
(PID.TID 0000.0001) %MON time_tsnumber                =                     7
(PID.TID 0000.0001) %MON time_secondsf                =   2.5200000000000E+04
(PID.TID 0000.0001) %MON dynstat_eta_max              =   7.8749990234165E-04
(PID.TID 0000.0001) %MON dynstat_eta_min              =   7.1454030773082E-04
(PID.TID 0000.0001) %MON dynstat_eta_mean             =   7.4813512158606E-04
(PID.TID 0000.0001) %MON dynstat_eta_sd               =   2.0671637628651E-05
(PID.TID 0000.0001) %MON dynstat_eta_del2             =   7.0130563131649E-06
(PID.TID 0000.0001) %MON dynstat_uvel_max             =   1.9300006065773E-03
(PID.TID 0000.0001) %MON dynstat_uvel_min             =  -5.5027013845817E-04
(PID.TID 0000.0001) %MON dynstat_uvel_mean            =   1.1584045106898E-05
(PID.TID 0000.0001) %MON dynstat_uvel_sd              =   2.0551053858566E-04
(PID.TID 0000.0001) %MON dynstat_uvel_del2            =   8.9323904596836E-05
(PID.TID 0000.0001) %MON dynstat_vvel_max             =   1.7529824941368E-02
(PID.TID 0000.0001) %MON dynstat_vvel_min             =  -1.4976216941915E-05
(PID.TID 0000.0001) %MON dynstat_vvel_mean            =   4.1381331405734E-04
(PID.TID 0000.0001) %MON dynstat_vvel_sd              =   2.5409839549473E-03
(PID.TID 0000.0001) %MON dynstat_vvel_del2            =   4.7029666486429E-05
(PID.TID 0000.0001) %MON dynstat_wvel_max             =   1.9130183249649E-07
(PID.TID 0000.0001) %MON dynstat_wvel_min             =  -4.7670151720189E-07
(PID.TID 0000.0001) %MON dynstat_wvel_mean            =   7.7058069382499E-10
(PID.TID 0000.0001) %MON dynstat_wvel_sd              =   2.0709799901219E-07
(PID.TID 0000.0001) %MON dynstat_wvel_del2            =   1.1756519451931E-07
(PID.TID 0000.0001) %MON dynstat_theta_max            =   4.0000000000000E+00
(PID.TID 0000.0001) %MON dynstat_theta_min            =   4.0000000000000E+00
(PID.TID 0000.0001) %MON dynstat_theta_mean           =   4.0000000000000E+00
(PID.TID 0000.0001) %MON dynstat_theta_sd             =   0.0000000000000E+00
(PID.TID 0000.0001) %MON dynstat_theta_del2           =   0.0000000000000E+00
(PID.TID 0000.0001) %MON dynstat_salt_max             =   3.5000000000000E+01
(PID.TID 0000.0001) %MON dynstat_salt_min             =   3.5000000000000E+01
(PID.TID 0000.0001) %MON dynstat_salt_mean            =   3.5000000000000E+01
(PID.TID 0000.0001) %MON dynstat_salt_sd              =   0.0000000000000E+00
(PID.TID 0000.0001) %MON dynstat_salt_del2            =   0.0000000000000E+00
(PID.TID 0000.0001) %MON dynstat_sst_max              =   4.0000000000000E+00
(PID.TID 0000.0001) %MON dynstat_sst_min              =   4.0000000000000E+00
(PID.TID 0000.0001) %MON dynstat_sst_mean             =   4.0000000000000E+00
(PID.TID 0000.0001) %MON dynstat_sst_sd               =   0.0000000000000E+00
(PID.TID 0000.0001) %MON dynstat_sst_del2             =   0.0000000000000E+00
(PID.TID 0000.0001) %MON dynstat_sss_max              =   3.5000000000000E+01
(PID.TID 0000.0001) %MON dynstat_sss_min              =   3.5000000000000E+01
(PID.TID 0000.0001) %MON dynstat_sss_mean             =   3.5000000000000E+01
(PID.TID 0000.0001) %MON dynstat_sss_sd               =   0.0000000000000E+00
(PID.TID 0000.0001) %MON dynstat_sss_del2             =   0.0000000000000E+00
(PID.TID 0000.0001) %MON extforcing_qnet_max          =   0.0000000000000E+00
(PID.TID 0000.0001) %MON extforcing_qnet_min          =   0.0000000000000E+00
(PID.TID 0000.0001) %MON extforcing_qnet_mean         =   0.0000000000000E+00
(PID.TID 0000.0001) %MON extforcing_qnet_sd           =   0.0000000000000E+00
(PID.TID 0000.0001) %MON extforcing_qnet_del2         =   0.0000000000000E+00
(PID.TID 0000.0001) %MON extforcing_qsw_max           =   0.0000000000000E+00
(PID.TID 0000.0001) %MON extforcing_qsw_min           =   0.0000000000000E+00
(PID.TID 0000.0001) %MON extforcing_qsw_mean          =   0.0000000000000E+00
(PID.TID 0000.0001) %MON extforcing_qsw_sd            =   0.0000000000000E+00
(PID.TID 0000.0001) %MON extforcing_qsw_del2          =   0.0000000000000E+00
(PID.TID 0000.0001) %MON extforcing_empmr_max         =   0.0000000000000E+00
(PID.TID 0000.0001) %MON extforcing_empmr_min         =   0.0000000000000E+00
(PID.TID 0000.0001) %MON extforcing_empmr_mean        =   0.0000000000000E+00
(PID.TID 0000.0001) %MON extforcing_empmr_sd          =   0.0000000000000E+00
(PID.TID 0000.0001) %MON extforcing_empmr_del2        =   0.0000000000000E+00
(PID.TID 0000.0001) %MON extforcing_fu_max            =   1.0000000000000E-01
(PID.TID 0000.0001) %MON extforcing_fu_min            =   1.0000000000000E-01
(PID.TID 0000.0001) %MON extforcing_fu_mean           =   1.0000000000000E-01
(PID.TID 0000.0001) %MON extforcing_fu_sd             =   0.0000000000000E+00
(PID.TID 0000.0001) %MON extforcing_fu_del2           =   0.0000000000000E+00
(PID.TID 0000.0001) %MON extforcing_fv_max            =   0.0000000000000E+00
(PID.TID 0000.0001) %MON extforcing_fv_min            =   0.0000000000000E+00
(PID.TID 0000.0001) %MON extforcing_fv_mean           =   0.0000000000000E+00
(PID.TID 0000.0001) %MON extforcing_fv_sd             =   0.0000000000000E+00
(PID.TID 0000.0001) %MON extforcing_fv_del2           =   0.0000000000000E+00
(PID.TID 0000.0001) %MON advcfl_uvel_max              =   3.4740010918391E-05
(PID.TID 0000.0001) %MON advcfl_vvel_max              =   3.1553684894462E-04
(PID.TID 0000.0001) %MON advcfl_wvel_max              =   6.8645018477073E-06
(PID.TID 0000.0001) %MON advcfl_W_hf_max              =   1.7161254619268E-05
(PID.TID 0000.0001) %MON pe_b_mean                    =   6.2429158517765E-10
(PID.TID 0000.0001) %MON ke_max                       =   1.5175355688678E-04
(PID.TID 0000.0001) %MON ke_mean                      =   3.3351048448807E-06
(PID.TID 0000.0001) %MON ke_vol                       =   4.4009158039362E+15
(PID.TID 0000.0001) %MON vort_r_min                   =  -4.8574814518699E-09
(PID.TID 0000.0001) %MON vort_r_max                   =   1.2166110232674E-08
(PID.TID 0000.0001) %MON vort_a_mean                  =  -1.1390240000000E-04
(PID.TID 0000.0001) %MON vort_a_sd                    =   3.7034743811244E-06
(PID.TID 0000.0001) %MON vort_p_mean                  =  -1.5528913309106E-04
(PID.TID 0000.0001) %MON vort_p_sd                    =   4.1188231550698E-05
(PID.TID 0000.0001) %MON surfExpan_theta_mean         =   4.6846774620428E-08
(PID.TID 0000.0001) %MON surfExpan_salt_mean          =   4.0990927792874E-07
(PID.TID 0000.0001) // =======================================================
(PID.TID 0000.0001) // End MONITOR dynamic field statistics
(PID.TID 0000.0001) // =======================================================
 cg2d: Sum(rhs),rhsMax =  -1.07124742372069E+01  1.02806631163207E-03
(PID.TID 0000.0001)                    cg2d_init_res =    8.67251019201507E-01
(PID.TID 0000.0001)                       cg2d_iters =    14
(PID.TID 0000.0001)                         cg2d_res =    8.05403402307370E-14
(PID.TID 0000.0001) // =======================================================
(PID.TID 0000.0001) // Begin MONITOR dynamic field statistics
(PID.TID 0000.0001) // =======================================================
(PID.TID 0000.0001) %MON time_tsnumber                =                     8
(PID.TID 0000.0001) %MON time_secondsf                =   2.8800000000000E+04
(PID.TID 0000.0001) %MON dynstat_eta_max              =   7.6752036445858E-04
(PID.TID 0000.0001) %MON dynstat_eta_min              =   6.6119040184850E-04
(PID.TID 0000.0001) %MON dynstat_eta_mean             =   7.1365107526193E-04
(PID.TID 0000.0001) %MON dynstat_eta_sd               =   3.3400194813728E-05
(PID.TID 0000.0001) %MON dynstat_eta_del2             =   1.1572909861286E-05
(PID.TID 0000.0001) %MON dynstat_uvel_max             =   1.3197997892514E-05
(PID.TID 0000.0001) %MON dynstat_uvel_min             =  -4.2842029956255E-03
(PID.TID 0000.0001) %MON dynstat_uvel_mean            =  -8.0216831593126E-05
(PID.TID 0000.0001) %MON dynstat_uvel_sd              =   4.1421932114569E-04
(PID.TID 0000.0001) %MON dynstat_uvel_del2            =   1.0844883263390E-04
(PID.TID 0000.0001) %MON dynstat_vvel_max             =   1.6799054865856E-02
(PID.TID 0000.0001) %MON dynstat_vvel_min             =  -1.5215502584185E-05
(PID.TID 0000.0001) %MON dynstat_vvel_mean            =   3.9593383127110E-04
(PID.TID 0000.0001) %MON dynstat_vvel_sd              =   2.4310077129335E-03
(PID.TID 0000.0001) %MON dynstat_vvel_del2            =   5.1420211647936E-05
(PID.TID 0000.0001) %MON dynstat_wvel_max             =   3.6796855768021E-07
(PID.TID 0000.0001) %MON dynstat_wvel_min             =  -6.3933519436698E-07
(PID.TID 0000.0001) %MON dynstat_wvel_mean            =   4.7431408792303E-10
(PID.TID 0000.0001) %MON dynstat_wvel_sd              =   2.9967438884408E-07
(PID.TID 0000.0001) %MON dynstat_wvel_del2            =   1.2234595791834E-07
(PID.TID 0000.0001) %MON dynstat_theta_max            =   4.0000000000000E+00
(PID.TID 0000.0001) %MON dynstat_theta_min            =   4.0000000000000E+00
(PID.TID 0000.0001) %MON dynstat_theta_mean           =   4.0000000000000E+00
(PID.TID 0000.0001) %MON dynstat_theta_sd             =   0.0000000000000E+00
(PID.TID 0000.0001) %MON dynstat_theta_del2           =   0.0000000000000E+00
(PID.TID 0000.0001) %MON dynstat_salt_max             =   3.5000000000000E+01
(PID.TID 0000.0001) %MON dynstat_salt_min             =   3.5000000000000E+01
(PID.TID 0000.0001) %MON dynstat_salt_mean            =   3.5000000000000E+01
(PID.TID 0000.0001) %MON dynstat_salt_sd              =   0.0000000000000E+00
(PID.TID 0000.0001) %MON dynstat_salt_del2            =   0.0000000000000E+00
(PID.TID 0000.0001) %MON dynstat_sst_max              =   4.0000000000000E+00
(PID.TID 0000.0001) %MON dynstat_sst_min              =   4.0000000000000E+00
(PID.TID 0000.0001) %MON dynstat_sst_mean             =   4.0000000000000E+00
(PID.TID 0000.0001) %MON dynstat_sst_sd               =   0.0000000000000E+00
(PID.TID 0000.0001) %MON dynstat_sst_del2             =   0.0000000000000E+00
(PID.TID 0000.0001) %MON dynstat_sss_max              =   3.5000000000000E+01
(PID.TID 0000.0001) %MON dynstat_sss_min              =   3.5000000000000E+01
(PID.TID 0000.0001) %MON dynstat_sss_mean             =   3.5000000000000E+01
(PID.TID 0000.0001) %MON dynstat_sss_sd               =   0.0000000000000E+00
(PID.TID 0000.0001) %MON dynstat_sss_del2             =   0.0000000000000E+00
(PID.TID 0000.0001) %MON extforcing_qnet_max          =   0.0000000000000E+00
(PID.TID 0000.0001) %MON extforcing_qnet_min          =   0.0000000000000E+00
(PID.TID 0000.0001) %MON extforcing_qnet_mean         =   0.0000000000000E+00
(PID.TID 0000.0001) %MON extforcing_qnet_sd           =   0.0000000000000E+00
(PID.TID 0000.0001) %MON extforcing_qnet_del2         =   0.0000000000000E+00
(PID.TID 0000.0001) %MON extforcing_qsw_max           =   0.0000000000000E+00
(PID.TID 0000.0001) %MON extforcing_qsw_min           =   0.0000000000000E+00
(PID.TID 0000.0001) %MON extforcing_qsw_mean          =   0.0000000000000E+00
(PID.TID 0000.0001) %MON extforcing_qsw_sd            =   0.0000000000000E+00
(PID.TID 0000.0001) %MON extforcing_qsw_del2          =   0.0000000000000E+00
(PID.TID 0000.0001) %MON extforcing_empmr_max         =   0.0000000000000E+00
(PID.TID 0000.0001) %MON extforcing_empmr_min         =   0.0000000000000E+00
(PID.TID 0000.0001) %MON extforcing_empmr_mean        =   0.0000000000000E+00
(PID.TID 0000.0001) %MON extforcing_empmr_sd          =   0.0000000000000E+00
(PID.TID 0000.0001) %MON extforcing_empmr_del2        =   0.0000000000000E+00
(PID.TID 0000.0001) %MON extforcing_fu_max            =   1.0000000000000E-01
(PID.TID 0000.0001) %MON extforcing_fu_min            =   1.0000000000000E-01
(PID.TID 0000.0001) %MON extforcing_fu_mean           =   1.0000000000000E-01
(PID.TID 0000.0001) %MON extforcing_fu_sd             =   0.0000000000000E+00
(PID.TID 0000.0001) %MON extforcing_fu_del2           =   0.0000000000000E+00
(PID.TID 0000.0001) %MON extforcing_fv_max            =   0.0000000000000E+00
(PID.TID 0000.0001) %MON extforcing_fv_min            =   0.0000000000000E+00
(PID.TID 0000.0001) %MON extforcing_fv_mean           =   0.0000000000000E+00
(PID.TID 0000.0001) %MON extforcing_fv_sd             =   0.0000000000000E+00
(PID.TID 0000.0001) %MON extforcing_fv_del2           =   0.0000000000000E+00
(PID.TID 0000.0001) %MON advcfl_uvel_max              =   7.7115653921259E-05
(PID.TID 0000.0001) %MON advcfl_vvel_max              =   3.0238298758540E-04
(PID.TID 0000.0001) %MON advcfl_wvel_max              =   9.2064267988845E-06
(PID.TID 0000.0001) %MON advcfl_W_hf_max              =   2.3016066997211E-05
(PID.TID 0000.0001) %MON pe_b_mean                    =   5.6887656725195E-10
(PID.TID 0000.0001) %MON ke_max                       =   1.4153909410962E-04
(PID.TID 0000.0001) %MON ke_mean                      =   3.1222872425842E-06
(PID.TID 0000.0001) %MON ke_vol                       =   4.4009158039362E+15
(PID.TID 0000.0001) %MON vort_r_min                   =  -6.0299787805390E-09
(PID.TID 0000.0001) %MON vort_r_max                   =   1.4082932704132E-08
(PID.TID 0000.0001) %MON vort_a_mean                  =  -1.1390240000000E-04
(PID.TID 0000.0001) %MON vort_a_sd                    =   3.7034518369672E-06
(PID.TID 0000.0001) %MON vort_p_mean                  =  -1.5528913309106E-04
(PID.TID 0000.0001) %MON vort_p_sd                    =   4.1188228003665E-05
(PID.TID 0000.0001) %MON surfExpan_theta_mean         =  -3.8315607026814E-08
(PID.TID 0000.0001) %MON surfExpan_salt_mean          =  -3.3526156148462E-07
(PID.TID 0000.0001) // =======================================================
(PID.TID 0000.0001) // End MONITOR dynamic field statistics
(PID.TID 0000.0001) // =======================================================
 cg2d: Sum(rhs),rhsMax =  -7.41375936665711E+00  1.27086596334071E-03
(PID.TID 0000.0001)                    cg2d_init_res =    7.27072362375632E-01
(PID.TID 0000.0001)                       cg2d_iters =    14
(PID.TID 0000.0001)                         cg2d_res =    4.69219410398730E-14
(PID.TID 0000.0001) // =======================================================
(PID.TID 0000.0001) // Begin MONITOR dynamic field statistics
(PID.TID 0000.0001) // =======================================================
(PID.TID 0000.0001) %MON time_tsnumber                =                     9
(PID.TID 0000.0001) %MON time_secondsf                =   3.2400000000000E+04
(PID.TID 0000.0001) %MON dynstat_eta_max              =   6.8947188135067E-04
(PID.TID 0000.0001) %MON dynstat_eta_min              =   5.4178114541748E-04
(PID.TID 0000.0001) %MON dynstat_eta_mean             =   6.1053875967849E-04
(PID.TID 0000.0001) %MON dynstat_eta_sd               =   4.5678633540613E-05
(PID.TID 0000.0001) %MON dynstat_eta_del2             =   1.5857093819211E-05
(PID.TID 0000.0001) %MON dynstat_uvel_max             =   1.9361253242154E-05
(PID.TID 0000.0001) %MON dynstat_uvel_min             =  -7.0767857738109E-03
(PID.TID 0000.0001) %MON dynstat_uvel_mean            =  -1.5452647602818E-04
(PID.TID 0000.0001) %MON dynstat_uvel_sd              =   8.0894137952744E-04
(PID.TID 0000.0001) %MON dynstat_uvel_del2            =   1.1992298114961E-04
(PID.TID 0000.0001) %MON dynstat_vvel_max             =   1.5157219525181E-02
(PID.TID 0000.0001) %MON dynstat_vvel_min             =  -3.1490768888359E-05
(PID.TID 0000.0001) %MON dynstat_vvel_mean            =   3.4024265384176E-04
(PID.TID 0000.0001) %MON dynstat_vvel_sd              =   2.1145933749298E-03
(PID.TID 0000.0001) %MON dynstat_vvel_del2            =   6.9551493240120E-05
(PID.TID 0000.0001) %MON dynstat_wvel_max             =   5.6171541912671E-07
(PID.TID 0000.0001) %MON dynstat_wvel_min             =  -7.8178879082627E-07
(PID.TID 0000.0001) %MON dynstat_wvel_mean            =   4.0243559344858E-11
(PID.TID 0000.0001) %MON dynstat_wvel_sd              =   4.3839419463768E-07
(PID.TID 0000.0001) %MON dynstat_wvel_del2            =   1.3491548793165E-07
(PID.TID 0000.0001) %MON dynstat_theta_max            =   4.0000000000000E+00
(PID.TID 0000.0001) %MON dynstat_theta_min            =   4.0000000000000E+00
(PID.TID 0000.0001) %MON dynstat_theta_mean           =   4.0000000000000E+00
(PID.TID 0000.0001) %MON dynstat_theta_sd             =   0.0000000000000E+00
(PID.TID 0000.0001) %MON dynstat_theta_del2           =   0.0000000000000E+00
(PID.TID 0000.0001) %MON dynstat_salt_max             =   3.5000000000000E+01
(PID.TID 0000.0001) %MON dynstat_salt_min             =   3.5000000000000E+01
(PID.TID 0000.0001) %MON dynstat_salt_mean            =   3.5000000000000E+01
(PID.TID 0000.0001) %MON dynstat_salt_sd              =   0.0000000000000E+00
(PID.TID 0000.0001) %MON dynstat_salt_del2            =   0.0000000000000E+00
(PID.TID 0000.0001) %MON dynstat_sst_max              =   4.0000000000000E+00
(PID.TID 0000.0001) %MON dynstat_sst_min              =   4.0000000000000E+00
(PID.TID 0000.0001) %MON dynstat_sst_mean             =   4.0000000000000E+00
(PID.TID 0000.0001) %MON dynstat_sst_sd               =   0.0000000000000E+00
(PID.TID 0000.0001) %MON dynstat_sst_del2             =   0.0000000000000E+00
(PID.TID 0000.0001) %MON dynstat_sss_max              =   3.5000000000000E+01
(PID.TID 0000.0001) %MON dynstat_sss_min              =   3.5000000000000E+01
(PID.TID 0000.0001) %MON dynstat_sss_mean             =   3.5000000000000E+01
(PID.TID 0000.0001) %MON dynstat_sss_sd               =   0.0000000000000E+00
(PID.TID 0000.0001) %MON dynstat_sss_del2             =   0.0000000000000E+00
(PID.TID 0000.0001) %MON extforcing_qnet_max          =   0.0000000000000E+00
(PID.TID 0000.0001) %MON extforcing_qnet_min          =   0.0000000000000E+00
(PID.TID 0000.0001) %MON extforcing_qnet_mean         =   0.0000000000000E+00
(PID.TID 0000.0001) %MON extforcing_qnet_sd           =   0.0000000000000E+00
(PID.TID 0000.0001) %MON extforcing_qnet_del2         =   0.0000000000000E+00
(PID.TID 0000.0001) %MON extforcing_qsw_max           =   0.0000000000000E+00
(PID.TID 0000.0001) %MON extforcing_qsw_min           =   0.0000000000000E+00
(PID.TID 0000.0001) %MON extforcing_qsw_mean          =   0.0000000000000E+00
(PID.TID 0000.0001) %MON extforcing_qsw_sd            =   0.0000000000000E+00
(PID.TID 0000.0001) %MON extforcing_qsw_del2          =   0.0000000000000E+00
(PID.TID 0000.0001) %MON extforcing_empmr_max         =   0.0000000000000E+00
(PID.TID 0000.0001) %MON extforcing_empmr_min         =   0.0000000000000E+00
(PID.TID 0000.0001) %MON extforcing_empmr_mean        =   0.0000000000000E+00
(PID.TID 0000.0001) %MON extforcing_empmr_sd          =   0.0000000000000E+00
(PID.TID 0000.0001) %MON extforcing_empmr_del2        =   0.0000000000000E+00
(PID.TID 0000.0001) %MON extforcing_fu_max            =   1.0000000000000E-01
(PID.TID 0000.0001) %MON extforcing_fu_min            =   1.0000000000000E-01
(PID.TID 0000.0001) %MON extforcing_fu_mean           =   1.0000000000000E-01
(PID.TID 0000.0001) %MON extforcing_fu_sd             =   0.0000000000000E+00
(PID.TID 0000.0001) %MON extforcing_fu_del2           =   0.0000000000000E+00
(PID.TID 0000.0001) %MON extforcing_fv_max            =   0.0000000000000E+00
(PID.TID 0000.0001) %MON extforcing_fv_min            =   0.0000000000000E+00
(PID.TID 0000.0001) %MON extforcing_fv_mean           =   0.0000000000000E+00
(PID.TID 0000.0001) %MON extforcing_fv_sd             =   0.0000000000000E+00
(PID.TID 0000.0001) %MON extforcing_fv_del2           =   0.0000000000000E+00
(PID.TID 0000.0001) %MON advcfl_uvel_max              =   1.2738214392860E-04
(PID.TID 0000.0001) %MON advcfl_vvel_max              =   2.7282995145326E-04
(PID.TID 0000.0001) %MON advcfl_wvel_max              =   1.1257758587898E-05
(PID.TID 0000.0001) %MON advcfl_W_hf_max              =   2.8144396469746E-05
(PID.TID 0000.0001) %MON pe_b_mean                    =   4.1777904058627E-10
(PID.TID 0000.0001) %MON ke_max                       =   1.2231549799128E-04
(PID.TID 0000.0001) %MON ke_mean                      =   2.6327673960478E-06
(PID.TID 0000.0001) %MON ke_vol                       =   4.4009158039362E+15
(PID.TID 0000.0001) %MON vort_r_min                   =  -6.8900779713743E-09
(PID.TID 0000.0001) %MON vort_r_max                   =   1.4569612871217E-08
(PID.TID 0000.0001) %MON vort_a_mean                  =  -1.1390240000000E-04
(PID.TID 0000.0001) %MON vort_a_sd                    =   3.7034302292727E-06
(PID.TID 0000.0001) %MON vort_p_mean                  =  -1.5528913309106E-04
(PID.TID 0000.0001) %MON vort_p_sd                    =   4.1188224192748E-05
(PID.TID 0000.0001) %MON surfExpan_theta_mean         =  -1.1456923953715E-07
(PID.TID 0000.0001) %MON surfExpan_salt_mean          =  -1.0024808459501E-06
(PID.TID 0000.0001) // =======================================================
(PID.TID 0000.0001) // End MONITOR dynamic field statistics
(PID.TID 0000.0001) // =======================================================
 cg2d: Sum(rhs),rhsMax =  -4.70217533455406E+00  1.51019014093808E-03
(PID.TID 0000.0001)                    cg2d_init_res =    5.73697283955380E-01
(PID.TID 0000.0001)                       cg2d_iters =    14
(PID.TID 0000.0001)                         cg2d_res =    8.91676546153775E-15
(PID.TID 0000.0001) // =======================================================
(PID.TID 0000.0001) // Begin MONITOR dynamic field statistics
(PID.TID 0000.0001) // =======================================================
(PID.TID 0000.0001) %MON time_tsnumber                =                    10
(PID.TID 0000.0001) %MON time_secondsf                =   3.6000000000000E+04
(PID.TID 0000.0001) %MON dynstat_eta_max              =   5.5749971351706E-04
(PID.TID 0000.0001) %MON dynstat_eta_min              =   3.8041936010924E-04
(PID.TID 0000.0001) %MON dynstat_eta_mean             =   4.6015638826213E-04
(PID.TID 0000.0001) %MON dynstat_eta_sd               =   5.5424872230953E-05
(PID.TID 0000.0001) %MON dynstat_eta_del2             =   1.9245609980925E-05
(PID.TID 0000.0001) %MON dynstat_uvel_max             =   3.1097993108441E-05
(PID.TID 0000.0001) %MON dynstat_uvel_min             =  -8.4123484151037E-03
(PID.TID 0000.0001) %MON dynstat_uvel_mean            =  -1.9705871125713E-04
(PID.TID 0000.0001) %MON dynstat_uvel_sd              =   1.0294513357557E-03
(PID.TID 0000.0001) %MON dynstat_uvel_del2            =   1.2229182510841E-04
(PID.TID 0000.0001) %MON dynstat_vvel_max             =   1.2586113758364E-02
(PID.TID 0000.0001) %MON dynstat_vvel_min             =  -4.7970357189243E-05
(PID.TID 0000.0001) %MON dynstat_vvel_mean            =   2.5836164672236E-04
(PID.TID 0000.0001) %MON dynstat_vvel_sd              =   1.6663758053497E-03
(PID.TID 0000.0001) %MON dynstat_vvel_del2            =   8.5052444219974E-05
(PID.TID 0000.0001) %MON dynstat_wvel_max             =   7.5762716516663E-07
(PID.TID 0000.0001) %MON dynstat_wvel_min             =  -8.7929085170422E-07
(PID.TID 0000.0001) %MON dynstat_wvel_mean            =  -4.7779618377456E-10
(PID.TID 0000.0001) %MON dynstat_wvel_sd              =   5.8893485717089E-07
(PID.TID 0000.0001) %MON dynstat_wvel_del2            =   1.8889502507653E-07
(PID.TID 0000.0001) %MON dynstat_theta_max            =   4.0000000000000E+00
(PID.TID 0000.0001) %MON dynstat_theta_min            =   4.0000000000000E+00
(PID.TID 0000.0001) %MON dynstat_theta_mean           =   4.0000000000000E+00
(PID.TID 0000.0001) %MON dynstat_theta_sd             =   0.0000000000000E+00
(PID.TID 0000.0001) %MON dynstat_theta_del2           =   0.0000000000000E+00
(PID.TID 0000.0001) %MON dynstat_salt_max             =   3.5000000000000E+01
(PID.TID 0000.0001) %MON dynstat_salt_min             =   3.5000000000000E+01
(PID.TID 0000.0001) %MON dynstat_salt_mean            =   3.5000000000000E+01
(PID.TID 0000.0001) %MON dynstat_salt_sd              =   0.0000000000000E+00
(PID.TID 0000.0001) %MON dynstat_salt_del2            =   0.0000000000000E+00
(PID.TID 0000.0001) %MON dynstat_sst_max              =   4.0000000000000E+00
(PID.TID 0000.0001) %MON dynstat_sst_min              =   4.0000000000000E+00
(PID.TID 0000.0001) %MON dynstat_sst_mean             =   4.0000000000000E+00
(PID.TID 0000.0001) %MON dynstat_sst_sd               =   0.0000000000000E+00
(PID.TID 0000.0001) %MON dynstat_sst_del2             =   0.0000000000000E+00
(PID.TID 0000.0001) %MON dynstat_sss_max              =   3.5000000000000E+01
(PID.TID 0000.0001) %MON dynstat_sss_min              =   3.5000000000000E+01
(PID.TID 0000.0001) %MON dynstat_sss_mean             =   3.5000000000000E+01
(PID.TID 0000.0001) %MON dynstat_sss_sd               =   0.0000000000000E+00
(PID.TID 0000.0001) %MON dynstat_sss_del2             =   0.0000000000000E+00
(PID.TID 0000.0001) %MON extforcing_qnet_max          =   0.0000000000000E+00
(PID.TID 0000.0001) %MON extforcing_qnet_min          =   0.0000000000000E+00
(PID.TID 0000.0001) %MON extforcing_qnet_mean         =   0.0000000000000E+00
(PID.TID 0000.0001) %MON extforcing_qnet_sd           =   0.0000000000000E+00
(PID.TID 0000.0001) %MON extforcing_qnet_del2         =   0.0000000000000E+00
(PID.TID 0000.0001) %MON extforcing_qsw_max           =   0.0000000000000E+00
(PID.TID 0000.0001) %MON extforcing_qsw_min           =   0.0000000000000E+00
(PID.TID 0000.0001) %MON extforcing_qsw_mean          =   0.0000000000000E+00
(PID.TID 0000.0001) %MON extforcing_qsw_sd            =   0.0000000000000E+00
(PID.TID 0000.0001) %MON extforcing_qsw_del2          =   0.0000000000000E+00
(PID.TID 0000.0001) %MON extforcing_empmr_max         =   0.0000000000000E+00
(PID.TID 0000.0001) %MON extforcing_empmr_min         =   0.0000000000000E+00
(PID.TID 0000.0001) %MON extforcing_empmr_mean        =   0.0000000000000E+00
(PID.TID 0000.0001) %MON extforcing_empmr_sd          =   0.0000000000000E+00
(PID.TID 0000.0001) %MON extforcing_empmr_del2        =   0.0000000000000E+00
(PID.TID 0000.0001) %MON extforcing_fu_max            =   1.0000000000000E-01
(PID.TID 0000.0001) %MON extforcing_fu_min            =   1.0000000000000E-01
(PID.TID 0000.0001) %MON extforcing_fu_mean           =   1.0000000000000E-01
(PID.TID 0000.0001) %MON extforcing_fu_sd             =   0.0000000000000E+00
(PID.TID 0000.0001) %MON extforcing_fu_del2           =   0.0000000000000E+00
(PID.TID 0000.0001) %MON extforcing_fv_max            =   0.0000000000000E+00
(PID.TID 0000.0001) %MON extforcing_fv_min            =   0.0000000000000E+00
(PID.TID 0000.0001) %MON extforcing_fv_mean           =   0.0000000000000E+00
(PID.TID 0000.0001) %MON extforcing_fv_sd             =   0.0000000000000E+00
(PID.TID 0000.0001) %MON extforcing_fv_del2           =   0.0000000000000E+00
(PID.TID 0000.0001) %MON advcfl_uvel_max              =   1.5142227147187E-04
(PID.TID 0000.0001) %MON advcfl_vvel_max              =   2.2655004765055E-04
(PID.TID 0000.0001) %MON advcfl_wvel_max              =   1.2661788264541E-05
(PID.TID 0000.0001) %MON advcfl_W_hf_max              =   3.1654470661352E-05
(PID.TID 0000.0001) %MON pe_b_mean                    =   2.3942098300029E-10
(PID.TID 0000.0001) %MON ke_max                       =   9.5344313149925E-05
(PID.TID 0000.0001) %MON ke_mean                      =   1.9710806267617E-06
(PID.TID 0000.0001) %MON ke_vol                       =   4.4009158039362E+15
(PID.TID 0000.0001) %MON vort_r_min                   =  -7.3420897849840E-09
(PID.TID 0000.0001) %MON vort_r_max                   =   1.3424252070695E-08
(PID.TID 0000.0001) %MON vort_a_mean                  =  -1.1390240000000E-04
(PID.TID 0000.0001) %MON vort_a_sd                    =   3.7034112854312E-06
(PID.TID 0000.0001) %MON vort_p_mean                  =  -1.5528913309106E-04
(PID.TID 0000.0001) %MON vort_p_sd                    =   4.1188220342498E-05
(PID.TID 0000.0001) %MON surfExpan_theta_mean         =  -1.6709152379595E-07
(PID.TID 0000.0001) %MON surfExpan_salt_mean          =  -1.4620508332146E-06
(PID.TID 0000.0001) // =======================================================
(PID.TID 0000.0001) // End MONITOR dynamic field statistics
(PID.TID 0000.0001) // =======================================================
 cg2d: Sum(rhs),rhsMax =  -2.72440685927919E+00  1.65833738310010E-03
(PID.TID 0000.0001)                    cg2d_init_res =    4.40535474368402E-01
(PID.TID 0000.0001)                       cg2d_iters =    14
(PID.TID 0000.0001)                         cg2d_res =    7.41844523160789E-14
(PID.TID 0000.0001) // =======================================================
(PID.TID 0000.0001) // Begin MONITOR dynamic field statistics
(PID.TID 0000.0001) // =======================================================
(PID.TID 0000.0001) %MON time_tsnumber                =                    11
(PID.TID 0000.0001) %MON time_secondsf                =   3.9600000000000E+04
(PID.TID 0000.0001) %MON dynstat_eta_max              =   3.9878717812167E-04
(PID.TID 0000.0001) %MON dynstat_eta_min              =   2.0906225009382E-04
(PID.TID 0000.0001) %MON dynstat_eta_mean             =   2.9276547605030E-04
(PID.TID 0000.0001) %MON dynstat_eta_sd               =   6.1255967156542E-05
(PID.TID 0000.0001) %MON dynstat_eta_del2             =   2.1298215871617E-05
(PID.TID 0000.0001) %MON dynstat_uvel_max             =   4.3792362059634E-05
(PID.TID 0000.0001) %MON dynstat_uvel_min             =  -8.0863177643941E-03
(PID.TID 0000.0001) %MON dynstat_uvel_mean            =  -2.0002704183284E-04
(PID.TID 0000.0001) %MON dynstat_uvel_sd              =   1.0340433527688E-03
(PID.TID 0000.0001) %MON dynstat_uvel_del2            =   1.3141353237071E-04
(PID.TID 0000.0001) %MON dynstat_vvel_max             =   9.6372840311844E-03
(PID.TID 0000.0001) %MON dynstat_vvel_min             =  -1.3640209948699E-04
(PID.TID 0000.0001) %MON dynstat_vvel_mean            =   1.6684726337103E-04
(PID.TID 0000.0001) %MON dynstat_vvel_sd              =   1.1838486311333E-03
(PID.TID 0000.0001) %MON dynstat_vvel_del2            =   1.0780410182221E-04
(PID.TID 0000.0001) %MON dynstat_wvel_max             =   9.2833050435781E-07
(PID.TID 0000.0001) %MON dynstat_wvel_min             =  -1.0400491411280E-06
(PID.TID 0000.0001) %MON dynstat_wvel_mean            =  -9.9685896694200E-10
(PID.TID 0000.0001) %MON dynstat_wvel_sd              =   7.1311523590603E-07
(PID.TID 0000.0001) %MON dynstat_wvel_del2            =   2.3552536574613E-07
(PID.TID 0000.0001) %MON dynstat_theta_max            =   4.0000000000000E+00
(PID.TID 0000.0001) %MON dynstat_theta_min            =   4.0000000000000E+00
(PID.TID 0000.0001) %MON dynstat_theta_mean           =   4.0000000000000E+00
(PID.TID 0000.0001) %MON dynstat_theta_sd             =   0.0000000000000E+00
(PID.TID 0000.0001) %MON dynstat_theta_del2           =   0.0000000000000E+00
(PID.TID 0000.0001) %MON dynstat_salt_max             =   3.5000000000000E+01
(PID.TID 0000.0001) %MON dynstat_salt_min             =   3.5000000000000E+01
(PID.TID 0000.0001) %MON dynstat_salt_mean            =   3.5000000000000E+01
(PID.TID 0000.0001) %MON dynstat_salt_sd              =   0.0000000000000E+00
(PID.TID 0000.0001) %MON dynstat_salt_del2            =   0.0000000000000E+00
(PID.TID 0000.0001) %MON dynstat_sst_max              =   4.0000000000000E+00
(PID.TID 0000.0001) %MON dynstat_sst_min              =   4.0000000000000E+00
(PID.TID 0000.0001) %MON dynstat_sst_mean             =   4.0000000000000E+00
(PID.TID 0000.0001) %MON dynstat_sst_sd               =   0.0000000000000E+00
(PID.TID 0000.0001) %MON dynstat_sst_del2             =   0.0000000000000E+00
(PID.TID 0000.0001) %MON dynstat_sss_max              =   3.5000000000000E+01
(PID.TID 0000.0001) %MON dynstat_sss_min              =   3.5000000000000E+01
(PID.TID 0000.0001) %MON dynstat_sss_mean             =   3.5000000000000E+01
(PID.TID 0000.0001) %MON dynstat_sss_sd               =   0.0000000000000E+00
(PID.TID 0000.0001) %MON dynstat_sss_del2             =   0.0000000000000E+00
(PID.TID 0000.0001) %MON extforcing_qnet_max          =   0.0000000000000E+00
(PID.TID 0000.0001) %MON extforcing_qnet_min          =   0.0000000000000E+00
(PID.TID 0000.0001) %MON extforcing_qnet_mean         =   0.0000000000000E+00
(PID.TID 0000.0001) %MON extforcing_qnet_sd           =   0.0000000000000E+00
(PID.TID 0000.0001) %MON extforcing_qnet_del2         =   0.0000000000000E+00
(PID.TID 0000.0001) %MON extforcing_qsw_max           =   0.0000000000000E+00
(PID.TID 0000.0001) %MON extforcing_qsw_min           =   0.0000000000000E+00
(PID.TID 0000.0001) %MON extforcing_qsw_mean          =   0.0000000000000E+00
(PID.TID 0000.0001) %MON extforcing_qsw_sd            =   0.0000000000000E+00
(PID.TID 0000.0001) %MON extforcing_qsw_del2          =   0.0000000000000E+00
(PID.TID 0000.0001) %MON extforcing_empmr_max         =   0.0000000000000E+00
(PID.TID 0000.0001) %MON extforcing_empmr_min         =   0.0000000000000E+00
(PID.TID 0000.0001) %MON extforcing_empmr_mean        =   0.0000000000000E+00
(PID.TID 0000.0001) %MON extforcing_empmr_sd          =   0.0000000000000E+00
(PID.TID 0000.0001) %MON extforcing_empmr_del2        =   0.0000000000000E+00
(PID.TID 0000.0001) %MON extforcing_fu_max            =   1.0000000000000E-01
(PID.TID 0000.0001) %MON extforcing_fu_min            =   1.0000000000000E-01
(PID.TID 0000.0001) %MON extforcing_fu_mean           =   1.0000000000000E-01
(PID.TID 0000.0001) %MON extforcing_fu_sd             =   0.0000000000000E+00
(PID.TID 0000.0001) %MON extforcing_fu_del2           =   0.0000000000000E+00
(PID.TID 0000.0001) %MON extforcing_fv_max            =   0.0000000000000E+00
(PID.TID 0000.0001) %MON extforcing_fv_min            =   0.0000000000000E+00
(PID.TID 0000.0001) %MON extforcing_fv_mean           =   0.0000000000000E+00
(PID.TID 0000.0001) %MON extforcing_fv_sd             =   0.0000000000000E+00
(PID.TID 0000.0001) %MON extforcing_fv_del2           =   0.0000000000000E+00
(PID.TID 0000.0001) %MON advcfl_uvel_max              =   1.4555371975909E-04
(PID.TID 0000.0001) %MON advcfl_vvel_max              =   1.7347111256132E-04
(PID.TID 0000.0001) %MON advcfl_wvel_max              =   1.4496075835573E-05
(PID.TID 0000.0001) %MON advcfl_W_hf_max              =   3.6240189588933E-05
(PID.TID 0000.0001) %MON pe_b_mean                    =   9.9711181668871E-11
(PID.TID 0000.0001) %MON ke_max                       =   6.5708752137937E-05
(PID.TID 0000.0001) %MON ke_mean                      =   1.2692960318001E-06
(PID.TID 0000.0001) %MON ke_vol                       =   4.4009158039362E+15
(PID.TID 0000.0001) %MON vort_r_min                   =  -7.3687376295818E-09
(PID.TID 0000.0001) %MON vort_r_max                   =   1.0777454317415E-08
(PID.TID 0000.0001) %MON vort_a_mean                  =  -1.1390240000000E-04
(PID.TID 0000.0001) %MON vort_a_sd                    =   3.7033962206886E-06
(PID.TID 0000.0001) %MON vort_p_mean                  =  -1.5528913309106E-04
(PID.TID 0000.0001) %MON vort_p_sd                    =   4.1188216681183E-05
(PID.TID 0000.0001) %MON surfExpan_theta_mean         =  -1.8598990245759E-07
(PID.TID 0000.0001) %MON surfExpan_salt_mean          =  -1.6274116465039E-06
(PID.TID 0000.0001) // =======================================================
(PID.TID 0000.0001) // End MONITOR dynamic field statistics
(PID.TID 0000.0001) // =======================================================
 cg2d: Sum(rhs),rhsMax =  -1.27958669047302E+00  1.70565508827134E-03
(PID.TID 0000.0001)                    cg2d_init_res =    3.28931945877900E-01
(PID.TID 0000.0001)                       cg2d_iters =    15
(PID.TID 0000.0001)                         cg2d_res =    2.49753651341543E-17
(PID.TID 0000.0001) // =======================================================
(PID.TID 0000.0001) // Begin MONITOR dynamic field statistics
(PID.TID 0000.0001) // =======================================================
(PID.TID 0000.0001) %MON time_tsnumber                =                    12
(PID.TID 0000.0001) %MON time_secondsf                =   4.3200000000000E+04
(PID.TID 0000.0001) %MON dynstat_eta_max              =   2.4526740806099E-04
(PID.TID 0000.0001) %MON dynstat_eta_min              =   6.1065609995082E-05
(PID.TID 0000.0001) %MON dynstat_eta_mean             =   1.4142817400693E-04
(PID.TID 0000.0001) %MON dynstat_eta_sd               =   6.2646419328255E-05
(PID.TID 0000.0001) %MON dynstat_eta_del2             =   2.1837695274198E-05
(PID.TID 0000.0001) %MON dynstat_uvel_max             =   6.0294166414923E-05
(PID.TID 0000.0001) %MON dynstat_uvel_min             =  -6.2312985740443E-03
(PID.TID 0000.0001) %MON dynstat_uvel_mean            =  -1.6355645184039E-04
(PID.TID 0000.0001) %MON dynstat_uvel_sd              =   8.3355810737477E-04
(PID.TID 0000.0001) %MON dynstat_uvel_del2            =   1.3568943648113E-04
(PID.TID 0000.0001) %MON dynstat_vvel_max             =   6.8951363007673E-03
(PID.TID 0000.0001) %MON dynstat_vvel_min             =  -3.1420568481397E-04
(PID.TID 0000.0001) %MON dynstat_vvel_mean            =   8.3848888000931E-05
(PID.TID 0000.0001) %MON dynstat_vvel_sd              =   7.6765140031461E-04
(PID.TID 0000.0001) %MON dynstat_vvel_del2            =   1.2006262804130E-04
(PID.TID 0000.0001) %MON dynstat_wvel_max             =   1.0276979434182E-06
(PID.TID 0000.0001) %MON dynstat_wvel_min             =  -1.2563126468518E-06
(PID.TID 0000.0001) %MON dynstat_wvel_mean            =  -1.4197159932581E-09
(PID.TID 0000.0001) %MON dynstat_wvel_sd              =   7.7903550130837E-07
(PID.TID 0000.0001) %MON dynstat_wvel_del2            =   2.8033622428354E-07
(PID.TID 0000.0001) %MON dynstat_theta_max            =   4.0000000000000E+00
(PID.TID 0000.0001) %MON dynstat_theta_min            =   4.0000000000000E+00
(PID.TID 0000.0001) %MON dynstat_theta_mean           =   4.0000000000000E+00
(PID.TID 0000.0001) %MON dynstat_theta_sd             =   0.0000000000000E+00
(PID.TID 0000.0001) %MON dynstat_theta_del2           =   0.0000000000000E+00
(PID.TID 0000.0001) %MON dynstat_salt_max             =   3.5000000000000E+01
(PID.TID 0000.0001) %MON dynstat_salt_min             =   3.5000000000000E+01
(PID.TID 0000.0001) %MON dynstat_salt_mean            =   3.5000000000000E+01
(PID.TID 0000.0001) %MON dynstat_salt_sd              =   0.0000000000000E+00
(PID.TID 0000.0001) %MON dynstat_salt_del2            =   0.0000000000000E+00
(PID.TID 0000.0001) %MON dynstat_sst_max              =   4.0000000000000E+00
(PID.TID 0000.0001) %MON dynstat_sst_min              =   4.0000000000000E+00
(PID.TID 0000.0001) %MON dynstat_sst_mean             =   4.0000000000000E+00
(PID.TID 0000.0001) %MON dynstat_sst_sd               =   0.0000000000000E+00
(PID.TID 0000.0001) %MON dynstat_sst_del2             =   0.0000000000000E+00
(PID.TID 0000.0001) %MON dynstat_sss_max              =   3.5000000000000E+01
(PID.TID 0000.0001) %MON dynstat_sss_min              =   3.5000000000000E+01
(PID.TID 0000.0001) %MON dynstat_sss_mean             =   3.5000000000000E+01
(PID.TID 0000.0001) %MON dynstat_sss_sd               =   0.0000000000000E+00
(PID.TID 0000.0001) %MON dynstat_sss_del2             =   0.0000000000000E+00
(PID.TID 0000.0001) %MON extforcing_qnet_max          =   0.0000000000000E+00
(PID.TID 0000.0001) %MON extforcing_qnet_min          =   0.0000000000000E+00
(PID.TID 0000.0001) %MON extforcing_qnet_mean         =   0.0000000000000E+00
(PID.TID 0000.0001) %MON extforcing_qnet_sd           =   0.0000000000000E+00
(PID.TID 0000.0001) %MON extforcing_qnet_del2         =   0.0000000000000E+00
(PID.TID 0000.0001) %MON extforcing_qsw_max           =   0.0000000000000E+00
(PID.TID 0000.0001) %MON extforcing_qsw_min           =   0.0000000000000E+00
(PID.TID 0000.0001) %MON extforcing_qsw_mean          =   0.0000000000000E+00
(PID.TID 0000.0001) %MON extforcing_qsw_sd            =   0.0000000000000E+00
(PID.TID 0000.0001) %MON extforcing_qsw_del2          =   0.0000000000000E+00
(PID.TID 0000.0001) %MON extforcing_empmr_max         =   0.0000000000000E+00
(PID.TID 0000.0001) %MON extforcing_empmr_min         =   0.0000000000000E+00
(PID.TID 0000.0001) %MON extforcing_empmr_mean        =   0.0000000000000E+00
(PID.TID 0000.0001) %MON extforcing_empmr_sd          =   0.0000000000000E+00
(PID.TID 0000.0001) %MON extforcing_empmr_del2        =   0.0000000000000E+00
(PID.TID 0000.0001) %MON extforcing_fu_max            =   1.0000000000000E-01
(PID.TID 0000.0001) %MON extforcing_fu_min            =   1.0000000000000E-01
(PID.TID 0000.0001) %MON extforcing_fu_mean           =   1.0000000000000E-01
(PID.TID 0000.0001) %MON extforcing_fu_sd             =   0.0000000000000E+00
(PID.TID 0000.0001) %MON extforcing_fu_del2           =   0.0000000000000E+00
(PID.TID 0000.0001) %MON extforcing_fv_max            =   0.0000000000000E+00
(PID.TID 0000.0001) %MON extforcing_fv_min            =   0.0000000000000E+00
(PID.TID 0000.0001) %MON extforcing_fv_mean           =   0.0000000000000E+00
(PID.TID 0000.0001) %MON extforcing_fv_sd             =   0.0000000000000E+00
(PID.TID 0000.0001) %MON extforcing_fv_del2           =   0.0000000000000E+00
(PID.TID 0000.0001) %MON advcfl_uvel_max              =   1.1216337433280E-04
(PID.TID 0000.0001) %MON advcfl_vvel_max              =   1.2411245341381E-04
(PID.TID 0000.0001) %MON advcfl_wvel_max              =   1.6766020051950E-05
(PID.TID 0000.0001) %MON advcfl_W_hf_max              =   4.1915050129875E-05
(PID.TID 0000.0001) %MON pe_b_mean                    =   2.6667061766664E-11
(PID.TID 0000.0001) %MON ke_max                       =   3.8468619621137E-05
(PID.TID 0000.0001) %MON ke_mean                      =   6.5894456986640E-07
(PID.TID 0000.0001) %MON ke_vol                       =   4.4009158039362E+15
(PID.TID 0000.0001) %MON vort_r_min                   =  -7.0129448897498E-09
(PID.TID 0000.0001) %MON vort_r_max                   =   7.0675987156551E-09
(PID.TID 0000.0001) %MON vort_a_mean                  =  -1.1390240000000E-04
(PID.TID 0000.0001) %MON vort_a_sd                    =   3.7033855525066E-06
(PID.TID 0000.0001) %MON vort_p_mean                  =  -1.5528913309106E-04
(PID.TID 0000.0001) %MON vort_p_sd                    =   4.1188213412648E-05
(PID.TID 0000.0001) %MON surfExpan_theta_mean         =  -1.6815255782597E-07
(PID.TID 0000.0001) %MON surfExpan_salt_mean          =  -1.4713348809773E-06
(PID.TID 0000.0001) // =======================================================
(PID.TID 0000.0001) // End MONITOR dynamic field statistics
(PID.TID 0000.0001) // =======================================================
 cg2d: Sum(rhs),rhsMax =  -3.29564699152491E-01  1.66071960615390E-03
(PID.TID 0000.0001)                    cg2d_init_res =    2.66210061803427E-01
(PID.TID 0000.0001)                       cg2d_iters =    15
(PID.TID 0000.0001)                         cg2d_res =    2.16746406957610E-19
(PID.TID 0000.0001) // =======================================================
(PID.TID 0000.0001) // Begin MONITOR dynamic field statistics
(PID.TID 0000.0001) // =======================================================
(PID.TID 0000.0001) %MON time_tsnumber                =                    13
(PID.TID 0000.0001) %MON time_secondsf                =   4.6800000000000E+04
(PID.TID 0000.0001) %MON dynstat_eta_max              =   1.2733857946754E-04
(PID.TID 0000.0001) %MON dynstat_eta_min              =  -4.1679538599519E-05
(PID.TID 0000.0001) %MON dynstat_eta_mean             =   3.5465983318143E-05
(PID.TID 0000.0001) %MON dynstat_eta_sd               =   5.9999021995365E-05
(PID.TID 0000.0001) %MON dynstat_eta_del2             =   2.0980089957046E-05
(PID.TID 0000.0001) %MON dynstat_uvel_max             =   8.1001468292863E-05
(PID.TID 0000.0001) %MON dynstat_uvel_min             =  -4.1677329970074E-03
(PID.TID 0000.0001) %MON dynstat_uvel_mean            =  -9.5515777291507E-05
(PID.TID 0000.0001) %MON dynstat_uvel_sd              =   4.8445260245759E-04
(PID.TID 0000.0001) %MON dynstat_uvel_del2            =   1.3448384306231E-04
(PID.TID 0000.0001) %MON dynstat_vvel_max             =   4.8653870189638E-03
(PID.TID 0000.0001) %MON dynstat_vvel_min             =  -4.4819586354165E-04
(PID.TID 0000.0001) %MON dynstat_vvel_mean            =   2.5515508777175E-05
(PID.TID 0000.0001) %MON dynstat_vvel_sd              =   4.9692426562335E-04
(PID.TID 0000.0001) %MON dynstat_vvel_del2            =   1.2941650024074E-04
(PID.TID 0000.0001) %MON dynstat_wvel_max             =   1.0330142616354E-06
(PID.TID 0000.0001) %MON dynstat_wvel_min             =  -1.3248939107163E-06
(PID.TID 0000.0001) %MON dynstat_wvel_mean            =  -1.6550620965873E-09
(PID.TID 0000.0001) %MON dynstat_wvel_sd              =   7.6842974962827E-07
(PID.TID 0000.0001) %MON dynstat_wvel_del2            =   3.1208692249218E-07
(PID.TID 0000.0001) %MON dynstat_theta_max            =   4.0000000000000E+00
(PID.TID 0000.0001) %MON dynstat_theta_min            =   4.0000000000000E+00
(PID.TID 0000.0001) %MON dynstat_theta_mean           =   4.0000000000000E+00
(PID.TID 0000.0001) %MON dynstat_theta_sd             =   0.0000000000000E+00
(PID.TID 0000.0001) %MON dynstat_theta_del2           =   0.0000000000000E+00
(PID.TID 0000.0001) %MON dynstat_salt_max             =   3.5000000000000E+01
(PID.TID 0000.0001) %MON dynstat_salt_min             =   3.5000000000000E+01
(PID.TID 0000.0001) %MON dynstat_salt_mean            =   3.5000000000000E+01
(PID.TID 0000.0001) %MON dynstat_salt_sd              =   0.0000000000000E+00
(PID.TID 0000.0001) %MON dynstat_salt_del2            =   0.0000000000000E+00
(PID.TID 0000.0001) %MON dynstat_sst_max              =   4.0000000000000E+00
(PID.TID 0000.0001) %MON dynstat_sst_min              =   4.0000000000000E+00
(PID.TID 0000.0001) %MON dynstat_sst_mean             =   4.0000000000000E+00
(PID.TID 0000.0001) %MON dynstat_sst_sd               =   0.0000000000000E+00
(PID.TID 0000.0001) %MON dynstat_sst_del2             =   0.0000000000000E+00
(PID.TID 0000.0001) %MON dynstat_sss_max              =   3.5000000000000E+01
(PID.TID 0000.0001) %MON dynstat_sss_min              =   3.5000000000000E+01
(PID.TID 0000.0001) %MON dynstat_sss_mean             =   3.5000000000000E+01
(PID.TID 0000.0001) %MON dynstat_sss_sd               =   0.0000000000000E+00
(PID.TID 0000.0001) %MON dynstat_sss_del2             =   0.0000000000000E+00
(PID.TID 0000.0001) %MON extforcing_qnet_max          =   0.0000000000000E+00
(PID.TID 0000.0001) %MON extforcing_qnet_min          =   0.0000000000000E+00
(PID.TID 0000.0001) %MON extforcing_qnet_mean         =   0.0000000000000E+00
(PID.TID 0000.0001) %MON extforcing_qnet_sd           =   0.0000000000000E+00
(PID.TID 0000.0001) %MON extforcing_qnet_del2         =   0.0000000000000E+00
(PID.TID 0000.0001) %MON extforcing_qsw_max           =   0.0000000000000E+00
(PID.TID 0000.0001) %MON extforcing_qsw_min           =   0.0000000000000E+00
(PID.TID 0000.0001) %MON extforcing_qsw_mean          =   0.0000000000000E+00
(PID.TID 0000.0001) %MON extforcing_qsw_sd            =   0.0000000000000E+00
(PID.TID 0000.0001) %MON extforcing_qsw_del2          =   0.0000000000000E+00
(PID.TID 0000.0001) %MON extforcing_empmr_max         =   0.0000000000000E+00
(PID.TID 0000.0001) %MON extforcing_empmr_min         =   0.0000000000000E+00
(PID.TID 0000.0001) %MON extforcing_empmr_mean        =   0.0000000000000E+00
(PID.TID 0000.0001) %MON extforcing_empmr_sd          =   0.0000000000000E+00
(PID.TID 0000.0001) %MON extforcing_empmr_del2        =   0.0000000000000E+00
(PID.TID 0000.0001) %MON extforcing_fu_max            =   1.0000000000000E-01
(PID.TID 0000.0001) %MON extforcing_fu_min            =   1.0000000000000E-01
(PID.TID 0000.0001) %MON extforcing_fu_mean           =   1.0000000000000E-01
(PID.TID 0000.0001) %MON extforcing_fu_sd             =   0.0000000000000E+00
(PID.TID 0000.0001) %MON extforcing_fu_del2           =   0.0000000000000E+00
(PID.TID 0000.0001) %MON extforcing_fv_max            =   0.0000000000000E+00
(PID.TID 0000.0001) %MON extforcing_fv_min            =   0.0000000000000E+00
(PID.TID 0000.0001) %MON extforcing_fv_mean           =   0.0000000000000E+00
(PID.TID 0000.0001) %MON extforcing_fv_sd             =   0.0000000000000E+00
(PID.TID 0000.0001) %MON extforcing_fv_del2           =   0.0000000000000E+00
(PID.TID 0000.0001) %MON advcfl_uvel_max              =   7.5019193946134E-05
(PID.TID 0000.0001) %MON advcfl_vvel_max              =   8.7576966341348E-05
(PID.TID 0000.0001) %MON advcfl_wvel_max              =   1.6997706408196E-05
(PID.TID 0000.0001) %MON advcfl_W_hf_max              =   4.2494266020489E-05
(PID.TID 0000.0001) %MON pe_b_mean                    =   5.4141253454697E-12
(PID.TID 0000.0001) %MON ke_max                       =   1.7863614934721E-05
(PID.TID 0000.0001) %MON ke_mean                      =   2.4570117734649E-07
(PID.TID 0000.0001) %MON ke_vol                       =   4.4009158039362E+15
(PID.TID 0000.0001) %MON vort_r_min                   =  -7.4078381722898E-09
(PID.TID 0000.0001) %MON vort_r_max                   =   8.0986571255073E-09
(PID.TID 0000.0001) %MON vort_a_mean                  =  -1.1390240000000E-04
(PID.TID 0000.0001) %MON vort_a_sd                    =   3.7033790453578E-06
(PID.TID 0000.0001) %MON vort_p_mean                  =  -1.5528913309106E-04
(PID.TID 0000.0001) %MON vort_p_sd                    =   4.1188210689633E-05
(PID.TID 0000.0001) %MON surfExpan_theta_mean         =  -1.1773576743198E-07
(PID.TID 0000.0001) %MON surfExpan_salt_mean          =  -1.0301879650298E-06
(PID.TID 0000.0001) // =======================================================
(PID.TID 0000.0001) // End MONITOR dynamic field statistics
(PID.TID 0000.0001) // =======================================================
 cg2d: Sum(rhs),rhsMax =   5.21320406654746E-02  1.54812756163631E-03
(PID.TID 0000.0001)                    cg2d_init_res =    2.91985560353103E-01
(PID.TID 0000.0001)                       cg2d_iters =    15
(PID.TID 0000.0001)                         cg2d_res =    2.34139042823801E-17
(PID.TID 0000.0001) // =======================================================
(PID.TID 0000.0001) // Begin MONITOR dynamic field statistics
(PID.TID 0000.0001) // =======================================================
(PID.TID 0000.0001) %MON time_tsnumber                =                    14
(PID.TID 0000.0001) %MON time_secondsf                =   5.0400000000000E+04
(PID.TID 0000.0001) %MON dynstat_eta_max              =   7.9521192067646E-05
(PID.TID 0000.0001) %MON dynstat_eta_min              =  -7.7806444683228E-05
(PID.TID 0000.0001) %MON dynstat_eta_mean             =  -5.2298167751070E-06
(PID.TID 0000.0001) %MON dynstat_eta_sd               =   5.4545031803960E-05
(PID.TID 0000.0001) %MON dynstat_eta_del2             =   1.9105996628294E-05
(PID.TID 0000.0001) %MON dynstat_uvel_max             =   1.3062731259625E-03
(PID.TID 0000.0001) %MON dynstat_uvel_min             =  -1.6813641423241E-03
(PID.TID 0000.0001) %MON dynstat_uvel_mean            =  -9.8323979811777E-06
(PID.TID 0000.0001) %MON dynstat_uvel_sd              =   1.6158852265724E-04
(PID.TID 0000.0001) %MON dynstat_uvel_del2            =   1.2863842438851E-04
(PID.TID 0000.0001) %MON dynstat_vvel_max             =   3.8838747514540E-03
(PID.TID 0000.0001) %MON dynstat_vvel_min             =  -5.0785487405723E-04
(PID.TID 0000.0001) %MON dynstat_vvel_mean            =   2.8602127650484E-06
(PID.TID 0000.0001) %MON dynstat_vvel_sd              =   3.9560118455395E-04
(PID.TID 0000.0001) %MON dynstat_vvel_del2            =   1.3180336282916E-04
(PID.TID 0000.0001) %MON dynstat_wvel_max             =   9.3819865653348E-07
(PID.TID 0000.0001) %MON dynstat_wvel_min             =  -1.2170922495343E-06
(PID.TID 0000.0001) %MON dynstat_wvel_mean            =  -1.6383764184987E-09
(PID.TID 0000.0001) %MON dynstat_wvel_sd              =   6.8444757965037E-07
(PID.TID 0000.0001) %MON dynstat_wvel_del2            =   3.2650615243864E-07
(PID.TID 0000.0001) %MON dynstat_theta_max            =   4.0000000000000E+00
(PID.TID 0000.0001) %MON dynstat_theta_min            =   4.0000000000000E+00
(PID.TID 0000.0001) %MON dynstat_theta_mean           =   4.0000000000000E+00
(PID.TID 0000.0001) %MON dynstat_theta_sd             =   0.0000000000000E+00
(PID.TID 0000.0001) %MON dynstat_theta_del2           =   0.0000000000000E+00
(PID.TID 0000.0001) %MON dynstat_salt_max             =   3.5000000000000E+01
(PID.TID 0000.0001) %MON dynstat_salt_min             =   3.5000000000000E+01
(PID.TID 0000.0001) %MON dynstat_salt_mean            =   3.5000000000000E+01
(PID.TID 0000.0001) %MON dynstat_salt_sd              =   0.0000000000000E+00
(PID.TID 0000.0001) %MON dynstat_salt_del2            =   0.0000000000000E+00
(PID.TID 0000.0001) %MON dynstat_sst_max              =   4.0000000000000E+00
(PID.TID 0000.0001) %MON dynstat_sst_min              =   4.0000000000000E+00
(PID.TID 0000.0001) %MON dynstat_sst_mean             =   4.0000000000000E+00
(PID.TID 0000.0001) %MON dynstat_sst_sd               =   0.0000000000000E+00
(PID.TID 0000.0001) %MON dynstat_sst_del2             =   0.0000000000000E+00
(PID.TID 0000.0001) %MON dynstat_sss_max              =   3.5000000000000E+01
(PID.TID 0000.0001) %MON dynstat_sss_min              =   3.5000000000000E+01
(PID.TID 0000.0001) %MON dynstat_sss_mean             =   3.5000000000000E+01
(PID.TID 0000.0001) %MON dynstat_sss_sd               =   0.0000000000000E+00
(PID.TID 0000.0001) %MON dynstat_sss_del2             =   0.0000000000000E+00
(PID.TID 0000.0001) %MON extforcing_qnet_max          =   0.0000000000000E+00
(PID.TID 0000.0001) %MON extforcing_qnet_min          =   0.0000000000000E+00
(PID.TID 0000.0001) %MON extforcing_qnet_mean         =   0.0000000000000E+00
(PID.TID 0000.0001) %MON extforcing_qnet_sd           =   0.0000000000000E+00
(PID.TID 0000.0001) %MON extforcing_qnet_del2         =   0.0000000000000E+00
(PID.TID 0000.0001) %MON extforcing_qsw_max           =   0.0000000000000E+00
(PID.TID 0000.0001) %MON extforcing_qsw_min           =   0.0000000000000E+00
(PID.TID 0000.0001) %MON extforcing_qsw_mean          =   0.0000000000000E+00
(PID.TID 0000.0001) %MON extforcing_qsw_sd            =   0.0000000000000E+00
(PID.TID 0000.0001) %MON extforcing_qsw_del2          =   0.0000000000000E+00
(PID.TID 0000.0001) %MON extforcing_empmr_max         =   0.0000000000000E+00
(PID.TID 0000.0001) %MON extforcing_empmr_min         =   0.0000000000000E+00
(PID.TID 0000.0001) %MON extforcing_empmr_mean        =   0.0000000000000E+00
(PID.TID 0000.0001) %MON extforcing_empmr_sd          =   0.0000000000000E+00
(PID.TID 0000.0001) %MON extforcing_empmr_del2        =   0.0000000000000E+00
(PID.TID 0000.0001) %MON extforcing_fu_max            =   1.0000000000000E-01
(PID.TID 0000.0001) %MON extforcing_fu_min            =   1.0000000000000E-01
(PID.TID 0000.0001) %MON extforcing_fu_mean           =   1.0000000000000E-01
(PID.TID 0000.0001) %MON extforcing_fu_sd             =   0.0000000000000E+00
(PID.TID 0000.0001) %MON extforcing_fu_del2           =   0.0000000000000E+00
(PID.TID 0000.0001) %MON extforcing_fv_max            =   0.0000000000000E+00
(PID.TID 0000.0001) %MON extforcing_fv_min            =   0.0000000000000E+00
(PID.TID 0000.0001) %MON extforcing_fv_mean           =   0.0000000000000E+00
(PID.TID 0000.0001) %MON extforcing_fv_sd             =   0.0000000000000E+00
(PID.TID 0000.0001) %MON extforcing_fv_del2           =   0.0000000000000E+00
(PID.TID 0000.0001) %MON advcfl_uvel_max              =   3.0264554561834E-05
(PID.TID 0000.0001) %MON advcfl_vvel_max              =   6.9909745526172E-05
(PID.TID 0000.0001) %MON advcfl_wvel_max              =   1.5402107499244E-05
(PID.TID 0000.0001) %MON advcfl_W_hf_max              =   3.8505268748110E-05
(PID.TID 0000.0001) %MON pe_b_mean                    =   3.3464213940196E-12
(PID.TID 0000.0001) %MON ke_max                       =   6.7599563211236E-06
(PID.TID 0000.0001) %MON ke_mean                      =   9.1358002371082E-08
(PID.TID 0000.0001) %MON ke_vol                       =   4.4009158039362E+15
(PID.TID 0000.0001) %MON vort_r_min                   =  -8.3765152382177E-09
(PID.TID 0000.0001) %MON vort_r_max                   =   1.0288234067570E-08
(PID.TID 0000.0001) %MON vort_a_mean                  =  -1.1390240000000E-04
(PID.TID 0000.0001) %MON vort_a_sd                    =   3.7033757960191E-06
(PID.TID 0000.0001) %MON vort_p_mean                  =  -1.5528913309106E-04
(PID.TID 0000.0001) %MON vort_p_sd                    =   4.1188208594047E-05
(PID.TID 0000.0001) %MON surfExpan_theta_mean         =  -4.5217555659167E-08
(PID.TID 0000.0001) %MON surfExpan_salt_mean          =  -3.9565361201771E-07
(PID.TID 0000.0001) // =======================================================
(PID.TID 0000.0001) // End MONITOR dynamic field statistics
(PID.TID 0000.0001) // =======================================================
 cg2d: Sum(rhs),rhsMax =  -2.86625374400475E-01  1.40338816101555E-03
(PID.TID 0000.0001)                    cg2d_init_res =    3.82494004152491E-01
(PID.TID 0000.0001)                       cg2d_iters =    15
(PID.TID 0000.0001)                         cg2d_res =    3.59475922517606E-18
(PID.TID 0000.0001) // =======================================================
(PID.TID 0000.0001) // Begin MONITOR dynamic field statistics
(PID.TID 0000.0001) // =======================================================
(PID.TID 0000.0001) %MON time_tsnumber                =                    15
(PID.TID 0000.0001) %MON time_secondsf                =   5.4000000000000E+04
(PID.TID 0000.0001) %MON dynstat_eta_max              =   1.0035438397096E-04
(PID.TID 0000.0001) %MON dynstat_eta_min              =  -3.9670417142333E-05
(PID.TID 0000.0001) %MON dynstat_eta_mean             =   2.6065583378802E-05
(PID.TID 0000.0001) %MON dynstat_eta_sd               =   4.8060401544082E-05
(PID.TID 0000.0001) %MON dynstat_eta_del2             =   1.6983531534837E-05
(PID.TID 0000.0001) %MON dynstat_uvel_max             =   4.3661423842022E-03
(PID.TID 0000.0001) %MON dynstat_uvel_min             =  -1.0230402133669E-04
(PID.TID 0000.0001) %MON dynstat_uvel_mean            =   7.6352567277186E-05
(PID.TID 0000.0001) %MON dynstat_uvel_sd              =   4.4098114314817E-04
(PID.TID 0000.0001) %MON dynstat_uvel_del2            =   1.1957186331238E-04
(PID.TID 0000.0001) %MON dynstat_vvel_max             =   4.0625608524623E-03
(PID.TID 0000.0001) %MON dynstat_vvel_min             =  -4.6977175833293E-04
(PID.TID 0000.0001) %MON dynstat_vvel_mean            =   1.9689929694273E-05
(PID.TID 0000.0001) %MON dynstat_vvel_sd              =   4.5828539360369E-04
(PID.TID 0000.0001) %MON dynstat_vvel_del2            =   1.2548063529759E-04
(PID.TID 0000.0001) %MON dynstat_wvel_max             =   8.3955393336925E-07
(PID.TID 0000.0001) %MON dynstat_wvel_min             =  -9.4231568783902E-07
(PID.TID 0000.0001) %MON dynstat_wvel_mean            =  -1.3487559659476E-09
(PID.TID 0000.0001) %MON dynstat_wvel_sd              =   5.6204922032434E-07
(PID.TID 0000.0001) %MON dynstat_wvel_del2            =   3.2431295678926E-07
(PID.TID 0000.0001) %MON dynstat_theta_max            =   4.0000000000000E+00
(PID.TID 0000.0001) %MON dynstat_theta_min            =   4.0000000000000E+00
(PID.TID 0000.0001) %MON dynstat_theta_mean           =   4.0000000000000E+00
(PID.TID 0000.0001) %MON dynstat_theta_sd             =   0.0000000000000E+00
(PID.TID 0000.0001) %MON dynstat_theta_del2           =   0.0000000000000E+00
(PID.TID 0000.0001) %MON dynstat_salt_max             =   3.5000000000000E+01
(PID.TID 0000.0001) %MON dynstat_salt_min             =   3.5000000000000E+01
(PID.TID 0000.0001) %MON dynstat_salt_mean            =   3.5000000000000E+01
(PID.TID 0000.0001) %MON dynstat_salt_sd              =   0.0000000000000E+00
(PID.TID 0000.0001) %MON dynstat_salt_del2            =   0.0000000000000E+00
(PID.TID 0000.0001) %MON dynstat_sst_max              =   4.0000000000000E+00
(PID.TID 0000.0001) %MON dynstat_sst_min              =   4.0000000000000E+00
(PID.TID 0000.0001) %MON dynstat_sst_mean             =   4.0000000000000E+00
(PID.TID 0000.0001) %MON dynstat_sst_sd               =   0.0000000000000E+00
(PID.TID 0000.0001) %MON dynstat_sst_del2             =   0.0000000000000E+00
(PID.TID 0000.0001) %MON dynstat_sss_max              =   3.5000000000000E+01
(PID.TID 0000.0001) %MON dynstat_sss_min              =   3.5000000000000E+01
(PID.TID 0000.0001) %MON dynstat_sss_mean             =   3.5000000000000E+01
(PID.TID 0000.0001) %MON dynstat_sss_sd               =   0.0000000000000E+00
(PID.TID 0000.0001) %MON dynstat_sss_del2             =   0.0000000000000E+00
(PID.TID 0000.0001) %MON extforcing_qnet_max          =   0.0000000000000E+00
(PID.TID 0000.0001) %MON extforcing_qnet_min          =   0.0000000000000E+00
(PID.TID 0000.0001) %MON extforcing_qnet_mean         =   0.0000000000000E+00
(PID.TID 0000.0001) %MON extforcing_qnet_sd           =   0.0000000000000E+00
(PID.TID 0000.0001) %MON extforcing_qnet_del2         =   0.0000000000000E+00
(PID.TID 0000.0001) %MON extforcing_qsw_max           =   0.0000000000000E+00
(PID.TID 0000.0001) %MON extforcing_qsw_min           =   0.0000000000000E+00
(PID.TID 0000.0001) %MON extforcing_qsw_mean          =   0.0000000000000E+00
(PID.TID 0000.0001) %MON extforcing_qsw_sd            =   0.0000000000000E+00
(PID.TID 0000.0001) %MON extforcing_qsw_del2          =   0.0000000000000E+00
(PID.TID 0000.0001) %MON extforcing_empmr_max         =   0.0000000000000E+00
(PID.TID 0000.0001) %MON extforcing_empmr_min         =   0.0000000000000E+00
(PID.TID 0000.0001) %MON extforcing_empmr_mean        =   0.0000000000000E+00
(PID.TID 0000.0001) %MON extforcing_empmr_sd          =   0.0000000000000E+00
(PID.TID 0000.0001) %MON extforcing_empmr_del2        =   0.0000000000000E+00
(PID.TID 0000.0001) %MON extforcing_fu_max            =   1.0000000000000E-01
(PID.TID 0000.0001) %MON extforcing_fu_min            =   1.0000000000000E-01
(PID.TID 0000.0001) %MON extforcing_fu_mean           =   1.0000000000000E-01
(PID.TID 0000.0001) %MON extforcing_fu_sd             =   0.0000000000000E+00
(PID.TID 0000.0001) %MON extforcing_fu_del2           =   0.0000000000000E+00
(PID.TID 0000.0001) %MON extforcing_fv_max            =   0.0000000000000E+00
(PID.TID 0000.0001) %MON extforcing_fv_min            =   0.0000000000000E+00
(PID.TID 0000.0001) %MON extforcing_fv_mean           =   0.0000000000000E+00
(PID.TID 0000.0001) %MON extforcing_fv_sd             =   0.0000000000000E+00
(PID.TID 0000.0001) %MON extforcing_fv_del2           =   0.0000000000000E+00
(PID.TID 0000.0001) %MON advcfl_uvel_max              =   7.8590562915640E-05
(PID.TID 0000.0001) %MON advcfl_vvel_max              =   7.3126095344322E-05
(PID.TID 0000.0001) %MON advcfl_wvel_max              =   1.1916667657118E-05
(PID.TID 0000.0001) %MON advcfl_W_hf_max              =   2.9791669142796E-05
(PID.TID 0000.0001) %MON pe_b_mean                    =   3.3316039709250E-12
(PID.TID 0000.0001) %MON ke_max                       =   1.2601288340709E-05
(PID.TID 0000.0001) %MON ke_mean                      =   2.0535363923197E-07
(PID.TID 0000.0001) %MON ke_vol                       =   4.4009158039362E+15
(PID.TID 0000.0001) %MON vort_r_min                   =  -8.7165669026444E-09
(PID.TID 0000.0001) %MON vort_r_max                   =   1.1409332330961E-08
(PID.TID 0000.0001) %MON vort_a_mean                  =  -1.1390240000000E-04
(PID.TID 0000.0001) %MON vort_a_sd                    =   3.7033744409960E-06
(PID.TID 0000.0001) %MON vort_p_mean                  =  -1.5528913309106E-04
(PID.TID 0000.0001) %MON vort_p_sd                    =   4.1188207127409E-05
(PID.TID 0000.0001) %MON surfExpan_theta_mean         =   3.4772666837677E-08
(PID.TID 0000.0001) %MON surfExpan_salt_mean          =   3.0426083482967E-07
(PID.TID 0000.0001) // =======================================================
(PID.TID 0000.0001) // End MONITOR dynamic field statistics
(PID.TID 0000.0001) // =======================================================
 cg2d: Sum(rhs),rhsMax =  -1.30315843370179E+00  1.44268599687867E-03
(PID.TID 0000.0001)                    cg2d_init_res =    4.15720507860574E-01
(PID.TID 0000.0001)                       cg2d_iters =    15
(PID.TID 0000.0001)                         cg2d_res =    2.25502129388305E-17
(PID.TID 0000.0001) // =======================================================
(PID.TID 0000.0001) // Begin MONITOR dynamic field statistics
(PID.TID 0000.0001) // =======================================================
(PID.TID 0000.0001) %MON time_tsnumber                =                    16
(PID.TID 0000.0001) %MON time_secondsf                =   5.7600000000000E+04
(PID.TID 0000.0001) %MON dynstat_eta_max              =   1.9253724698411E-04
(PID.TID 0000.0001) %MON dynstat_eta_min              =   6.3336673609568E-05
(PID.TID 0000.0001) %MON dynstat_eta_mean             =   1.2182713787623E-04
(PID.TID 0000.0001) %MON dynstat_eta_sd               =   4.2409421097771E-05
(PID.TID 0000.0001) %MON dynstat_eta_del2             =   1.5238923752207E-05
(PID.TID 0000.0001) %MON dynstat_uvel_max             =   6.6140231566489E-03
(PID.TID 0000.0001) %MON dynstat_uvel_min             =  -9.9542632862210E-05
(PID.TID 0000.0001) %MON dynstat_uvel_mean            =   1.4610895760099E-04
(PID.TID 0000.0001) %MON dynstat_uvel_sd              =   7.6172731786128E-04
(PID.TID 0000.0001) %MON dynstat_uvel_del2            =   1.1115929434375E-04
(PID.TID 0000.0001) %MON dynstat_vvel_max             =   5.2890499459065E-03
(PID.TID 0000.0001) %MON dynstat_vvel_min             =  -3.6682857219571E-04
(PID.TID 0000.0001) %MON dynstat_vvel_mean            =   7.1987904922065E-05
(PID.TID 0000.0001) %MON dynstat_vvel_sd              =   6.9684862353541E-04
(PID.TID 0000.0001) %MON dynstat_vvel_del2            =   1.1339310325432E-04
(PID.TID 0000.0001) %MON dynstat_wvel_max             =   8.5433963735525E-07
(PID.TID 0000.0001) %MON dynstat_wvel_min             =  -6.7442425473966E-07
(PID.TID 0000.0001) %MON dynstat_wvel_mean            =  -8.1765053306013E-10
(PID.TID 0000.0001) %MON dynstat_wvel_sd              =   4.8093046237630E-07
(PID.TID 0000.0001) %MON dynstat_wvel_del2            =   3.0950723971774E-07
(PID.TID 0000.0001) %MON dynstat_theta_max            =   4.0000000000000E+00
(PID.TID 0000.0001) %MON dynstat_theta_min            =   4.0000000000000E+00
(PID.TID 0000.0001) %MON dynstat_theta_mean           =   4.0000000000000E+00
(PID.TID 0000.0001) %MON dynstat_theta_sd             =   0.0000000000000E+00
(PID.TID 0000.0001) %MON dynstat_theta_del2           =   0.0000000000000E+00
(PID.TID 0000.0001) %MON dynstat_salt_max             =   3.5000000000000E+01
(PID.TID 0000.0001) %MON dynstat_salt_min             =   3.5000000000000E+01
(PID.TID 0000.0001) %MON dynstat_salt_mean            =   3.5000000000000E+01
(PID.TID 0000.0001) %MON dynstat_salt_sd              =   0.0000000000000E+00
(PID.TID 0000.0001) %MON dynstat_salt_del2            =   0.0000000000000E+00
(PID.TID 0000.0001) %MON dynstat_sst_max              =   4.0000000000000E+00
(PID.TID 0000.0001) %MON dynstat_sst_min              =   4.0000000000000E+00
(PID.TID 0000.0001) %MON dynstat_sst_mean             =   4.0000000000000E+00
(PID.TID 0000.0001) %MON dynstat_sst_sd               =   0.0000000000000E+00
(PID.TID 0000.0001) %MON dynstat_sst_del2             =   0.0000000000000E+00
(PID.TID 0000.0001) %MON dynstat_sss_max              =   3.5000000000000E+01
(PID.TID 0000.0001) %MON dynstat_sss_min              =   3.5000000000000E+01
(PID.TID 0000.0001) %MON dynstat_sss_mean             =   3.5000000000000E+01
(PID.TID 0000.0001) %MON dynstat_sss_sd               =   0.0000000000000E+00
(PID.TID 0000.0001) %MON dynstat_sss_del2             =   0.0000000000000E+00
(PID.TID 0000.0001) %MON extforcing_qnet_max          =   0.0000000000000E+00
(PID.TID 0000.0001) %MON extforcing_qnet_min          =   0.0000000000000E+00
(PID.TID 0000.0001) %MON extforcing_qnet_mean         =   0.0000000000000E+00
(PID.TID 0000.0001) %MON extforcing_qnet_sd           =   0.0000000000000E+00
(PID.TID 0000.0001) %MON extforcing_qnet_del2         =   0.0000000000000E+00
(PID.TID 0000.0001) %MON extforcing_qsw_max           =   0.0000000000000E+00
(PID.TID 0000.0001) %MON extforcing_qsw_min           =   0.0000000000000E+00
(PID.TID 0000.0001) %MON extforcing_qsw_mean          =   0.0000000000000E+00
(PID.TID 0000.0001) %MON extforcing_qsw_sd            =   0.0000000000000E+00
(PID.TID 0000.0001) %MON extforcing_qsw_del2          =   0.0000000000000E+00
(PID.TID 0000.0001) %MON extforcing_empmr_max         =   0.0000000000000E+00
(PID.TID 0000.0001) %MON extforcing_empmr_min         =   0.0000000000000E+00
(PID.TID 0000.0001) %MON extforcing_empmr_mean        =   0.0000000000000E+00
(PID.TID 0000.0001) %MON extforcing_empmr_sd          =   0.0000000000000E+00
(PID.TID 0000.0001) %MON extforcing_empmr_del2        =   0.0000000000000E+00
(PID.TID 0000.0001) %MON extforcing_fu_max            =   1.0000000000000E-01
(PID.TID 0000.0001) %MON extforcing_fu_min            =   1.0000000000000E-01
(PID.TID 0000.0001) %MON extforcing_fu_mean           =   1.0000000000000E-01
(PID.TID 0000.0001) %MON extforcing_fu_sd             =   0.0000000000000E+00
(PID.TID 0000.0001) %MON extforcing_fu_del2           =   0.0000000000000E+00
(PID.TID 0000.0001) %MON extforcing_fv_max            =   0.0000000000000E+00
(PID.TID 0000.0001) %MON extforcing_fv_min            =   0.0000000000000E+00
(PID.TID 0000.0001) %MON extforcing_fv_mean           =   0.0000000000000E+00
(PID.TID 0000.0001) %MON extforcing_fv_sd             =   0.0000000000000E+00
(PID.TID 0000.0001) %MON extforcing_fv_del2           =   0.0000000000000E+00
(PID.TID 0000.0001) %MON advcfl_uvel_max              =   1.1905241681968E-04
(PID.TID 0000.0001) %MON advcfl_vvel_max              =   9.5202899026318E-05
(PID.TID 0000.0001) %MON advcfl_wvel_max              =   1.0524514170534E-05
(PID.TID 0000.0001) %MON advcfl_W_hf_max              =   2.6311285426336E-05
(PID.TID 0000.0001) %MON pe_b_mean                    =   1.8546415619294E-11
(PID.TID 0000.0001) %MON ke_max                       =   3.2466809455285E-05
(PID.TID 0000.0001) %MON ke_mean                      =   5.4617829842283E-07
(PID.TID 0000.0001) %MON ke_vol                       =   4.4009158039362E+15
(PID.TID 0000.0001) %MON vort_r_min                   =  -8.3366292607747E-09
(PID.TID 0000.0001) %MON vort_r_max                   =   1.1203212330763E-08
(PID.TID 0000.0001) %MON vort_a_mean                  =  -1.1390240000000E-04
(PID.TID 0000.0001) %MON vort_a_sd                    =   3.7033734407745E-06
(PID.TID 0000.0001) %MON vort_p_mean                  =  -1.5528913309106E-04
(PID.TID 0000.0001) %MON vort_p_sd                    =   4.1188206213113E-05
(PID.TID 0000.0001) %MON surfExpan_theta_mean         =   1.0640172721937E-07
(PID.TID 0000.0001) %MON surfExpan_salt_mean          =   9.3101511316946E-07
(PID.TID 0000.0001) // =======================================================
(PID.TID 0000.0001) // End MONITOR dynamic field statistics
(PID.TID 0000.0001) // =======================================================
 cg2d: Sum(rhs),rhsMax =  -2.68067690299420E+00  1.50836886631255E-03
(PID.TID 0000.0001)                    cg2d_init_res =    4.00239203690566E-01
(PID.TID 0000.0001)                       cg2d_iters =    14
(PID.TID 0000.0001)                         cg2d_res =    3.19739626279498E-15
(PID.TID 0000.0001) // =======================================================
(PID.TID 0000.0001) // Begin MONITOR dynamic field statistics
(PID.TID 0000.0001) // =======================================================
(PID.TID 0000.0001) %MON time_tsnumber                =                    17
(PID.TID 0000.0001) %MON time_secondsf                =   6.1200000000000E+04
(PID.TID 0000.0001) %MON dynstat_eta_max              =   3.3076792559194E-04
(PID.TID 0000.0001) %MON dynstat_eta_min              =   2.0932837695188E-04
(PID.TID 0000.0001) %MON dynstat_eta_mean             =   2.6201553285655E-04
(PID.TID 0000.0001) %MON dynstat_eta_sd               =   3.9018487519948E-05
(PID.TID 0000.0001) %MON dynstat_eta_del2             =   1.4404167032819E-05
(PID.TID 0000.0001) %MON dynstat_uvel_max             =   7.6369827832522E-03
(PID.TID 0000.0001) %MON dynstat_uvel_min             =  -9.2845955656242E-05
(PID.TID 0000.0001) %MON dynstat_uvel_mean            =   1.8603898230175E-04
(PID.TID 0000.0001) %MON dynstat_uvel_sd              =   9.3756493791947E-04
(PID.TID 0000.0001) %MON dynstat_uvel_del2            =   9.7391461854748E-05
(PID.TID 0000.0001) %MON dynstat_vvel_max             =   7.7322181210822E-03
(PID.TID 0000.0001) %MON dynstat_vvel_min             =  -1.8736396981025E-04
(PID.TID 0000.0001) %MON dynstat_vvel_mean            =   1.4884402790531E-04
(PID.TID 0000.0001) %MON dynstat_vvel_sd              =   1.0618313445377E-03
(PID.TID 0000.0001) %MON dynstat_vvel_del2            =   1.0290382873094E-04
(PID.TID 0000.0001) %MON dynstat_wvel_max             =   8.2831602554926E-07
(PID.TID 0000.0001) %MON dynstat_wvel_min             =  -1.0878619329833E-06
(PID.TID 0000.0001) %MON dynstat_wvel_mean            =  -1.2695680200265E-10
(PID.TID 0000.0001) %MON dynstat_wvel_sd              =   5.2062995103693E-07
(PID.TID 0000.0001) %MON dynstat_wvel_del2            =   2.8957198391411E-07
(PID.TID 0000.0001) %MON dynstat_theta_max            =   4.0000000000000E+00
(PID.TID 0000.0001) %MON dynstat_theta_min            =   4.0000000000000E+00
(PID.TID 0000.0001) %MON dynstat_theta_mean           =   4.0000000000000E+00
(PID.TID 0000.0001) %MON dynstat_theta_sd             =   0.0000000000000E+00
(PID.TID 0000.0001) %MON dynstat_theta_del2           =   0.0000000000000E+00
(PID.TID 0000.0001) %MON dynstat_salt_max             =   3.5000000000000E+01
(PID.TID 0000.0001) %MON dynstat_salt_min             =   3.5000000000000E+01
(PID.TID 0000.0001) %MON dynstat_salt_mean            =   3.5000000000000E+01
(PID.TID 0000.0001) %MON dynstat_salt_sd              =   0.0000000000000E+00
(PID.TID 0000.0001) %MON dynstat_salt_del2            =   0.0000000000000E+00
(PID.TID 0000.0001) %MON dynstat_sst_max              =   4.0000000000000E+00
(PID.TID 0000.0001) %MON dynstat_sst_min              =   4.0000000000000E+00
(PID.TID 0000.0001) %MON dynstat_sst_mean             =   4.0000000000000E+00
(PID.TID 0000.0001) %MON dynstat_sst_sd               =   0.0000000000000E+00
(PID.TID 0000.0001) %MON dynstat_sst_del2             =   0.0000000000000E+00
(PID.TID 0000.0001) %MON dynstat_sss_max              =   3.5000000000000E+01
(PID.TID 0000.0001) %MON dynstat_sss_min              =   3.5000000000000E+01
(PID.TID 0000.0001) %MON dynstat_sss_mean             =   3.5000000000000E+01
(PID.TID 0000.0001) %MON dynstat_sss_sd               =   0.0000000000000E+00
(PID.TID 0000.0001) %MON dynstat_sss_del2             =   0.0000000000000E+00
(PID.TID 0000.0001) %MON extforcing_qnet_max          =   0.0000000000000E+00
(PID.TID 0000.0001) %MON extforcing_qnet_min          =   0.0000000000000E+00
(PID.TID 0000.0001) %MON extforcing_qnet_mean         =   0.0000000000000E+00
(PID.TID 0000.0001) %MON extforcing_qnet_sd           =   0.0000000000000E+00
(PID.TID 0000.0001) %MON extforcing_qnet_del2         =   0.0000000000000E+00
(PID.TID 0000.0001) %MON extforcing_qsw_max           =   0.0000000000000E+00
(PID.TID 0000.0001) %MON extforcing_qsw_min           =   0.0000000000000E+00
(PID.TID 0000.0001) %MON extforcing_qsw_mean          =   0.0000000000000E+00
(PID.TID 0000.0001) %MON extforcing_qsw_sd            =   0.0000000000000E+00
(PID.TID 0000.0001) %MON extforcing_qsw_del2          =   0.0000000000000E+00
(PID.TID 0000.0001) %MON extforcing_empmr_max         =   0.0000000000000E+00
(PID.TID 0000.0001) %MON extforcing_empmr_min         =   0.0000000000000E+00
(PID.TID 0000.0001) %MON extforcing_empmr_mean        =   0.0000000000000E+00
(PID.TID 0000.0001) %MON extforcing_empmr_sd          =   0.0000000000000E+00
(PID.TID 0000.0001) %MON extforcing_empmr_del2        =   0.0000000000000E+00
(PID.TID 0000.0001) %MON extforcing_fu_max            =   1.0000000000000E-01
(PID.TID 0000.0001) %MON extforcing_fu_min            =   1.0000000000000E-01
(PID.TID 0000.0001) %MON extforcing_fu_mean           =   1.0000000000000E-01
(PID.TID 0000.0001) %MON extforcing_fu_sd             =   0.0000000000000E+00
(PID.TID 0000.0001) %MON extforcing_fu_del2           =   0.0000000000000E+00
(PID.TID 0000.0001) %MON extforcing_fv_max            =   0.0000000000000E+00
(PID.TID 0000.0001) %MON extforcing_fv_min            =   0.0000000000000E+00
(PID.TID 0000.0001) %MON extforcing_fv_mean           =   0.0000000000000E+00
(PID.TID 0000.0001) %MON extforcing_fv_sd             =   0.0000000000000E+00
(PID.TID 0000.0001) %MON extforcing_fv_del2           =   0.0000000000000E+00
(PID.TID 0000.0001) %MON advcfl_uvel_max              =   1.3746569009854E-04
(PID.TID 0000.0001) %MON advcfl_vvel_max              =   1.3917992617948E-04
(PID.TID 0000.0001) %MON advcfl_wvel_max              =   1.3072156987108E-05
(PID.TID 0000.0001) %MON advcfl_W_hf_max              =   3.2680392467771E-05
(PID.TID 0000.0001) %MON pe_b_mean                    =   7.8212431046933E-11
(PID.TID 0000.0001) %MON ke_max                       =   5.7252786115879E-05
(PID.TID 0000.0001) %MON ke_mean                      =   1.0316394323189E-06
(PID.TID 0000.0001) %MON ke_vol                       =   4.4009158039362E+15
(PID.TID 0000.0001) %MON vort_r_min                   =  -7.2580201727217E-09
(PID.TID 0000.0001) %MON vort_r_max                   =   9.6295729254493E-09
(PID.TID 0000.0001) %MON vort_a_mean                  =  -1.1390240000000E-04
(PID.TID 0000.0001) %MON vort_a_sd                    =   3.7033713788141E-06
(PID.TID 0000.0001) %MON vort_p_mean                  =  -1.5528913309106E-04
(PID.TID 0000.0001) %MON vort_p_sd                    =   4.1188205709254E-05
(PID.TID 0000.0001) %MON surfExpan_theta_mean         =   1.5576488331146E-07
(PID.TID 0000.0001) %MON surfExpan_salt_mean          =   1.3629427289753E-06
(PID.TID 0000.0001) // =======================================================
(PID.TID 0000.0001) // End MONITOR dynamic field statistics
(PID.TID 0000.0001) // =======================================================
 cg2d: Sum(rhs),rhsMax =  -4.07407453351537E+00  1.58424366916569E-03
(PID.TID 0000.0001)                    cg2d_init_res =    3.54999638187596E-01
(PID.TID 0000.0001)                       cg2d_iters =    14
(PID.TID 0000.0001)                         cg2d_res =    9.32184815301317E-14
(PID.TID 0000.0001) // =======================================================
(PID.TID 0000.0001) // Begin MONITOR dynamic field statistics
(PID.TID 0000.0001) // =======================================================
(PID.TID 0000.0001) %MON time_tsnumber                =                    18
(PID.TID 0000.0001) %MON time_secondsf                =   6.4800000000000E+04
(PID.TID 0000.0001) %MON dynstat_eta_max              =   4.8670549903968E-04
(PID.TID 0000.0001) %MON dynstat_eta_min              =   3.6753819829822E-04
(PID.TID 0000.0001) %MON dynstat_eta_mean             =   4.1824037582552E-04
(PID.TID 0000.0001) %MON dynstat_eta_sd               =   3.8626877301843E-05
(PID.TID 0000.0001) %MON dynstat_eta_del2             =   1.4127612676154E-05
(PID.TID 0000.0001) %MON dynstat_uvel_max             =   7.2765820032592E-03
(PID.TID 0000.0001) %MON dynstat_uvel_min             =  -8.0184021120006E-05
(PID.TID 0000.0001) %MON dynstat_uvel_mean            =   1.8884476256866E-04
(PID.TID 0000.0001) %MON dynstat_uvel_sd              =   9.3452016363999E-04
(PID.TID 0000.0001) %MON dynstat_uvel_del2            =   8.4007877302977E-05
(PID.TID 0000.0001) %MON dynstat_vvel_max             =   1.0608510670896E-02
(PID.TID 0000.0001) %MON dynstat_vvel_min             =  -6.1249689709830E-05
(PID.TID 0000.0001) %MON dynstat_vvel_mean            =   2.3472230458007E-04
(PID.TID 0000.0001) %MON dynstat_vvel_sd              =   1.4655732046599E-03
(PID.TID 0000.0001) %MON dynstat_vvel_del2            =   1.0392986236705E-04
(PID.TID 0000.0001) %MON dynstat_wvel_max             =   7.7852335793104E-07
(PID.TID 0000.0001) %MON dynstat_wvel_min             =  -1.4232179397893E-06
(PID.TID 0000.0001) %MON dynstat_wvel_mean            =   6.0392280137023E-10
(PID.TID 0000.0001) %MON dynstat_wvel_sd              =   6.3776722636630E-07
(PID.TID 0000.0001) %MON dynstat_wvel_del2            =   2.6841684173871E-07
(PID.TID 0000.0001) %MON dynstat_theta_max            =   4.0000000000000E+00
(PID.TID 0000.0001) %MON dynstat_theta_min            =   4.0000000000000E+00
(PID.TID 0000.0001) %MON dynstat_theta_mean           =   4.0000000000000E+00
(PID.TID 0000.0001) %MON dynstat_theta_sd             =   0.0000000000000E+00
(PID.TID 0000.0001) %MON dynstat_theta_del2           =   0.0000000000000E+00
(PID.TID 0000.0001) %MON dynstat_salt_max             =   3.5000000000000E+01
(PID.TID 0000.0001) %MON dynstat_salt_min             =   3.5000000000000E+01
(PID.TID 0000.0001) %MON dynstat_salt_mean            =   3.5000000000000E+01
(PID.TID 0000.0001) %MON dynstat_salt_sd              =   0.0000000000000E+00
(PID.TID 0000.0001) %MON dynstat_salt_del2            =   0.0000000000000E+00
(PID.TID 0000.0001) %MON dynstat_sst_max              =   4.0000000000000E+00
(PID.TID 0000.0001) %MON dynstat_sst_min              =   4.0000000000000E+00
(PID.TID 0000.0001) %MON dynstat_sst_mean             =   4.0000000000000E+00
(PID.TID 0000.0001) %MON dynstat_sst_sd               =   0.0000000000000E+00
(PID.TID 0000.0001) %MON dynstat_sst_del2             =   0.0000000000000E+00
(PID.TID 0000.0001) %MON dynstat_sss_max              =   3.5000000000000E+01
(PID.TID 0000.0001) %MON dynstat_sss_min              =   3.5000000000000E+01
(PID.TID 0000.0001) %MON dynstat_sss_mean             =   3.5000000000000E+01
(PID.TID 0000.0001) %MON dynstat_sss_sd               =   0.0000000000000E+00
(PID.TID 0000.0001) %MON dynstat_sss_del2             =   0.0000000000000E+00
(PID.TID 0000.0001) %MON extforcing_qnet_max          =   0.0000000000000E+00
(PID.TID 0000.0001) %MON extforcing_qnet_min          =   0.0000000000000E+00
(PID.TID 0000.0001) %MON extforcing_qnet_mean         =   0.0000000000000E+00
(PID.TID 0000.0001) %MON extforcing_qnet_sd           =   0.0000000000000E+00
(PID.TID 0000.0001) %MON extforcing_qnet_del2         =   0.0000000000000E+00
(PID.TID 0000.0001) %MON extforcing_qsw_max           =   0.0000000000000E+00
(PID.TID 0000.0001) %MON extforcing_qsw_min           =   0.0000000000000E+00
(PID.TID 0000.0001) %MON extforcing_qsw_mean          =   0.0000000000000E+00
(PID.TID 0000.0001) %MON extforcing_qsw_sd            =   0.0000000000000E+00
(PID.TID 0000.0001) %MON extforcing_qsw_del2          =   0.0000000000000E+00
(PID.TID 0000.0001) %MON extforcing_empmr_max         =   0.0000000000000E+00
(PID.TID 0000.0001) %MON extforcing_empmr_min         =   0.0000000000000E+00
(PID.TID 0000.0001) %MON extforcing_empmr_mean        =   0.0000000000000E+00
(PID.TID 0000.0001) %MON extforcing_empmr_sd          =   0.0000000000000E+00
(PID.TID 0000.0001) %MON extforcing_empmr_del2        =   0.0000000000000E+00
(PID.TID 0000.0001) %MON extforcing_fu_max            =   1.0000000000000E-01
(PID.TID 0000.0001) %MON extforcing_fu_min            =   1.0000000000000E-01
(PID.TID 0000.0001) %MON extforcing_fu_mean           =   1.0000000000000E-01
(PID.TID 0000.0001) %MON extforcing_fu_sd             =   0.0000000000000E+00
(PID.TID 0000.0001) %MON extforcing_fu_del2           =   0.0000000000000E+00
(PID.TID 0000.0001) %MON extforcing_fv_max            =   0.0000000000000E+00
(PID.TID 0000.0001) %MON extforcing_fv_min            =   0.0000000000000E+00
(PID.TID 0000.0001) %MON extforcing_fv_mean           =   0.0000000000000E+00
(PID.TID 0000.0001) %MON extforcing_fv_sd             =   0.0000000000000E+00
(PID.TID 0000.0001) %MON extforcing_fv_del2           =   0.0000000000000E+00
(PID.TID 0000.0001) %MON advcfl_uvel_max              =   1.3097847605866E-04
(PID.TID 0000.0001) %MON advcfl_vvel_max              =   1.9095319207613E-04
(PID.TID 0000.0001) %MON advcfl_wvel_max              =   1.6685454770485E-05
(PID.TID 0000.0001) %MON advcfl_W_hf_max              =   4.1713636926212E-05
(PID.TID 0000.0001) %MON pe_b_mean                    =   1.9662398853573E-10
(PID.TID 0000.0001) %MON ke_max                       =   8.1885203024177E-05
(PID.TID 0000.0001) %MON ke_mean                      =   1.5559948295418E-06
(PID.TID 0000.0001) %MON ke_vol                       =   4.4009158039362E+15
(PID.TID 0000.0001) %MON vort_r_min                   =  -5.6169253842489E-09
(PID.TID 0000.0001) %MON vort_r_max                   =   6.8819887079462E-09
(PID.TID 0000.0001) %MON vort_a_mean                  =  -1.1390240000000E-04
(PID.TID 0000.0001) %MON vort_a_sd                    =   3.7033672127997E-06
(PID.TID 0000.0001) %MON vort_p_mean                  =  -1.5528913309106E-04
(PID.TID 0000.0001) %MON vort_p_sd                    =   4.1188205429193E-05
(PID.TID 0000.0001) %MON surfExpan_theta_mean         =   1.7358315885441E-07
(PID.TID 0000.0001) %MON surfExpan_salt_mean          =   1.5188526399761E-06
(PID.TID 0000.0001) // =======================================================
(PID.TID 0000.0001) // End MONITOR dynamic field statistics
(PID.TID 0000.0001) // =======================================================
 cg2d: Sum(rhs),rhsMax =  -5.18272347948927E+00  1.66593592879081E-03
(PID.TID 0000.0001)                    cg2d_init_res =    3.16914250420318E-01
(PID.TID 0000.0001)                       cg2d_iters =    15
(PID.TID 0000.0001)                         cg2d_res =    8.93065281090293E-17
(PID.TID 0000.0001) // =======================================================
(PID.TID 0000.0001) // Begin MONITOR dynamic field statistics
(PID.TID 0000.0001) // =======================================================
(PID.TID 0000.0001) %MON time_tsnumber                =                    19
(PID.TID 0000.0001) %MON time_secondsf                =   6.8400000000000E+04
(PID.TID 0000.0001) %MON dynstat_eta_max              =   6.3004368397868E-04
(PID.TID 0000.0001) %MON dynstat_eta_min              =   5.0572611349568E-04
(PID.TID 0000.0001) %MON dynstat_eta_mean             =   5.5948872442478E-04
(PID.TID 0000.0001) %MON dynstat_eta_sd               =   4.1543944409833E-05
(PID.TID 0000.0001) %MON dynstat_eta_del2             =   1.4357293195201E-05
(PID.TID 0000.0001) %MON dynstat_uvel_max             =   5.6489267150750E-03
(PID.TID 0000.0001) %MON dynstat_uvel_min             =  -6.4103950730344E-05
(PID.TID 0000.0001) %MON dynstat_uvel_mean            =   1.5465130074729E-04
(PID.TID 0000.0001) %MON dynstat_uvel_sd              =   7.6170049836386E-04
(PID.TID 0000.0001) %MON dynstat_uvel_del2            =   7.4055198553680E-05
(PID.TID 0000.0001) %MON dynstat_vvel_max             =   1.3098554924780E-02
(PID.TID 0000.0001) %MON dynstat_vvel_min             =  -7.2366366831780E-05
(PID.TID 0000.0001) %MON dynstat_vvel_mean            =   3.1259585993334E-04
(PID.TID 0000.0001) %MON dynstat_vvel_sd              =   1.8221440461123E-03
(PID.TID 0000.0001) %MON dynstat_vvel_del2            =   1.1157852123771E-04
(PID.TID 0000.0001) %MON dynstat_wvel_max             =   7.1629102274923E-07
(PID.TID 0000.0001) %MON dynstat_wvel_min             =  -1.6263972135297E-06
(PID.TID 0000.0001) %MON dynstat_wvel_mean            =   1.2400444258444E-09
(PID.TID 0000.0001) %MON dynstat_wvel_sd              =   7.3472837335767E-07
(PID.TID 0000.0001) %MON dynstat_wvel_del2            =   2.6487169470691E-07
(PID.TID 0000.0001) %MON dynstat_theta_max            =   4.0000000000000E+00
(PID.TID 0000.0001) %MON dynstat_theta_min            =   4.0000000000000E+00
(PID.TID 0000.0001) %MON dynstat_theta_mean           =   4.0000000000000E+00
(PID.TID 0000.0001) %MON dynstat_theta_sd             =   0.0000000000000E+00
(PID.TID 0000.0001) %MON dynstat_theta_del2           =   0.0000000000000E+00
(PID.TID 0000.0001) %MON dynstat_salt_max             =   3.5000000000000E+01
(PID.TID 0000.0001) %MON dynstat_salt_min             =   3.5000000000000E+01
(PID.TID 0000.0001) %MON dynstat_salt_mean            =   3.5000000000000E+01
(PID.TID 0000.0001) %MON dynstat_salt_sd              =   0.0000000000000E+00
(PID.TID 0000.0001) %MON dynstat_salt_del2            =   0.0000000000000E+00
(PID.TID 0000.0001) %MON dynstat_sst_max              =   4.0000000000000E+00
(PID.TID 0000.0001) %MON dynstat_sst_min              =   4.0000000000000E+00
(PID.TID 0000.0001) %MON dynstat_sst_mean             =   4.0000000000000E+00
(PID.TID 0000.0001) %MON dynstat_sst_sd               =   0.0000000000000E+00
(PID.TID 0000.0001) %MON dynstat_sst_del2             =   0.0000000000000E+00
(PID.TID 0000.0001) %MON dynstat_sss_max              =   3.5000000000000E+01
(PID.TID 0000.0001) %MON dynstat_sss_min              =   3.5000000000000E+01
(PID.TID 0000.0001) %MON dynstat_sss_mean             =   3.5000000000000E+01
(PID.TID 0000.0001) %MON dynstat_sss_sd               =   0.0000000000000E+00
(PID.TID 0000.0001) %MON dynstat_sss_del2             =   0.0000000000000E+00
(PID.TID 0000.0001) %MON extforcing_qnet_max          =   0.0000000000000E+00
(PID.TID 0000.0001) %MON extforcing_qnet_min          =   0.0000000000000E+00
(PID.TID 0000.0001) %MON extforcing_qnet_mean         =   0.0000000000000E+00
(PID.TID 0000.0001) %MON extforcing_qnet_sd           =   0.0000000000000E+00
(PID.TID 0000.0001) %MON extforcing_qnet_del2         =   0.0000000000000E+00
(PID.TID 0000.0001) %MON extforcing_qsw_max           =   0.0000000000000E+00
(PID.TID 0000.0001) %MON extforcing_qsw_min           =   0.0000000000000E+00
(PID.TID 0000.0001) %MON extforcing_qsw_mean          =   0.0000000000000E+00
(PID.TID 0000.0001) %MON extforcing_qsw_sd            =   0.0000000000000E+00
(PID.TID 0000.0001) %MON extforcing_qsw_del2          =   0.0000000000000E+00
(PID.TID 0000.0001) %MON extforcing_empmr_max         =   0.0000000000000E+00
(PID.TID 0000.0001) %MON extforcing_empmr_min         =   0.0000000000000E+00
(PID.TID 0000.0001) %MON extforcing_empmr_mean        =   0.0000000000000E+00
(PID.TID 0000.0001) %MON extforcing_empmr_sd          =   0.0000000000000E+00
(PID.TID 0000.0001) %MON extforcing_empmr_del2        =   0.0000000000000E+00
(PID.TID 0000.0001) %MON extforcing_fu_max            =   1.0000000000000E-01
(PID.TID 0000.0001) %MON extforcing_fu_min            =   1.0000000000000E-01
(PID.TID 0000.0001) %MON extforcing_fu_mean           =   1.0000000000000E-01
(PID.TID 0000.0001) %MON extforcing_fu_sd             =   0.0000000000000E+00
(PID.TID 0000.0001) %MON extforcing_fu_del2           =   0.0000000000000E+00
(PID.TID 0000.0001) %MON extforcing_fv_max            =   0.0000000000000E+00
(PID.TID 0000.0001) %MON extforcing_fv_min            =   0.0000000000000E+00
(PID.TID 0000.0001) %MON extforcing_fv_mean           =   0.0000000000000E+00
(PID.TID 0000.0001) %MON extforcing_fv_sd             =   0.0000000000000E+00
(PID.TID 0000.0001) %MON extforcing_fv_del2           =   0.0000000000000E+00
(PID.TID 0000.0001) %MON advcfl_uvel_max              =   1.0168068087135E-04
(PID.TID 0000.0001) %MON advcfl_vvel_max              =   2.3577398864604E-04
(PID.TID 0000.0001) %MON advcfl_wvel_max              =   1.8823565621765E-05
(PID.TID 0000.0001) %MON advcfl_W_hf_max              =   4.7058914054411E-05
(PID.TID 0000.0001) %MON pe_b_mean                    =   3.5080563764705E-10
(PID.TID 0000.0001) %MON ke_max                       =   1.0170481130135E-04
(PID.TID 0000.0001) %MON ke_mean                      =   2.0110148852303E-06
(PID.TID 0000.0001) %MON ke_vol                       =   4.4009158039362E+15
(PID.TID 0000.0001) %MON vort_r_min                   =  -3.9590094534600E-09
(PID.TID 0000.0001) %MON vort_r_max                   =   3.3592249281138E-09
(PID.TID 0000.0001) %MON vort_a_mean                  =  -1.1390240000000E-04
(PID.TID 0000.0001) %MON vort_a_sd                    =   3.7033604316295E-06
(PID.TID 0000.0001) %MON vort_p_mean                  =  -1.5528913309106E-04
(PID.TID 0000.0001) %MON vort_p_sd                    =   4.1188205166397E-05
(PID.TID 0000.0001) %MON surfExpan_theta_mean         =   1.5694260955474E-07
(PID.TID 0000.0001) %MON surfExpan_salt_mean          =   1.3732478336040E-06
(PID.TID 0000.0001) // =======================================================
(PID.TID 0000.0001) // End MONITOR dynamic field statistics
(PID.TID 0000.0001) // =======================================================
 cg2d: Sum(rhs),rhsMax =  -5.80990598228070E+00  1.74846175380777E-03
(PID.TID 0000.0001)                    cg2d_init_res =    3.18020394760833E-01
(PID.TID 0000.0001)                       cg2d_iters =    15
(PID.TID 0000.0001)                         cg2d_res =    3.68065394183152E-17
(PID.TID 0000.0001) // =======================================================
(PID.TID 0000.0001) // Begin MONITOR dynamic field statistics
(PID.TID 0000.0001) // =======================================================
(PID.TID 0000.0001) %MON time_tsnumber                =                    20
(PID.TID 0000.0001) %MON time_secondsf                =   7.2000000000000E+04
(PID.TID 0000.0001) %MON dynstat_eta_max              =   7.3352215656572E-04
(PID.TID 0000.0001) %MON dynstat_eta_min              =   5.9797719509223E-04
(PID.TID 0000.0001) %MON dynstat_eta_mean             =   6.5826421652974E-04
(PID.TID 0000.0001) %MON dynstat_eta_sd               =   4.7800211881930E-05
(PID.TID 0000.0001) %MON dynstat_eta_del2             =   1.6591424387737E-05
(PID.TID 0000.0001) %MON dynstat_uvel_max             =   3.5782154123974E-03
(PID.TID 0000.0001) %MON dynstat_uvel_min             =  -4.7935697219314E-05
(PID.TID 0000.0001) %MON dynstat_uvel_mean            =   9.0847588959397E-05
(PID.TID 0000.0001) %MON dynstat_uvel_sd              =   4.6573148172812E-04
(PID.TID 0000.0001) %MON dynstat_uvel_del2            =   6.9465329810569E-05
(PID.TID 0000.0001) %MON dynstat_vvel_max             =   1.4742231336112E-02
(PID.TID 0000.0001) %MON dynstat_vvel_min             =  -7.1313527087108E-05
(PID.TID 0000.0001) %MON dynstat_vvel_mean            =   3.6731795678999E-04
(PID.TID 0000.0001) %MON dynstat_vvel_sd              =   2.0625744306402E-03
(PID.TID 0000.0001) %MON dynstat_vvel_del2            =   1.1297233243728E-04
(PID.TID 0000.0001) %MON dynstat_wvel_max             =   8.2584516028085E-07
(PID.TID 0000.0001) %MON dynstat_wvel_min             =  -1.6627050307793E-06
(PID.TID 0000.0001) %MON dynstat_wvel_mean            =   1.6577103987095E-09
(PID.TID 0000.0001) %MON dynstat_wvel_sd              =   7.5447653270749E-07
(PID.TID 0000.0001) %MON dynstat_wvel_del2            =   2.7244324616620E-07
(PID.TID 0000.0001) %MON dynstat_theta_max            =   4.0000000000000E+00
(PID.TID 0000.0001) %MON dynstat_theta_min            =   4.0000000000000E+00
(PID.TID 0000.0001) %MON dynstat_theta_mean           =   4.0000000000000E+00
(PID.TID 0000.0001) %MON dynstat_theta_sd             =   0.0000000000000E+00
(PID.TID 0000.0001) %MON dynstat_theta_del2           =   0.0000000000000E+00
(PID.TID 0000.0001) %MON dynstat_salt_max             =   3.5000000000000E+01
(PID.TID 0000.0001) %MON dynstat_salt_min             =   3.5000000000000E+01
(PID.TID 0000.0001) %MON dynstat_salt_mean            =   3.5000000000000E+01
(PID.TID 0000.0001) %MON dynstat_salt_sd              =   0.0000000000000E+00
(PID.TID 0000.0001) %MON dynstat_salt_del2            =   0.0000000000000E+00
(PID.TID 0000.0001) %MON dynstat_sst_max              =   4.0000000000000E+00
(PID.TID 0000.0001) %MON dynstat_sst_min              =   4.0000000000000E+00
(PID.TID 0000.0001) %MON dynstat_sst_mean             =   4.0000000000000E+00
(PID.TID 0000.0001) %MON dynstat_sst_sd               =   0.0000000000000E+00
(PID.TID 0000.0001) %MON dynstat_sst_del2             =   0.0000000000000E+00
(PID.TID 0000.0001) %MON dynstat_sss_max              =   3.5000000000000E+01
(PID.TID 0000.0001) %MON dynstat_sss_min              =   3.5000000000000E+01
(PID.TID 0000.0001) %MON dynstat_sss_mean             =   3.5000000000000E+01
(PID.TID 0000.0001) %MON dynstat_sss_sd               =   0.0000000000000E+00
(PID.TID 0000.0001) %MON dynstat_sss_del2             =   0.0000000000000E+00
(PID.TID 0000.0001) %MON extforcing_qnet_max          =   0.0000000000000E+00
(PID.TID 0000.0001) %MON extforcing_qnet_min          =   0.0000000000000E+00
(PID.TID 0000.0001) %MON extforcing_qnet_mean         =   0.0000000000000E+00
(PID.TID 0000.0001) %MON extforcing_qnet_sd           =   0.0000000000000E+00
(PID.TID 0000.0001) %MON extforcing_qnet_del2         =   0.0000000000000E+00
(PID.TID 0000.0001) %MON extforcing_qsw_max           =   0.0000000000000E+00
(PID.TID 0000.0001) %MON extforcing_qsw_min           =   0.0000000000000E+00
(PID.TID 0000.0001) %MON extforcing_qsw_mean          =   0.0000000000000E+00
(PID.TID 0000.0001) %MON extforcing_qsw_sd            =   0.0000000000000E+00
(PID.TID 0000.0001) %MON extforcing_qsw_del2          =   0.0000000000000E+00
(PID.TID 0000.0001) %MON extforcing_empmr_max         =   0.0000000000000E+00
(PID.TID 0000.0001) %MON extforcing_empmr_min         =   0.0000000000000E+00
(PID.TID 0000.0001) %MON extforcing_empmr_mean        =   0.0000000000000E+00
(PID.TID 0000.0001) %MON extforcing_empmr_sd          =   0.0000000000000E+00
(PID.TID 0000.0001) %MON extforcing_empmr_del2        =   0.0000000000000E+00
(PID.TID 0000.0001) %MON extforcing_fu_max            =   1.0000000000000E-01
(PID.TID 0000.0001) %MON extforcing_fu_min            =   1.0000000000000E-01
(PID.TID 0000.0001) %MON extforcing_fu_mean           =   1.0000000000000E-01
(PID.TID 0000.0001) %MON extforcing_fu_sd             =   0.0000000000000E+00
(PID.TID 0000.0001) %MON extforcing_fu_del2           =   0.0000000000000E+00
(PID.TID 0000.0001) %MON extforcing_fv_max            =   0.0000000000000E+00
(PID.TID 0000.0001) %MON extforcing_fv_min            =   0.0000000000000E+00
(PID.TID 0000.0001) %MON extforcing_fv_mean           =   0.0000000000000E+00
(PID.TID 0000.0001) %MON extforcing_fv_sd             =   0.0000000000000E+00
(PID.TID 0000.0001) %MON extforcing_fv_del2           =   0.0000000000000E+00
(PID.TID 0000.0001) %MON advcfl_uvel_max              =   6.4407877423153E-05
(PID.TID 0000.0001) %MON advcfl_vvel_max              =   2.6536016405002E-04
(PID.TID 0000.0001) %MON advcfl_wvel_max              =   1.9219124646664E-05
(PID.TID 0000.0001) %MON advcfl_W_hf_max              =   4.8047811616660E-05
(PID.TID 0000.0001) %MON pe_b_mean                    =   4.8549020467048E-10
(PID.TID 0000.0001) %MON ke_max                       =   1.1321011285871E-04
(PID.TID 0000.0001) %MON ke_mean                      =   2.3071474304018E-06
(PID.TID 0000.0001) %MON ke_vol                       =   4.4009158039362E+15
(PID.TID 0000.0001) %MON vort_r_min                   =  -4.1764622349247E-09
(PID.TID 0000.0001) %MON vort_r_max                   =   6.3494811545702E-09
(PID.TID 0000.0001) %MON vort_a_mean                  =  -1.1390240000000E-04
(PID.TID 0000.0001) %MON vort_a_sd                    =   3.7033510974541E-06
(PID.TID 0000.0001) %MON vort_p_mean                  =  -1.5528913309106E-04
(PID.TID 0000.0001) %MON vort_p_sd                    =   4.1188204720593E-05
(PID.TID 0000.0001) %MON surfExpan_theta_mean         =   1.0975054678329E-07
(PID.TID 0000.0001) %MON surfExpan_salt_mean          =   9.6031728435377E-07
(PID.TID 0000.0001) // =======================================================
(PID.TID 0000.0001) // End MONITOR dynamic field statistics
(PID.TID 0000.0001) // =======================================================
 cg2d: Sum(rhs),rhsMax =  -5.87740627497557E+00  1.82725971218557E-03
(PID.TID 0000.0001)                    cg2d_init_res =    3.50553768175265E-01
(PID.TID 0000.0001)                       cg2d_iters =    14
(PID.TID 0000.0001)                         cg2d_res =    6.77405913056686E-14
(PID.TID 0000.0001) // =======================================================
(PID.TID 0000.0001) // Begin MONITOR dynamic field statistics
(PID.TID 0000.0001) // =======================================================
(PID.TID 0000.0001) %MON time_tsnumber                =                    21
(PID.TID 0000.0001) %MON time_secondsf                =   7.5600000000000E+04
(PID.TID 0000.0001) %MON dynstat_eta_max              =   7.7821715638730E-04
(PID.TID 0000.0001) %MON dynstat_eta_min              =   6.2432377336475E-04
(PID.TID 0000.0001) %MON dynstat_eta_mean             =   6.9592269085694E-04
(PID.TID 0000.0001) %MON dynstat_eta_sd               =   5.6791646944334E-05
(PID.TID 0000.0001) %MON dynstat_eta_del2             =   1.9869374708192E-05
(PID.TID 0000.0001) %MON dynstat_uvel_max             =   1.4669125667692E-03
(PID.TID 0000.0001) %MON dynstat_uvel_min             =  -6.6862199007602E-04
(PID.TID 0000.0001) %MON dynstat_uvel_mean            =   1.0503968120595E-05
(PID.TID 0000.0001) %MON dynstat_uvel_sd              =   1.6343021908343E-04
(PID.TID 0000.0001) %MON dynstat_uvel_del2            =   8.7431593926120E-05
(PID.TID 0000.0001) %MON dynstat_vvel_max             =   1.5267475972730E-02
(PID.TID 0000.0001) %MON dynstat_vvel_min             =  -5.8068368482629E-05
(PID.TID 0000.0001) %MON dynstat_vvel_mean            =   3.8856266136205E-04
(PID.TID 0000.0001) %MON dynstat_vvel_sd              =   2.1455334589357E-03
(PID.TID 0000.0001) %MON dynstat_vvel_del2            =   1.0931613726455E-04
(PID.TID 0000.0001) %MON dynstat_wvel_max             =   7.2704561328525E-07
(PID.TID 0000.0001) %MON dynstat_wvel_min             =  -1.5341385719337E-06
(PID.TID 0000.0001) %MON dynstat_wvel_mean            =   1.7704635571423E-09
(PID.TID 0000.0001) %MON dynstat_wvel_sd              =   6.8369065394385E-07
(PID.TID 0000.0001) %MON dynstat_wvel_del2            =   2.7822565386000E-07
(PID.TID 0000.0001) %MON dynstat_theta_max            =   4.0000000000000E+00
(PID.TID 0000.0001) %MON dynstat_theta_min            =   4.0000000000000E+00
(PID.TID 0000.0001) %MON dynstat_theta_mean           =   4.0000000000000E+00
(PID.TID 0000.0001) %MON dynstat_theta_sd             =   0.0000000000000E+00
(PID.TID 0000.0001) %MON dynstat_theta_del2           =   0.0000000000000E+00
(PID.TID 0000.0001) %MON dynstat_salt_max             =   3.5000000000000E+01
(PID.TID 0000.0001) %MON dynstat_salt_min             =   3.5000000000000E+01
(PID.TID 0000.0001) %MON dynstat_salt_mean            =   3.5000000000000E+01
(PID.TID 0000.0001) %MON dynstat_salt_sd              =   0.0000000000000E+00
(PID.TID 0000.0001) %MON dynstat_salt_del2            =   0.0000000000000E+00
(PID.TID 0000.0001) %MON dynstat_sst_max              =   4.0000000000000E+00
(PID.TID 0000.0001) %MON dynstat_sst_min              =   4.0000000000000E+00
(PID.TID 0000.0001) %MON dynstat_sst_mean             =   4.0000000000000E+00
(PID.TID 0000.0001) %MON dynstat_sst_sd               =   0.0000000000000E+00
(PID.TID 0000.0001) %MON dynstat_sst_del2             =   0.0000000000000E+00
(PID.TID 0000.0001) %MON dynstat_sss_max              =   3.5000000000000E+01
(PID.TID 0000.0001) %MON dynstat_sss_min              =   3.5000000000000E+01
(PID.TID 0000.0001) %MON dynstat_sss_mean             =   3.5000000000000E+01
(PID.TID 0000.0001) %MON dynstat_sss_sd               =   0.0000000000000E+00
(PID.TID 0000.0001) %MON dynstat_sss_del2             =   0.0000000000000E+00
(PID.TID 0000.0001) %MON extforcing_qnet_max          =   0.0000000000000E+00
(PID.TID 0000.0001) %MON extforcing_qnet_min          =   0.0000000000000E+00
(PID.TID 0000.0001) %MON extforcing_qnet_mean         =   0.0000000000000E+00
(PID.TID 0000.0001) %MON extforcing_qnet_sd           =   0.0000000000000E+00
(PID.TID 0000.0001) %MON extforcing_qnet_del2         =   0.0000000000000E+00
(PID.TID 0000.0001) %MON extforcing_qsw_max           =   0.0000000000000E+00
(PID.TID 0000.0001) %MON extforcing_qsw_min           =   0.0000000000000E+00
(PID.TID 0000.0001) %MON extforcing_qsw_mean          =   0.0000000000000E+00
(PID.TID 0000.0001) %MON extforcing_qsw_sd            =   0.0000000000000E+00
(PID.TID 0000.0001) %MON extforcing_qsw_del2          =   0.0000000000000E+00
(PID.TID 0000.0001) %MON extforcing_empmr_max         =   0.0000000000000E+00
(PID.TID 0000.0001) %MON extforcing_empmr_min         =   0.0000000000000E+00
(PID.TID 0000.0001) %MON extforcing_empmr_mean        =   0.0000000000000E+00
(PID.TID 0000.0001) %MON extforcing_empmr_sd          =   0.0000000000000E+00
(PID.TID 0000.0001) %MON extforcing_empmr_del2        =   0.0000000000000E+00
(PID.TID 0000.0001) %MON extforcing_fu_max            =   1.0000000000000E-01
(PID.TID 0000.0001) %MON extforcing_fu_min            =   1.0000000000000E-01
(PID.TID 0000.0001) %MON extforcing_fu_mean           =   1.0000000000000E-01
(PID.TID 0000.0001) %MON extforcing_fu_sd             =   0.0000000000000E+00
(PID.TID 0000.0001) %MON extforcing_fu_del2           =   0.0000000000000E+00
(PID.TID 0000.0001) %MON extforcing_fv_max            =   0.0000000000000E+00
(PID.TID 0000.0001) %MON extforcing_fv_min            =   0.0000000000000E+00
(PID.TID 0000.0001) %MON extforcing_fv_mean           =   0.0000000000000E+00
(PID.TID 0000.0001) %MON extforcing_fv_sd             =   0.0000000000000E+00
(PID.TID 0000.0001) %MON extforcing_fv_del2           =   0.0000000000000E+00
(PID.TID 0000.0001) %MON advcfl_uvel_max              =   2.6404426201846E-05
(PID.TID 0000.0001) %MON advcfl_vvel_max              =   2.7481456750915E-04
(PID.TID 0000.0001) %MON advcfl_wvel_max              =   1.7823702668747E-05
(PID.TID 0000.0001) %MON advcfl_W_hf_max              =   4.4559256671868E-05
(PID.TID 0000.0001) %MON pe_b_mean                    =   5.4337615640251E-10
(PID.TID 0000.0001) %MON ke_max                       =   1.1453962614790E-04
(PID.TID 0000.0001) %MON ke_mean                      =   2.3905572675367E-06
(PID.TID 0000.0001) %MON ke_vol                       =   4.4009158039362E+15
(PID.TID 0000.0001) %MON vort_r_min                   =  -4.3982989067490E-09
(PID.TID 0000.0001) %MON vort_r_max                   =   1.0378047013757E-08
(PID.TID 0000.0001) %MON vort_a_mean                  =  -1.1390240000000E-04
(PID.TID 0000.0001) %MON vort_a_sd                    =   3.7033397784082E-06
(PID.TID 0000.0001) %MON vort_p_mean                  =  -1.5528913309106E-04
(PID.TID 0000.0001) %MON vort_p_sd                    =   4.1188203922799E-05
(PID.TID 0000.0001) %MON surfExpan_theta_mean         =   4.1842749252440E-08
(PID.TID 0000.0001) %MON surfExpan_salt_mean          =   3.6612405595885E-07
(PID.TID 0000.0001) // =======================================================
(PID.TID 0000.0001) // End MONITOR dynamic field statistics
(PID.TID 0000.0001) // =======================================================
 cg2d: Sum(rhs),rhsMax =  -5.41358311299285E+00  1.89900434709077E-03
(PID.TID 0000.0001)                    cg2d_init_res =    3.81607619812990E-01
(PID.TID 0000.0001)                       cg2d_iters =    15
(PID.TID 0000.0001)                         cg2d_res =    1.19575709281145E-17
(PID.TID 0000.0001) // =======================================================
(PID.TID 0000.0001) // Begin MONITOR dynamic field statistics
(PID.TID 0000.0001) // =======================================================
(PID.TID 0000.0001) %MON time_tsnumber                =                    22
(PID.TID 0000.0001) %MON time_secondsf                =   7.9200000000000E+04
(PID.TID 0000.0001) %MON dynstat_eta_max              =   7.6088302251624E-04
(PID.TID 0000.0001) %MON dynstat_eta_min              =   5.7526667869744E-04
(PID.TID 0000.0001) %MON dynstat_eta_mean             =   6.6617107764621E-04
(PID.TID 0000.0001) %MON dynstat_eta_sd               =   6.7127616389046E-05
(PID.TID 0000.0001) %MON dynstat_eta_del2             =   2.3509440969513E-05
(PID.TID 0000.0001) %MON dynstat_uvel_max             =   5.7023041477449E-05
(PID.TID 0000.0001) %MON dynstat_uvel_min             =  -3.4447909268815E-03
(PID.TID 0000.0001) %MON dynstat_uvel_mean            =  -7.0297592831682E-05
(PID.TID 0000.0001) %MON dynstat_uvel_sd              =   3.2108948997795E-04
(PID.TID 0000.0001) %MON dynstat_uvel_del2            =   1.1718515400305E-04
(PID.TID 0000.0001) %MON dynstat_vvel_max             =   1.4628816634499E-02
(PID.TID 0000.0001) %MON dynstat_vvel_min             =  -4.4413707117761E-05
(PID.TID 0000.0001) %MON dynstat_vvel_mean            =   3.7276546106438E-04
(PID.TID 0000.0001) %MON dynstat_vvel_sd              =   2.0634451199826E-03
(PID.TID 0000.0001) %MON dynstat_vvel_del2            =   1.1331725487849E-04
(PID.TID 0000.0001) %MON dynstat_wvel_max             =   6.5094868118642E-07
(PID.TID 0000.0001) %MON dynstat_wvel_min             =  -1.2547491407300E-06
(PID.TID 0000.0001) %MON dynstat_wvel_mean            =   1.5484865895508E-09
(PID.TID 0000.0001) %MON dynstat_wvel_sd              =   5.5674312456153E-07
(PID.TID 0000.0001) %MON dynstat_wvel_del2            =   2.8681055523683E-07
(PID.TID 0000.0001) %MON dynstat_theta_max            =   4.0000000000000E+00
(PID.TID 0000.0001) %MON dynstat_theta_min            =   4.0000000000000E+00
(PID.TID 0000.0001) %MON dynstat_theta_mean           =   4.0000000000000E+00
(PID.TID 0000.0001) %MON dynstat_theta_sd             =   0.0000000000000E+00
(PID.TID 0000.0001) %MON dynstat_theta_del2           =   0.0000000000000E+00
(PID.TID 0000.0001) %MON dynstat_salt_max             =   3.5000000000000E+01
(PID.TID 0000.0001) %MON dynstat_salt_min             =   3.5000000000000E+01
(PID.TID 0000.0001) %MON dynstat_salt_mean            =   3.5000000000000E+01
(PID.TID 0000.0001) %MON dynstat_salt_sd              =   0.0000000000000E+00
(PID.TID 0000.0001) %MON dynstat_salt_del2            =   0.0000000000000E+00
(PID.TID 0000.0001) %MON dynstat_sst_max              =   4.0000000000000E+00
(PID.TID 0000.0001) %MON dynstat_sst_min              =   4.0000000000000E+00
(PID.TID 0000.0001) %MON dynstat_sst_mean             =   4.0000000000000E+00
(PID.TID 0000.0001) %MON dynstat_sst_sd               =   0.0000000000000E+00
(PID.TID 0000.0001) %MON dynstat_sst_del2             =   0.0000000000000E+00
(PID.TID 0000.0001) %MON dynstat_sss_max              =   3.5000000000000E+01
(PID.TID 0000.0001) %MON dynstat_sss_min              =   3.5000000000000E+01
(PID.TID 0000.0001) %MON dynstat_sss_mean             =   3.5000000000000E+01
(PID.TID 0000.0001) %MON dynstat_sss_sd               =   0.0000000000000E+00
(PID.TID 0000.0001) %MON dynstat_sss_del2             =   0.0000000000000E+00
(PID.TID 0000.0001) %MON extforcing_qnet_max          =   0.0000000000000E+00
(PID.TID 0000.0001) %MON extforcing_qnet_min          =   0.0000000000000E+00
(PID.TID 0000.0001) %MON extforcing_qnet_mean         =   0.0000000000000E+00
(PID.TID 0000.0001) %MON extforcing_qnet_sd           =   0.0000000000000E+00
(PID.TID 0000.0001) %MON extforcing_qnet_del2         =   0.0000000000000E+00
(PID.TID 0000.0001) %MON extforcing_qsw_max           =   0.0000000000000E+00
(PID.TID 0000.0001) %MON extforcing_qsw_min           =   0.0000000000000E+00
(PID.TID 0000.0001) %MON extforcing_qsw_mean          =   0.0000000000000E+00
(PID.TID 0000.0001) %MON extforcing_qsw_sd            =   0.0000000000000E+00
(PID.TID 0000.0001) %MON extforcing_qsw_del2          =   0.0000000000000E+00
(PID.TID 0000.0001) %MON extforcing_empmr_max         =   0.0000000000000E+00
(PID.TID 0000.0001) %MON extforcing_empmr_min         =   0.0000000000000E+00
(PID.TID 0000.0001) %MON extforcing_empmr_mean        =   0.0000000000000E+00
(PID.TID 0000.0001) %MON extforcing_empmr_sd          =   0.0000000000000E+00
(PID.TID 0000.0001) %MON extforcing_empmr_del2        =   0.0000000000000E+00
(PID.TID 0000.0001) %MON extforcing_fu_max            =   1.0000000000000E-01
(PID.TID 0000.0001) %MON extforcing_fu_min            =   1.0000000000000E-01
(PID.TID 0000.0001) %MON extforcing_fu_mean           =   1.0000000000000E-01
(PID.TID 0000.0001) %MON extforcing_fu_sd             =   0.0000000000000E+00
(PID.TID 0000.0001) %MON extforcing_fu_del2           =   0.0000000000000E+00
(PID.TID 0000.0001) %MON extforcing_fv_max            =   0.0000000000000E+00
(PID.TID 0000.0001) %MON extforcing_fv_min            =   0.0000000000000E+00
(PID.TID 0000.0001) %MON extforcing_fv_mean           =   0.0000000000000E+00
(PID.TID 0000.0001) %MON extforcing_fv_sd             =   0.0000000000000E+00
(PID.TID 0000.0001) %MON extforcing_fv_del2           =   0.0000000000000E+00
(PID.TID 0000.0001) %MON advcfl_uvel_max              =   6.2006236683866E-05
(PID.TID 0000.0001) %MON advcfl_vvel_max              =   2.6331869942098E-04
(PID.TID 0000.0001) %MON advcfl_wvel_max              =   1.4817630036960E-05
(PID.TID 0000.0001) %MON advcfl_W_hf_max              =   3.7044075092400E-05
(PID.TID 0000.0001) %MON pe_b_mean                    =   4.9963749678094E-10
(PID.TID 0000.0001) %MON ke_max                       =   1.0564269334667E-04
(PID.TID 0000.0001) %MON ke_mean                      =   2.2524000321375E-06
(PID.TID 0000.0001) %MON ke_vol                       =   4.4009158039362E+15
(PID.TID 0000.0001) %MON vort_r_min                   =  -6.5535857288809E-09
(PID.TID 0000.0001) %MON vort_r_max                   =   1.3489499592532E-08
(PID.TID 0000.0001) %MON vort_a_mean                  =  -1.1390240000000E-04
(PID.TID 0000.0001) %MON vort_a_sd                    =   3.7033273969794E-06
(PID.TID 0000.0001) %MON vort_p_mean                  =  -1.5528913309106E-04
(PID.TID 0000.0001) %MON vort_p_sd                    =   4.1188202656848E-05
(PID.TID 0000.0001) %MON surfExpan_theta_mean         =  -3.3057348011925E-08
(PID.TID 0000.0001) %MON surfExpan_salt_mean          =  -2.8925179510434E-07
(PID.TID 0000.0001) // =======================================================
(PID.TID 0000.0001) // End MONITOR dynamic field statistics
(PID.TID 0000.0001) // =======================================================
 cg2d: Sum(rhs),rhsMax =  -4.53080676713550E+00  1.96213934573591E-03
(PID.TID 0000.0001)                    cg2d_init_res =    3.87585562173675E-01
(PID.TID 0000.0001)                       cg2d_iters =    15
(PID.TID 0000.0001)                         cg2d_res =    3.31105308681238E-17
(PID.TID 0000.0001) // =======================================================
(PID.TID 0000.0001) // Begin MONITOR dynamic field statistics
(PID.TID 0000.0001) // =======================================================
(PID.TID 0000.0001) %MON time_tsnumber                =                    23
(PID.TID 0000.0001) %MON time_secondsf                =   8.2800000000000E+04
(PID.TID 0000.0001) %MON dynstat_eta_max              =   6.9457374729434E-04
(PID.TID 0000.0001) %MON dynstat_eta_min              =   4.6872890434693E-04
(PID.TID 0000.0001) %MON dynstat_eta_mean             =   5.7607680982685E-04
(PID.TID 0000.0001) %MON dynstat_eta_sd               =   7.6998849239276E-05
(PID.TID 0000.0001) %MON dynstat_eta_del2             =   2.6913942991273E-05
(PID.TID 0000.0001) %MON dynstat_uvel_max             =   6.0571104984395E-05
(PID.TID 0000.0001) %MON dynstat_uvel_min             =  -5.4913726255619E-03
(PID.TID 0000.0001) %MON dynstat_uvel_mean            =  -1.3567629781071E-04
(PID.TID 0000.0001) %MON dynstat_uvel_sd              =   5.8230969731045E-04
(PID.TID 0000.0001) %MON dynstat_uvel_del2            =   1.3409635470462E-04
(PID.TID 0000.0001) %MON dynstat_vvel_max             =   1.3007577650779E-02
(PID.TID 0000.0001) %MON dynstat_vvel_min             =  -3.7748225351709E-05
(PID.TID 0000.0001) %MON dynstat_vvel_mean            =   3.2370090277070E-04
(PID.TID 0000.0001) %MON dynstat_vvel_sd              =   1.8424221819373E-03
(PID.TID 0000.0001) %MON dynstat_vvel_del2            =   1.1896841734811E-04
(PID.TID 0000.0001) %MON dynstat_wvel_max             =   6.9503164773489E-07
(PID.TID 0000.0001) %MON dynstat_wvel_min             =  -8.6232329061253E-07
(PID.TID 0000.0001) %MON dynstat_wvel_mean            =   1.0268215510461E-09
(PID.TID 0000.0001) %MON dynstat_wvel_sd              =   4.8240700744109E-07
(PID.TID 0000.0001) %MON dynstat_wvel_del2            =   3.1816078978528E-07
(PID.TID 0000.0001) %MON dynstat_theta_max            =   4.0000000000000E+00
(PID.TID 0000.0001) %MON dynstat_theta_min            =   4.0000000000000E+00
(PID.TID 0000.0001) %MON dynstat_theta_mean           =   4.0000000000000E+00
(PID.TID 0000.0001) %MON dynstat_theta_sd             =   0.0000000000000E+00
(PID.TID 0000.0001) %MON dynstat_theta_del2           =   0.0000000000000E+00
(PID.TID 0000.0001) %MON dynstat_salt_max             =   3.5000000000000E+01
(PID.TID 0000.0001) %MON dynstat_salt_min             =   3.5000000000000E+01
(PID.TID 0000.0001) %MON dynstat_salt_mean            =   3.5000000000000E+01
(PID.TID 0000.0001) %MON dynstat_salt_sd              =   0.0000000000000E+00
(PID.TID 0000.0001) %MON dynstat_salt_del2            =   0.0000000000000E+00
(PID.TID 0000.0001) %MON dynstat_sst_max              =   4.0000000000000E+00
(PID.TID 0000.0001) %MON dynstat_sst_min              =   4.0000000000000E+00
(PID.TID 0000.0001) %MON dynstat_sst_mean             =   4.0000000000000E+00
(PID.TID 0000.0001) %MON dynstat_sst_sd               =   0.0000000000000E+00
(PID.TID 0000.0001) %MON dynstat_sst_del2             =   0.0000000000000E+00
(PID.TID 0000.0001) %MON dynstat_sss_max              =   3.5000000000000E+01
(PID.TID 0000.0001) %MON dynstat_sss_min              =   3.5000000000000E+01
(PID.TID 0000.0001) %MON dynstat_sss_mean             =   3.5000000000000E+01
(PID.TID 0000.0001) %MON dynstat_sss_sd               =   0.0000000000000E+00
(PID.TID 0000.0001) %MON dynstat_sss_del2             =   0.0000000000000E+00
(PID.TID 0000.0001) %MON extforcing_qnet_max          =   0.0000000000000E+00
(PID.TID 0000.0001) %MON extforcing_qnet_min          =   0.0000000000000E+00
(PID.TID 0000.0001) %MON extforcing_qnet_mean         =   0.0000000000000E+00
(PID.TID 0000.0001) %MON extforcing_qnet_sd           =   0.0000000000000E+00
(PID.TID 0000.0001) %MON extforcing_qnet_del2         =   0.0000000000000E+00
(PID.TID 0000.0001) %MON extforcing_qsw_max           =   0.0000000000000E+00
(PID.TID 0000.0001) %MON extforcing_qsw_min           =   0.0000000000000E+00
(PID.TID 0000.0001) %MON extforcing_qsw_mean          =   0.0000000000000E+00
(PID.TID 0000.0001) %MON extforcing_qsw_sd            =   0.0000000000000E+00
(PID.TID 0000.0001) %MON extforcing_qsw_del2          =   0.0000000000000E+00
(PID.TID 0000.0001) %MON extforcing_empmr_max         =   0.0000000000000E+00
(PID.TID 0000.0001) %MON extforcing_empmr_min         =   0.0000000000000E+00
(PID.TID 0000.0001) %MON extforcing_empmr_mean        =   0.0000000000000E+00
(PID.TID 0000.0001) %MON extforcing_empmr_sd          =   0.0000000000000E+00
(PID.TID 0000.0001) %MON extforcing_empmr_del2        =   0.0000000000000E+00
(PID.TID 0000.0001) %MON extforcing_fu_max            =   1.0000000000000E-01
(PID.TID 0000.0001) %MON extforcing_fu_min            =   1.0000000000000E-01
(PID.TID 0000.0001) %MON extforcing_fu_mean           =   1.0000000000000E-01
(PID.TID 0000.0001) %MON extforcing_fu_sd             =   0.0000000000000E+00
(PID.TID 0000.0001) %MON extforcing_fu_del2           =   0.0000000000000E+00
(PID.TID 0000.0001) %MON extforcing_fv_max            =   0.0000000000000E+00
(PID.TID 0000.0001) %MON extforcing_fv_min            =   0.0000000000000E+00
(PID.TID 0000.0001) %MON extforcing_fv_mean           =   0.0000000000000E+00
(PID.TID 0000.0001) %MON extforcing_fv_sd             =   0.0000000000000E+00
(PID.TID 0000.0001) %MON extforcing_fv_del2           =   0.0000000000000E+00
(PID.TID 0000.0001) %MON advcfl_uvel_max              =   9.8844707260114E-05
(PID.TID 0000.0001) %MON advcfl_vvel_max              =   2.3413639771401E-04
(PID.TID 0000.0001) %MON advcfl_wvel_max              =   1.0668473166702E-05
(PID.TID 0000.0001) %MON advcfl_W_hf_max              =   2.6671182916756E-05
(PID.TID 0000.0001) %MON pe_b_mean                    =   3.7648441302784E-10
(PID.TID 0000.0001) %MON ke_max                       =   8.9043452345807E-05
(PID.TID 0000.0001) %MON ke_mean                      =   1.9283972061593E-06
(PID.TID 0000.0001) %MON ke_vol                       =   4.4009158039362E+15
(PID.TID 0000.0001) %MON vort_r_min                   =  -7.8652914915673E-09
(PID.TID 0000.0001) %MON vort_r_max                   =   1.5129784960772E-08
(PID.TID 0000.0001) %MON vort_a_mean                  =  -1.1390240000000E-04
(PID.TID 0000.0001) %MON vort_a_sd                    =   3.7033150287077E-06
(PID.TID 0000.0001) %MON vort_p_mean                  =  -1.5528913309106E-04
(PID.TID 0000.0001) %MON vort_p_sd                    =   4.1188200874674E-05
(PID.TID 0000.0001) %MON surfExpan_theta_mean         =  -1.0010474202150E-07
(PID.TID 0000.0001) %MON surfExpan_salt_mean          =  -8.7591649268816E-07
(PID.TID 0000.0001) // =======================================================
(PID.TID 0000.0001) // End MONITOR dynamic field statistics
(PID.TID 0000.0001) // =======================================================
 cg2d: Sum(rhs),rhsMax =  -3.22587898908483E+00  2.12611202720459E-03
(PID.TID 0000.0001)                    cg2d_init_res =    3.42829930432869E-01
(PID.TID 0000.0001)                       cg2d_iters =    14
(PID.TID 0000.0001)                         cg2d_res =    2.46991192904766E-14
(PID.TID 0000.0001) // =======================================================
(PID.TID 0000.0001) // Begin MONITOR dynamic field statistics
(PID.TID 0000.0001) // =======================================================
(PID.TID 0000.0001) %MON time_tsnumber                =                    24
(PID.TID 0000.0001) %MON time_secondsf                =   8.6400000000000E+04
(PID.TID 0000.0001) %MON dynstat_eta_max              =   5.7979748274704E-04
(PID.TID 0000.0001) %MON dynstat_eta_min              =   3.2636540223299E-04
(PID.TID 0000.0001) %MON dynstat_eta_mean             =   4.4443599158159E-04
(PID.TID 0000.0001) %MON dynstat_eta_sd               =   8.4689967963543E-05
(PID.TID 0000.0001) %MON dynstat_eta_del2             =   2.9534571958731E-05
(PID.TID 0000.0001) %MON dynstat_uvel_max             =   6.7841782473987E-05
(PID.TID 0000.0001) %MON dynstat_uvel_min             =  -6.4443780978032E-03
(PID.TID 0000.0001) %MON dynstat_uvel_mean            =  -1.7306766918973E-04
(PID.TID 0000.0001) %MON dynstat_uvel_sd              =   7.2504460516430E-04
(PID.TID 0000.0001) %MON dynstat_uvel_del2            =   1.3371206571952E-04
(PID.TID 0000.0001) %MON dynstat_vvel_max             =   1.1438968082342E-02
(PID.TID 0000.0001) %MON dynstat_vvel_min             =  -3.6725089644924E-05
(PID.TID 0000.0001) %MON dynstat_vvel_mean            =   2.5160853672968E-04
(PID.TID 0000.0001) %MON dynstat_vvel_sd              =   1.5360267325394E-03
(PID.TID 0000.0001) %MON dynstat_vvel_del2            =   1.3659949853706E-04
(PID.TID 0000.0001) %MON dynstat_wvel_max             =   9.2961409099218E-07
(PID.TID 0000.0001) %MON dynstat_wvel_min             =  -6.7930212264243E-07
(PID.TID 0000.0001) %MON dynstat_wvel_mean            =   3.0021258930781E-10
(PID.TID 0000.0001) %MON dynstat_wvel_sd              =   5.8405797772280E-07
(PID.TID 0000.0001) %MON dynstat_wvel_del2            =   3.6487053123144E-07
(PID.TID 0000.0001) %MON dynstat_theta_max            =   4.0000000000000E+00
(PID.TID 0000.0001) %MON dynstat_theta_min            =   4.0000000000000E+00
(PID.TID 0000.0001) %MON dynstat_theta_mean           =   4.0000000000000E+00
(PID.TID 0000.0001) %MON dynstat_theta_sd             =   0.0000000000000E+00
(PID.TID 0000.0001) %MON dynstat_theta_del2           =   0.0000000000000E+00
(PID.TID 0000.0001) %MON dynstat_salt_max             =   3.5000000000000E+01
(PID.TID 0000.0001) %MON dynstat_salt_min             =   3.5000000000000E+01
(PID.TID 0000.0001) %MON dynstat_salt_mean            =   3.5000000000000E+01
(PID.TID 0000.0001) %MON dynstat_salt_sd              =   0.0000000000000E+00
(PID.TID 0000.0001) %MON dynstat_salt_del2            =   0.0000000000000E+00
(PID.TID 0000.0001) %MON dynstat_sst_max              =   4.0000000000000E+00
(PID.TID 0000.0001) %MON dynstat_sst_min              =   4.0000000000000E+00
(PID.TID 0000.0001) %MON dynstat_sst_mean             =   4.0000000000000E+00
(PID.TID 0000.0001) %MON dynstat_sst_sd               =   0.0000000000000E+00
(PID.TID 0000.0001) %MON dynstat_sst_del2             =   0.0000000000000E+00
(PID.TID 0000.0001) %MON dynstat_sss_max              =   3.5000000000000E+01
(PID.TID 0000.0001) %MON dynstat_sss_min              =   3.5000000000000E+01
(PID.TID 0000.0001) %MON dynstat_sss_mean             =   3.5000000000000E+01
(PID.TID 0000.0001) %MON dynstat_sss_sd               =   0.0000000000000E+00
(PID.TID 0000.0001) %MON dynstat_sss_del2             =   0.0000000000000E+00
(PID.TID 0000.0001) %MON extforcing_qnet_max          =   0.0000000000000E+00
(PID.TID 0000.0001) %MON extforcing_qnet_min          =   0.0000000000000E+00
(PID.TID 0000.0001) %MON extforcing_qnet_mean         =   0.0000000000000E+00
(PID.TID 0000.0001) %MON extforcing_qnet_sd           =   0.0000000000000E+00
(PID.TID 0000.0001) %MON extforcing_qnet_del2         =   0.0000000000000E+00
(PID.TID 0000.0001) %MON extforcing_qsw_max           =   0.0000000000000E+00
(PID.TID 0000.0001) %MON extforcing_qsw_min           =   0.0000000000000E+00
(PID.TID 0000.0001) %MON extforcing_qsw_mean          =   0.0000000000000E+00
(PID.TID 0000.0001) %MON extforcing_qsw_sd            =   0.0000000000000E+00
(PID.TID 0000.0001) %MON extforcing_qsw_del2          =   0.0000000000000E+00
(PID.TID 0000.0001) %MON extforcing_empmr_max         =   0.0000000000000E+00
(PID.TID 0000.0001) %MON extforcing_empmr_min         =   0.0000000000000E+00
(PID.TID 0000.0001) %MON extforcing_empmr_mean        =   0.0000000000000E+00
(PID.TID 0000.0001) %MON extforcing_empmr_sd          =   0.0000000000000E+00
(PID.TID 0000.0001) %MON extforcing_empmr_del2        =   0.0000000000000E+00
(PID.TID 0000.0001) %MON extforcing_fu_max            =   1.0000000000000E-01
(PID.TID 0000.0001) %MON extforcing_fu_min            =   1.0000000000000E-01
(PID.TID 0000.0001) %MON extforcing_fu_mean           =   1.0000000000000E-01
(PID.TID 0000.0001) %MON extforcing_fu_sd             =   0.0000000000000E+00
(PID.TID 0000.0001) %MON extforcing_fu_del2           =   0.0000000000000E+00
(PID.TID 0000.0001) %MON extforcing_fv_max            =   0.0000000000000E+00
(PID.TID 0000.0001) %MON extforcing_fv_min            =   0.0000000000000E+00
(PID.TID 0000.0001) %MON extforcing_fv_mean           =   0.0000000000000E+00
(PID.TID 0000.0001) %MON extforcing_fv_sd             =   0.0000000000000E+00
(PID.TID 0000.0001) %MON extforcing_fv_del2           =   0.0000000000000E+00
(PID.TID 0000.0001) %MON advcfl_uvel_max              =   1.1599880576046E-04
(PID.TID 0000.0001) %MON advcfl_vvel_max              =   2.0590142548215E-04
(PID.TID 0000.0001) %MON advcfl_wvel_max              =   1.1845852451611E-05
(PID.TID 0000.0001) %MON advcfl_W_hf_max              =   2.9614631129028E-05
(PID.TID 0000.0001) %MON pe_b_mean                    =   2.2814174497809E-10
(PID.TID 0000.0001) %MON ke_max                       =   6.7077017484670E-05
(PID.TID 0000.0001) %MON ke_mean                      =   1.4891635382138E-06
(PID.TID 0000.0001) %MON ke_vol                       =   4.4009158039362E+15
(PID.TID 0000.0001) %MON vort_r_min                   =  -7.7729625277549E-09
(PID.TID 0000.0001) %MON vort_r_max                   =   1.4995258917340E-08
(PID.TID 0000.0001) %MON vort_a_mean                  =  -1.1390240000000E-04
(PID.TID 0000.0001) %MON vort_a_sd                    =   3.7033036884348E-06
(PID.TID 0000.0001) %MON vort_p_mean                  =  -1.5528913309106E-04
(PID.TID 0000.0001) %MON vort_p_sd                    =   4.1188198602523E-05
(PID.TID 0000.0001) %MON surfExpan_theta_mean         =  -1.4626757582807E-07
(PID.TID 0000.0001) %MON surfExpan_salt_mean          =  -1.2798412884956E-06
(PID.TID 0000.0001) // =======================================================
(PID.TID 0000.0001) // End MONITOR dynamic field statistics
(PID.TID 0000.0001) // =======================================================
 cg2d: Sum(rhs),rhsMax =  -2.04447211883235E+00  2.24837953875887E-03
(PID.TID 0000.0001)                    cg2d_init_res =    2.84746820374716E-01
(PID.TID 0000.0001)                       cg2d_iters =    15
(PID.TID 0000.0001)                         cg2d_res =    1.22591521110519E-18
(PID.TID 0000.0001) // =======================================================
(PID.TID 0000.0001) // Begin MONITOR dynamic field statistics
(PID.TID 0000.0001) // =======================================================
(PID.TID 0000.0001) %MON time_tsnumber                =                    25
(PID.TID 0000.0001) %MON time_secondsf                =   9.0000000000000E+04
(PID.TID 0000.0001) %MON dynstat_eta_max              =   4.4020544496572E-04
(PID.TID 0000.0001) %MON dynstat_eta_min              =   1.7659440370231E-04
(PID.TID 0000.0001) %MON dynstat_eta_mean             =   2.9786935331456E-04
(PID.TID 0000.0001) %MON dynstat_eta_sd               =   8.8985675850539E-05
(PID.TID 0000.0001) %MON dynstat_eta_del2             =   3.0989911199341E-05
(PID.TID 0000.0001) %MON dynstat_uvel_max             =   7.8257993283157E-05
(PID.TID 0000.0001) %MON dynstat_uvel_min             =  -6.1606573268322E-03
(PID.TID 0000.0001) %MON dynstat_uvel_mean            =  -1.7563109568819E-04
(PID.TID 0000.0001) %MON dynstat_uvel_sd              =   7.1718310461012E-04
(PID.TID 0000.0001) %MON dynstat_uvel_del2            =   1.1626794531001E-04
(PID.TID 0000.0001) %MON dynstat_vvel_max             =   9.7240771992114E-03
(PID.TID 0000.0001) %MON dynstat_vvel_min             =  -2.5666781120040E-04
(PID.TID 0000.0001) %MON dynstat_vvel_mean            =   1.7106507726646E-04
(PID.TID 0000.0001) %MON dynstat_vvel_sd              =   1.2138718430944E-03
(PID.TID 0000.0001) %MON dynstat_vvel_del2            =   1.5764825211119E-04
(PID.TID 0000.0001) %MON dynstat_wvel_max             =   1.2313705867751E-06
(PID.TID 0000.0001) %MON dynstat_wvel_min             =  -1.1830649886558E-06
(PID.TID 0000.0001) %MON dynstat_wvel_mean            =  -4.9465427437396E-10
(PID.TID 0000.0001) %MON dynstat_wvel_sd              =   7.9466825830059E-07
(PID.TID 0000.0001) %MON dynstat_wvel_del2            =   4.0851989989863E-07
(PID.TID 0000.0001) %MON dynstat_theta_max            =   4.0000000000000E+00
(PID.TID 0000.0001) %MON dynstat_theta_min            =   4.0000000000000E+00
(PID.TID 0000.0001) %MON dynstat_theta_mean           =   4.0000000000000E+00
(PID.TID 0000.0001) %MON dynstat_theta_sd             =   0.0000000000000E+00
(PID.TID 0000.0001) %MON dynstat_theta_del2           =   0.0000000000000E+00
(PID.TID 0000.0001) %MON dynstat_salt_max             =   3.5000000000000E+01
(PID.TID 0000.0001) %MON dynstat_salt_min             =   3.5000000000000E+01
(PID.TID 0000.0001) %MON dynstat_salt_mean            =   3.5000000000000E+01
(PID.TID 0000.0001) %MON dynstat_salt_sd              =   0.0000000000000E+00
(PID.TID 0000.0001) %MON dynstat_salt_del2            =   0.0000000000000E+00
(PID.TID 0000.0001) %MON dynstat_sst_max              =   4.0000000000000E+00
(PID.TID 0000.0001) %MON dynstat_sst_min              =   4.0000000000000E+00
(PID.TID 0000.0001) %MON dynstat_sst_mean             =   4.0000000000000E+00
(PID.TID 0000.0001) %MON dynstat_sst_sd               =   0.0000000000000E+00
(PID.TID 0000.0001) %MON dynstat_sst_del2             =   0.0000000000000E+00
(PID.TID 0000.0001) %MON dynstat_sss_max              =   3.5000000000000E+01
(PID.TID 0000.0001) %MON dynstat_sss_min              =   3.5000000000000E+01
(PID.TID 0000.0001) %MON dynstat_sss_mean             =   3.5000000000000E+01
(PID.TID 0000.0001) %MON dynstat_sss_sd               =   0.0000000000000E+00
(PID.TID 0000.0001) %MON dynstat_sss_del2             =   0.0000000000000E+00
(PID.TID 0000.0001) %MON extforcing_qnet_max          =   0.0000000000000E+00
(PID.TID 0000.0001) %MON extforcing_qnet_min          =   0.0000000000000E+00
(PID.TID 0000.0001) %MON extforcing_qnet_mean         =   0.0000000000000E+00
(PID.TID 0000.0001) %MON extforcing_qnet_sd           =   0.0000000000000E+00
(PID.TID 0000.0001) %MON extforcing_qnet_del2         =   0.0000000000000E+00
(PID.TID 0000.0001) %MON extforcing_qsw_max           =   0.0000000000000E+00
(PID.TID 0000.0001) %MON extforcing_qsw_min           =   0.0000000000000E+00
(PID.TID 0000.0001) %MON extforcing_qsw_mean          =   0.0000000000000E+00
(PID.TID 0000.0001) %MON extforcing_qsw_sd            =   0.0000000000000E+00
(PID.TID 0000.0001) %MON extforcing_qsw_del2          =   0.0000000000000E+00
(PID.TID 0000.0001) %MON extforcing_empmr_max         =   0.0000000000000E+00
(PID.TID 0000.0001) %MON extforcing_empmr_min         =   0.0000000000000E+00
(PID.TID 0000.0001) %MON extforcing_empmr_mean        =   0.0000000000000E+00
(PID.TID 0000.0001) %MON extforcing_empmr_sd          =   0.0000000000000E+00
(PID.TID 0000.0001) %MON extforcing_empmr_del2        =   0.0000000000000E+00
(PID.TID 0000.0001) %MON extforcing_fu_max            =   1.0000000000000E-01
(PID.TID 0000.0001) %MON extforcing_fu_min            =   1.0000000000000E-01
(PID.TID 0000.0001) %MON extforcing_fu_mean           =   1.0000000000000E-01
(PID.TID 0000.0001) %MON extforcing_fu_sd             =   0.0000000000000E+00
(PID.TID 0000.0001) %MON extforcing_fu_del2           =   0.0000000000000E+00
(PID.TID 0000.0001) %MON extforcing_fv_max            =   0.0000000000000E+00
(PID.TID 0000.0001) %MON extforcing_fv_min            =   0.0000000000000E+00
(PID.TID 0000.0001) %MON extforcing_fv_mean           =   0.0000000000000E+00
(PID.TID 0000.0001) %MON extforcing_fv_sd             =   0.0000000000000E+00
(PID.TID 0000.0001) %MON extforcing_fv_del2           =   0.0000000000000E+00
(PID.TID 0000.0001) %MON advcfl_uvel_max              =   1.1089183188298E-04
(PID.TID 0000.0001) %MON advcfl_vvel_max              =   1.7503338958580E-04
(PID.TID 0000.0001) %MON advcfl_wvel_max              =   1.4762909357750E-05
(PID.TID 0000.0001) %MON advcfl_W_hf_max              =   3.6907273394376E-05
(PID.TID 0000.0001) %MON pe_b_mean                    =   1.0771434734670E-10
(PID.TID 0000.0001) %MON ke_max                       =   4.6196272103598E-05
(PID.TID 0000.0001) %MON ke_mean                      =   1.0239729997142E-06
(PID.TID 0000.0001) %MON ke_vol                       =   4.4009158039362E+15
(PID.TID 0000.0001) %MON vort_r_min                   =  -6.3506380853575E-09
(PID.TID 0000.0001) %MON vort_r_max                   =   1.3104494069950E-08
(PID.TID 0000.0001) %MON vort_a_mean                  =  -1.1390240000000E-04
(PID.TID 0000.0001) %MON vort_a_sd                    =   3.7032941398221E-06
(PID.TID 0000.0001) %MON vort_p_mean                  =  -1.5528913309106E-04
(PID.TID 0000.0001) %MON vort_p_sd                    =   4.1188195936128E-05
(PID.TID 0000.0001) %MON surfExpan_theta_mean         =  -1.6285182029670E-07
(PID.TID 0000.0001) %MON surfExpan_salt_mean          =  -1.4249534275961E-06
(PID.TID 0000.0001) // =======================================================
(PID.TID 0000.0001) // End MONITOR dynamic field statistics
(PID.TID 0000.0001) // =======================================================
 cg2d: Sum(rhs),rhsMax =  -1.10818137305921E+00  2.30404049287479E-03
(PID.TID 0000.0001)                    cg2d_init_res =    2.31876437137366E-01
(PID.TID 0000.0001)                       cg2d_iters =    15
(PID.TID 0000.0001)                         cg2d_res =    1.83200172922870E-17
(PID.TID 0000.0001) // =======================================================
(PID.TID 0000.0001) // Begin MONITOR dynamic field statistics
(PID.TID 0000.0001) // =======================================================
(PID.TID 0000.0001) %MON time_tsnumber                =                    26
(PID.TID 0000.0001) %MON time_secondsf                =   9.3600000000000E+04
(PID.TID 0000.0001) %MON dynstat_eta_max              =   3.0379413719732E-04
(PID.TID 0000.0001) %MON dynstat_eta_min              =   4.8885683346649E-05
(PID.TID 0000.0001) %MON dynstat_eta_mean             =   1.6545350025218E-04
(PID.TID 0000.0001) %MON dynstat_eta_sd               =   8.9418488657884E-05
(PID.TID 0000.0001) %MON dynstat_eta_del2             =   3.1200312401907E-05
(PID.TID 0000.0001) %MON dynstat_uvel_max             =   9.0743646052336E-05
(PID.TID 0000.0001) %MON dynstat_uvel_min             =  -4.7419746772569E-03
(PID.TID 0000.0001) %MON dynstat_uvel_mean            =  -1.4348979216441E-04
(PID.TID 0000.0001) %MON dynstat_uvel_sd              =   5.6557057490763E-04
(PID.TID 0000.0001) %MON dynstat_uvel_del2            =   8.5520355725186E-05
(PID.TID 0000.0001) %MON dynstat_vvel_max             =   8.1547171530749E-03
(PID.TID 0000.0001) %MON dynstat_vvel_min             =  -5.7884650401295E-04
(PID.TID 0000.0001) %MON dynstat_vvel_mean            =   9.8043277318384E-05
(PID.TID 0000.0001) %MON dynstat_vvel_sd              =   9.4544330007197E-04
(PID.TID 0000.0001) %MON dynstat_vvel_del2            =   1.7348700952493E-04
(PID.TID 0000.0001) %MON dynstat_wvel_max             =   1.4478333429800E-06
(PID.TID 0000.0001) %MON dynstat_wvel_min             =  -1.6121834364610E-06
(PID.TID 0000.0001) %MON dynstat_wvel_mean            =  -1.2059397206379E-09
(PID.TID 0000.0001) %MON dynstat_wvel_sd              =   9.8996964144683E-07
(PID.TID 0000.0001) %MON dynstat_wvel_del2            =   4.4159717562015E-07
(PID.TID 0000.0001) %MON dynstat_theta_max            =   4.0000000000000E+00
(PID.TID 0000.0001) %MON dynstat_theta_min            =   4.0000000000000E+00
(PID.TID 0000.0001) %MON dynstat_theta_mean           =   4.0000000000000E+00
(PID.TID 0000.0001) %MON dynstat_theta_sd             =   0.0000000000000E+00
(PID.TID 0000.0001) %MON dynstat_theta_del2           =   0.0000000000000E+00
(PID.TID 0000.0001) %MON dynstat_salt_max             =   3.5000000000000E+01
(PID.TID 0000.0001) %MON dynstat_salt_min             =   3.5000000000000E+01
(PID.TID 0000.0001) %MON dynstat_salt_mean            =   3.5000000000000E+01
(PID.TID 0000.0001) %MON dynstat_salt_sd              =   0.0000000000000E+00
(PID.TID 0000.0001) %MON dynstat_salt_del2            =   0.0000000000000E+00
(PID.TID 0000.0001) %MON dynstat_sst_max              =   4.0000000000000E+00
(PID.TID 0000.0001) %MON dynstat_sst_min              =   4.0000000000000E+00
(PID.TID 0000.0001) %MON dynstat_sst_mean             =   4.0000000000000E+00
(PID.TID 0000.0001) %MON dynstat_sst_sd               =   0.0000000000000E+00
(PID.TID 0000.0001) %MON dynstat_sst_del2             =   0.0000000000000E+00
(PID.TID 0000.0001) %MON dynstat_sss_max              =   3.5000000000000E+01
(PID.TID 0000.0001) %MON dynstat_sss_min              =   3.5000000000000E+01
(PID.TID 0000.0001) %MON dynstat_sss_mean             =   3.5000000000000E+01
(PID.TID 0000.0001) %MON dynstat_sss_sd               =   0.0000000000000E+00
(PID.TID 0000.0001) %MON dynstat_sss_del2             =   0.0000000000000E+00
(PID.TID 0000.0001) %MON extforcing_qnet_max          =   0.0000000000000E+00
(PID.TID 0000.0001) %MON extforcing_qnet_min          =   0.0000000000000E+00
(PID.TID 0000.0001) %MON extforcing_qnet_mean         =   0.0000000000000E+00
(PID.TID 0000.0001) %MON extforcing_qnet_sd           =   0.0000000000000E+00
(PID.TID 0000.0001) %MON extforcing_qnet_del2         =   0.0000000000000E+00
(PID.TID 0000.0001) %MON extforcing_qsw_max           =   0.0000000000000E+00
(PID.TID 0000.0001) %MON extforcing_qsw_min           =   0.0000000000000E+00
(PID.TID 0000.0001) %MON extforcing_qsw_mean          =   0.0000000000000E+00
(PID.TID 0000.0001) %MON extforcing_qsw_sd            =   0.0000000000000E+00
(PID.TID 0000.0001) %MON extforcing_qsw_del2          =   0.0000000000000E+00
(PID.TID 0000.0001) %MON extforcing_empmr_max         =   0.0000000000000E+00
(PID.TID 0000.0001) %MON extforcing_empmr_min         =   0.0000000000000E+00
(PID.TID 0000.0001) %MON extforcing_empmr_mean        =   0.0000000000000E+00
(PID.TID 0000.0001) %MON extforcing_empmr_sd          =   0.0000000000000E+00
(PID.TID 0000.0001) %MON extforcing_empmr_del2        =   0.0000000000000E+00
(PID.TID 0000.0001) %MON extforcing_fu_max            =   1.0000000000000E-01
(PID.TID 0000.0001) %MON extforcing_fu_min            =   1.0000000000000E-01
(PID.TID 0000.0001) %MON extforcing_fu_mean           =   1.0000000000000E-01
(PID.TID 0000.0001) %MON extforcing_fu_sd             =   0.0000000000000E+00
(PID.TID 0000.0001) %MON extforcing_fu_del2           =   0.0000000000000E+00
(PID.TID 0000.0001) %MON extforcing_fv_max            =   0.0000000000000E+00
(PID.TID 0000.0001) %MON extforcing_fv_min            =   0.0000000000000E+00
(PID.TID 0000.0001) %MON extforcing_fv_mean           =   0.0000000000000E+00
(PID.TID 0000.0001) %MON extforcing_fv_sd             =   0.0000000000000E+00
(PID.TID 0000.0001) %MON extforcing_fv_del2           =   0.0000000000000E+00
(PID.TID 0000.0001) %MON advcfl_uvel_max              =   8.5355544190624E-05
(PID.TID 0000.0001) %MON advcfl_vvel_max              =   1.4678490875535E-04
(PID.TID 0000.0001) %MON advcfl_wvel_max              =   1.8594476471580E-05
(PID.TID 0000.0001) %MON advcfl_W_hf_max              =   4.6486191178949E-05
(PID.TID 0000.0001) %MON pe_b_mean                    =   3.9421893527469E-11
(PID.TID 0000.0001) %MON ke_max                       =   3.1470245806085E-05
(PID.TID 0000.0001) %MON ke_mean                      =   6.2196745676753E-07
(PID.TID 0000.0001) %MON ke_vol                       =   4.4009158039362E+15
(PID.TID 0000.0001) %MON vort_r_min                   =  -3.8907539952486E-09
(PID.TID 0000.0001) %MON vort_r_max                   =   9.7851501089230E-09
(PID.TID 0000.0001) %MON vort_a_mean                  =  -1.1390240000000E-04
(PID.TID 0000.0001) %MON vort_a_sd                    =   3.7032867604129E-06
(PID.TID 0000.0001) %MON vort_p_mean                  =  -1.5528913309106E-04
(PID.TID 0000.0001) %MON vort_p_sd                    =   4.1188193024998E-05
(PID.TID 0000.0001) %MON surfExpan_theta_mean         =  -1.4712872562487E-07
(PID.TID 0000.0001) %MON surfExpan_salt_mean          =  -1.2873763492176E-06
(PID.TID 0000.0001) // =======================================================
(PID.TID 0000.0001) // End MONITOR dynamic field statistics
(PID.TID 0000.0001) // =======================================================
 cg2d: Sum(rhs),rhsMax =  -4.90484880946305E-01  2.29576532537696E-03
(PID.TID 0000.0001)                    cg2d_init_res =    2.06120468113891E-01
(PID.TID 0000.0001)                       cg2d_iters =    15
(PID.TID 0000.0001)                         cg2d_res =    8.09226484438684E-18
(PID.TID 0000.0001) // =======================================================
(PID.TID 0000.0001) // Begin MONITOR dynamic field statistics
(PID.TID 0000.0001) // =======================================================
(PID.TID 0000.0001) %MON time_tsnumber                =                    27
(PID.TID 0000.0001) %MON time_secondsf                =   9.7200000000000E+04
(PID.TID 0000.0001) %MON dynstat_eta_max              =   2.0117410286097E-04
(PID.TID 0000.0001) %MON dynstat_eta_min              =  -3.2058281477514E-05
(PID.TID 0000.0001) %MON dynstat_eta_mean             =   7.2967274212922E-05
(PID.TID 0000.0001) %MON dynstat_eta_sd               =   8.6344772983907E-05
(PID.TID 0000.0001) %MON dynstat_eta_del2             =   3.0393485965471E-05
(PID.TID 0000.0001) %MON dynstat_uvel_max             =   1.0389626934072E-04
(PID.TID 0000.0001) %MON dynstat_uvel_min             =  -2.5031864027604E-03
(PID.TID 0000.0001) %MON dynstat_uvel_mean            =  -8.3580728562690E-05
(PID.TID 0000.0001) %MON dynstat_uvel_sd              =   3.0797914226742E-04
(PID.TID 0000.0001) %MON dynstat_uvel_del2            =   5.8342150598709E-05
(PID.TID 0000.0001) %MON dynstat_vvel_max             =   7.0317217519495E-03
(PID.TID 0000.0001) %MON dynstat_vvel_min             =  -8.0160717342793E-04
(PID.TID 0000.0001) %MON dynstat_vvel_mean            =   4.6749766744221E-05
(PID.TID 0000.0001) %MON dynstat_vvel_sd              =   7.7831383813148E-04
(PID.TID 0000.0001) %MON dynstat_vvel_del2            =   1.8058896411823E-04
(PID.TID 0000.0001) %MON dynstat_wvel_max             =   1.5419981515914E-06
(PID.TID 0000.0001) %MON dynstat_wvel_min             =  -1.8723915400790E-06
(PID.TID 0000.0001) %MON dynstat_wvel_mean            =  -1.6969343541960E-09
(PID.TID 0000.0001) %MON dynstat_wvel_sd              =   1.1004881800658E-06
(PID.TID 0000.0001) %MON dynstat_wvel_del2            =   4.5832047728376E-07
(PID.TID 0000.0001) %MON dynstat_theta_max            =   4.0000000000000E+00
(PID.TID 0000.0001) %MON dynstat_theta_min            =   4.0000000000000E+00
(PID.TID 0000.0001) %MON dynstat_theta_mean           =   4.0000000000000E+00
(PID.TID 0000.0001) %MON dynstat_theta_sd             =   0.0000000000000E+00
(PID.TID 0000.0001) %MON dynstat_theta_del2           =   0.0000000000000E+00
(PID.TID 0000.0001) %MON dynstat_salt_max             =   3.5000000000000E+01
(PID.TID 0000.0001) %MON dynstat_salt_min             =   3.5000000000000E+01
(PID.TID 0000.0001) %MON dynstat_salt_mean            =   3.5000000000000E+01
(PID.TID 0000.0001) %MON dynstat_salt_sd              =   0.0000000000000E+00
(PID.TID 0000.0001) %MON dynstat_salt_del2            =   0.0000000000000E+00
(PID.TID 0000.0001) %MON dynstat_sst_max              =   4.0000000000000E+00
(PID.TID 0000.0001) %MON dynstat_sst_min              =   4.0000000000000E+00
(PID.TID 0000.0001) %MON dynstat_sst_mean             =   4.0000000000000E+00
(PID.TID 0000.0001) %MON dynstat_sst_sd               =   0.0000000000000E+00
(PID.TID 0000.0001) %MON dynstat_sst_del2             =   0.0000000000000E+00
(PID.TID 0000.0001) %MON dynstat_sss_max              =   3.5000000000000E+01
(PID.TID 0000.0001) %MON dynstat_sss_min              =   3.5000000000000E+01
(PID.TID 0000.0001) %MON dynstat_sss_mean             =   3.5000000000000E+01
(PID.TID 0000.0001) %MON dynstat_sss_sd               =   0.0000000000000E+00
(PID.TID 0000.0001) %MON dynstat_sss_del2             =   0.0000000000000E+00
(PID.TID 0000.0001) %MON extforcing_qnet_max          =   0.0000000000000E+00
(PID.TID 0000.0001) %MON extforcing_qnet_min          =   0.0000000000000E+00
(PID.TID 0000.0001) %MON extforcing_qnet_mean         =   0.0000000000000E+00
(PID.TID 0000.0001) %MON extforcing_qnet_sd           =   0.0000000000000E+00
(PID.TID 0000.0001) %MON extforcing_qnet_del2         =   0.0000000000000E+00
(PID.TID 0000.0001) %MON extforcing_qsw_max           =   0.0000000000000E+00
(PID.TID 0000.0001) %MON extforcing_qsw_min           =   0.0000000000000E+00
(PID.TID 0000.0001) %MON extforcing_qsw_mean          =   0.0000000000000E+00
(PID.TID 0000.0001) %MON extforcing_qsw_sd            =   0.0000000000000E+00
(PID.TID 0000.0001) %MON extforcing_qsw_del2          =   0.0000000000000E+00
(PID.TID 0000.0001) %MON extforcing_empmr_max         =   0.0000000000000E+00
(PID.TID 0000.0001) %MON extforcing_empmr_min         =   0.0000000000000E+00
(PID.TID 0000.0001) %MON extforcing_empmr_mean        =   0.0000000000000E+00
(PID.TID 0000.0001) %MON extforcing_empmr_sd          =   0.0000000000000E+00
(PID.TID 0000.0001) %MON extforcing_empmr_del2        =   0.0000000000000E+00
(PID.TID 0000.0001) %MON extforcing_fu_max            =   1.0000000000000E-01
(PID.TID 0000.0001) %MON extforcing_fu_min            =   1.0000000000000E-01
(PID.TID 0000.0001) %MON extforcing_fu_mean           =   1.0000000000000E-01
(PID.TID 0000.0001) %MON extforcing_fu_sd             =   0.0000000000000E+00
(PID.TID 0000.0001) %MON extforcing_fu_del2           =   0.0000000000000E+00
(PID.TID 0000.0001) %MON extforcing_fv_max            =   0.0000000000000E+00
(PID.TID 0000.0001) %MON extforcing_fv_min            =   0.0000000000000E+00
(PID.TID 0000.0001) %MON extforcing_fv_mean           =   0.0000000000000E+00
(PID.TID 0000.0001) %MON extforcing_fv_sd             =   0.0000000000000E+00
(PID.TID 0000.0001) %MON extforcing_fv_del2           =   0.0000000000000E+00
(PID.TID 0000.0001) %MON advcfl_uvel_max              =   4.5057355249688E-05
(PID.TID 0000.0001) %MON advcfl_vvel_max              =   1.2657099153509E-04
(PID.TID 0000.0001) %MON advcfl_wvel_max              =   2.0428705073124E-05
(PID.TID 0000.0001) %MON advcfl_W_hf_max              =   5.1071762682810E-05
(PID.TID 0000.0001) %MON pe_b_mean                    =   1.4243432811038E-11
(PID.TID 0000.0001) %MON ke_max                       =   2.1175649951958E-05
(PID.TID 0000.0001) %MON ke_mean                      =   3.5489743078822E-07
(PID.TID 0000.0001) %MON ke_vol                       =   4.4009158039362E+15
(PID.TID 0000.0001) %MON vort_r_min                   =  -2.1799031199000E-09
(PID.TID 0000.0001) %MON vort_r_max                   =   5.6046461840577E-09
(PID.TID 0000.0001) %MON vort_a_mean                  =  -1.1390240000000E-04
(PID.TID 0000.0001) %MON vort_a_sd                    =   3.7032814875710E-06
(PID.TID 0000.0001) %MON vort_p_mean                  =  -1.5528913309106E-04
(PID.TID 0000.0001) %MON vort_p_sd                    =   4.1188190048555E-05
(PID.TID 0000.0001) %MON surfExpan_theta_mean         =  -1.0276247337695E-07
(PID.TID 0000.0001) %MON surfExpan_salt_mean          =  -8.9917164204830E-07
(PID.TID 0000.0001) // =======================================================
(PID.TID 0000.0001) // End MONITOR dynamic field statistics
(PID.TID 0000.0001) // =======================================================
 cg2d: Sum(rhs),rhsMax =  -2.61247064583445E-01  2.23814842293958E-03
(PID.TID 0000.0001)                    cg2d_init_res =    2.19732199735048E-01
(PID.TID 0000.0001)                       cg2d_iters =    15
(PID.TID 0000.0001)                         cg2d_res =    8.27759033998070E-18
(PID.TID 0000.0001) // =======================================================
(PID.TID 0000.0001) // Begin MONITOR dynamic field statistics
(PID.TID 0000.0001) // =======================================================
(PID.TID 0000.0001) %MON time_tsnumber                =                    28
(PID.TID 0000.0001) %MON time_secondsf                =   1.0080000000000E+05
(PID.TID 0000.0001) %MON dynstat_eta_max              =   1.6070627512634E-04
(PID.TID 0000.0001) %MON dynstat_eta_min              =  -5.9085417469456E-05
(PID.TID 0000.0001) %MON dynstat_eta_mean             =   3.7889188922558E-05
(PID.TID 0000.0001) %MON dynstat_eta_sd               =   8.0840703240328E-05
(PID.TID 0000.0001) %MON dynstat_eta_del2             =   2.8646079531921E-05
(PID.TID 0000.0001) %MON dynstat_uvel_max             =   4.0595911465157E-04
(PID.TID 0000.0001) %MON dynstat_uvel_min             =  -2.9898046076968E-04
(PID.TID 0000.0001) %MON dynstat_uvel_mean            =  -8.1690549100713E-06
(PID.TID 0000.0001) %MON dynstat_uvel_sd              =   7.5561212460309E-05
(PID.TID 0000.0001) %MON dynstat_uvel_del2            =   5.5741264578722E-05
(PID.TID 0000.0001) %MON dynstat_vvel_max             =   6.5539719960317E-03
(PID.TID 0000.0001) %MON dynstat_vvel_min             =  -8.7547753776493E-04
(PID.TID 0000.0001) %MON dynstat_vvel_mean            =   2.6866863826738E-05
(PID.TID 0000.0001) %MON dynstat_vvel_sd              =   7.2293299705121E-04
(PID.TID 0000.0001) %MON dynstat_vvel_del2            =   1.7762990569424E-04
(PID.TID 0000.0001) %MON dynstat_wvel_max             =   1.4975100691023E-06
(PID.TID 0000.0001) %MON dynstat_wvel_min             =  -1.9086254543891E-06
(PID.TID 0000.0001) %MON dynstat_wvel_mean            =  -1.8735877211695E-09
(PID.TID 0000.0001) %MON dynstat_wvel_sd              =   1.0965613172102E-06
(PID.TID 0000.0001) %MON dynstat_wvel_del2            =   4.5641481657091E-07
(PID.TID 0000.0001) %MON dynstat_theta_max            =   4.0000000000000E+00
(PID.TID 0000.0001) %MON dynstat_theta_min            =   4.0000000000000E+00
(PID.TID 0000.0001) %MON dynstat_theta_mean           =   4.0000000000000E+00
(PID.TID 0000.0001) %MON dynstat_theta_sd             =   0.0000000000000E+00
(PID.TID 0000.0001) %MON dynstat_theta_del2           =   0.0000000000000E+00
(PID.TID 0000.0001) %MON dynstat_salt_max             =   3.5000000000000E+01
(PID.TID 0000.0001) %MON dynstat_salt_min             =   3.5000000000000E+01
(PID.TID 0000.0001) %MON dynstat_salt_mean            =   3.5000000000000E+01
(PID.TID 0000.0001) %MON dynstat_salt_sd              =   0.0000000000000E+00
(PID.TID 0000.0001) %MON dynstat_salt_del2            =   0.0000000000000E+00
(PID.TID 0000.0001) %MON dynstat_sst_max              =   4.0000000000000E+00
(PID.TID 0000.0001) %MON dynstat_sst_min              =   4.0000000000000E+00
(PID.TID 0000.0001) %MON dynstat_sst_mean             =   4.0000000000000E+00
(PID.TID 0000.0001) %MON dynstat_sst_sd               =   0.0000000000000E+00
(PID.TID 0000.0001) %MON dynstat_sst_del2             =   0.0000000000000E+00
(PID.TID 0000.0001) %MON dynstat_sss_max              =   3.5000000000000E+01
(PID.TID 0000.0001) %MON dynstat_sss_min              =   3.5000000000000E+01
(PID.TID 0000.0001) %MON dynstat_sss_mean             =   3.5000000000000E+01
(PID.TID 0000.0001) %MON dynstat_sss_sd               =   0.0000000000000E+00
(PID.TID 0000.0001) %MON dynstat_sss_del2             =   0.0000000000000E+00
(PID.TID 0000.0001) %MON extforcing_qnet_max          =   0.0000000000000E+00
(PID.TID 0000.0001) %MON extforcing_qnet_min          =   0.0000000000000E+00
(PID.TID 0000.0001) %MON extforcing_qnet_mean         =   0.0000000000000E+00
(PID.TID 0000.0001) %MON extforcing_qnet_sd           =   0.0000000000000E+00
(PID.TID 0000.0001) %MON extforcing_qnet_del2         =   0.0000000000000E+00
(PID.TID 0000.0001) %MON extforcing_qsw_max           =   0.0000000000000E+00
(PID.TID 0000.0001) %MON extforcing_qsw_min           =   0.0000000000000E+00
(PID.TID 0000.0001) %MON extforcing_qsw_mean          =   0.0000000000000E+00
(PID.TID 0000.0001) %MON extforcing_qsw_sd            =   0.0000000000000E+00
(PID.TID 0000.0001) %MON extforcing_qsw_del2          =   0.0000000000000E+00
(PID.TID 0000.0001) %MON extforcing_empmr_max         =   0.0000000000000E+00
(PID.TID 0000.0001) %MON extforcing_empmr_min         =   0.0000000000000E+00
(PID.TID 0000.0001) %MON extforcing_empmr_mean        =   0.0000000000000E+00
(PID.TID 0000.0001) %MON extforcing_empmr_sd          =   0.0000000000000E+00
(PID.TID 0000.0001) %MON extforcing_empmr_del2        =   0.0000000000000E+00
(PID.TID 0000.0001) %MON extforcing_fu_max            =   1.0000000000000E-01
(PID.TID 0000.0001) %MON extforcing_fu_min            =   1.0000000000000E-01
(PID.TID 0000.0001) %MON extforcing_fu_mean           =   1.0000000000000E-01
(PID.TID 0000.0001) %MON extforcing_fu_sd             =   0.0000000000000E+00
(PID.TID 0000.0001) %MON extforcing_fu_del2           =   0.0000000000000E+00
(PID.TID 0000.0001) %MON extforcing_fv_max            =   0.0000000000000E+00
(PID.TID 0000.0001) %MON extforcing_fv_min            =   0.0000000000000E+00
(PID.TID 0000.0001) %MON extforcing_fv_mean           =   0.0000000000000E+00
(PID.TID 0000.0001) %MON extforcing_fv_sd             =   0.0000000000000E+00
(PID.TID 0000.0001) %MON extforcing_fv_del2           =   0.0000000000000E+00
(PID.TID 0000.0001) %MON advcfl_uvel_max              =   7.3072640637283E-06
(PID.TID 0000.0001) %MON advcfl_vvel_max              =   1.1797149592857E-04
(PID.TID 0000.0001) %MON advcfl_wvel_max              =   2.0490608450727E-05
(PID.TID 0000.0001) %MON advcfl_W_hf_max              =   5.1226521126817E-05
(PID.TID 0000.0001) %MON pe_b_mean                    =   8.8837924845006E-12
(PID.TID 0000.0001) %MON ke_max                       =   1.6820724140375E-05
(PID.TID 0000.0001) %MON ke_mean                      =   2.6456508844196E-07
(PID.TID 0000.0001) %MON ke_vol                       =   4.4009158039362E+15
(PID.TID 0000.0001) %MON vort_r_min                   =  -3.4912619197700E-09
(PID.TID 0000.0001) %MON vort_r_max                   =   2.4486569340186E-09
(PID.TID 0000.0001) %MON vort_a_mean                  =  -1.1390240000000E-04
(PID.TID 0000.0001) %MON vort_a_sd                    =   3.7032778578534E-06
(PID.TID 0000.0001) %MON vort_p_mean                  =  -1.5528913309106E-04
(PID.TID 0000.0001) %MON vort_p_sd                    =   4.1188187188939E-05
(PID.TID 0000.0001) %MON surfExpan_theta_mean         =  -3.8975650322626E-08
(PID.TID 0000.0001) %MON surfExpan_salt_mean          =  -3.4103694032298E-07
(PID.TID 0000.0001) // =======================================================
(PID.TID 0000.0001) // End MONITOR dynamic field statistics
(PID.TID 0000.0001) // =======================================================
 cg2d: Sum(rhs),rhsMax =  -4.50921969321535E-01  2.26266907028511E-03
(PID.TID 0000.0001)                    cg2d_init_res =    2.42080392750735E-01
(PID.TID 0000.0001)                       cg2d_iters =    15
(PID.TID 0000.0001)                         cg2d_res =    1.36382629059449E-17
(PID.TID 0000.0001) // =======================================================
(PID.TID 0000.0001) // Begin MONITOR dynamic field statistics
(PID.TID 0000.0001) // =======================================================
(PID.TID 0000.0001) %MON time_tsnumber                =                    29
(PID.TID 0000.0001) %MON time_secondsf                =   1.0440000000000E+05
(PID.TID 0000.0001) %MON dynstat_eta_max              =   1.8578426206252E-04
(PID.TID 0000.0001) %MON dynstat_eta_min              =  -2.5040166560372E-05
(PID.TID 0000.0001) %MON dynstat_eta_mean             =   6.6114610112613E-05
(PID.TID 0000.0001) %MON dynstat_eta_sd               =   7.4425239425224E-05
(PID.TID 0000.0001) %MON dynstat_eta_del2             =   2.6381308927224E-05
(PID.TID 0000.0001) %MON dynstat_uvel_max             =   2.7334329290955E-03
(PID.TID 0000.0001) %MON dynstat_uvel_min             =  -1.5185699369307E-04
(PID.TID 0000.0001) %MON dynstat_uvel_mean            =   6.7657129729451E-05
(PID.TID 0000.0001) %MON dynstat_uvel_sd              =   3.2983670851286E-04
(PID.TID 0000.0001) %MON dynstat_uvel_del2            =   6.6109185235153E-05
(PID.TID 0000.0001) %MON dynstat_vvel_max             =   6.7783694330573E-03
(PID.TID 0000.0001) %MON dynstat_vvel_min             =  -7.8743082655827E-04
(PID.TID 0000.0001) %MON dynstat_vvel_mean            =   4.1732804040520E-05
(PID.TID 0000.0001) %MON dynstat_vvel_sd              =   7.7356905879787E-04
(PID.TID 0000.0001) %MON dynstat_vvel_del2            =   1.6507590872652E-04
(PID.TID 0000.0001) %MON dynstat_wvel_max             =   1.3294589060489E-06
(PID.TID 0000.0001) %MON dynstat_wvel_min             =  -1.7140073790437E-06
(PID.TID 0000.0001) %MON dynstat_wvel_mean            =  -1.7036351657409E-09
(PID.TID 0000.0001) %MON dynstat_wvel_sd              =   9.7971477202594E-07
(PID.TID 0000.0001) %MON dynstat_wvel_del2            =   4.3674178714833E-07
(PID.TID 0000.0001) %MON dynstat_theta_max            =   4.0000000000000E+00
(PID.TID 0000.0001) %MON dynstat_theta_min            =   4.0000000000000E+00
(PID.TID 0000.0001) %MON dynstat_theta_mean           =   4.0000000000000E+00
(PID.TID 0000.0001) %MON dynstat_theta_sd             =   0.0000000000000E+00
(PID.TID 0000.0001) %MON dynstat_theta_del2           =   0.0000000000000E+00
(PID.TID 0000.0001) %MON dynstat_salt_max             =   3.5000000000000E+01
(PID.TID 0000.0001) %MON dynstat_salt_min             =   3.5000000000000E+01
(PID.TID 0000.0001) %MON dynstat_salt_mean            =   3.5000000000000E+01
(PID.TID 0000.0001) %MON dynstat_salt_sd              =   0.0000000000000E+00
(PID.TID 0000.0001) %MON dynstat_salt_del2            =   0.0000000000000E+00
(PID.TID 0000.0001) %MON dynstat_sst_max              =   4.0000000000000E+00
(PID.TID 0000.0001) %MON dynstat_sst_min              =   4.0000000000000E+00
(PID.TID 0000.0001) %MON dynstat_sst_mean             =   4.0000000000000E+00
(PID.TID 0000.0001) %MON dynstat_sst_sd               =   0.0000000000000E+00
(PID.TID 0000.0001) %MON dynstat_sst_del2             =   0.0000000000000E+00
(PID.TID 0000.0001) %MON dynstat_sss_max              =   3.5000000000000E+01
(PID.TID 0000.0001) %MON dynstat_sss_min              =   3.5000000000000E+01
(PID.TID 0000.0001) %MON dynstat_sss_mean             =   3.5000000000000E+01
(PID.TID 0000.0001) %MON dynstat_sss_sd               =   0.0000000000000E+00
(PID.TID 0000.0001) %MON dynstat_sss_del2             =   0.0000000000000E+00
(PID.TID 0000.0001) %MON extforcing_qnet_max          =   0.0000000000000E+00
(PID.TID 0000.0001) %MON extforcing_qnet_min          =   0.0000000000000E+00
(PID.TID 0000.0001) %MON extforcing_qnet_mean         =   0.0000000000000E+00
(PID.TID 0000.0001) %MON extforcing_qnet_sd           =   0.0000000000000E+00
(PID.TID 0000.0001) %MON extforcing_qnet_del2         =   0.0000000000000E+00
(PID.TID 0000.0001) %MON extforcing_qsw_max           =   0.0000000000000E+00
(PID.TID 0000.0001) %MON extforcing_qsw_min           =   0.0000000000000E+00
(PID.TID 0000.0001) %MON extforcing_qsw_mean          =   0.0000000000000E+00
(PID.TID 0000.0001) %MON extforcing_qsw_sd            =   0.0000000000000E+00
(PID.TID 0000.0001) %MON extforcing_qsw_del2          =   0.0000000000000E+00
(PID.TID 0000.0001) %MON extforcing_empmr_max         =   0.0000000000000E+00
(PID.TID 0000.0001) %MON extforcing_empmr_min         =   0.0000000000000E+00
(PID.TID 0000.0001) %MON extforcing_empmr_mean        =   0.0000000000000E+00
(PID.TID 0000.0001) %MON extforcing_empmr_sd          =   0.0000000000000E+00
(PID.TID 0000.0001) %MON extforcing_empmr_del2        =   0.0000000000000E+00
(PID.TID 0000.0001) %MON extforcing_fu_max            =   1.0000000000000E-01
(PID.TID 0000.0001) %MON extforcing_fu_min            =   1.0000000000000E-01
(PID.TID 0000.0001) %MON extforcing_fu_mean           =   1.0000000000000E-01
(PID.TID 0000.0001) %MON extforcing_fu_sd             =   0.0000000000000E+00
(PID.TID 0000.0001) %MON extforcing_fu_del2           =   0.0000000000000E+00
(PID.TID 0000.0001) %MON extforcing_fv_max            =   0.0000000000000E+00
(PID.TID 0000.0001) %MON extforcing_fv_min            =   0.0000000000000E+00
(PID.TID 0000.0001) %MON extforcing_fv_mean           =   0.0000000000000E+00
(PID.TID 0000.0001) %MON extforcing_fv_sd             =   0.0000000000000E+00
(PID.TID 0000.0001) %MON extforcing_fv_del2           =   0.0000000000000E+00
(PID.TID 0000.0001) %MON advcfl_uvel_max              =   4.9201792723720E-05
(PID.TID 0000.0001) %MON advcfl_vvel_max              =   1.2201064979503E-04
(PID.TID 0000.0001) %MON advcfl_wvel_max              =   1.8497579800741E-05
(PID.TID 0000.0001) %MON advcfl_W_hf_max              =   4.6243949501853E-05
(PID.TID 0000.0001) %MON pe_b_mean                    =   1.1045386308466E-11
(PID.TID 0000.0001) %MON ke_max                       =   1.8866054272712E-05
(PID.TID 0000.0001) %MON ke_mean                      =   3.5676022857416E-07
(PID.TID 0000.0001) %MON ke_vol                       =   4.4009158039362E+15
(PID.TID 0000.0001) %MON vort_r_min                   =  -4.7047243525809E-09
(PID.TID 0000.0001) %MON vort_r_max                   =   5.0806165246712E-09
(PID.TID 0000.0001) %MON vort_a_mean                  =  -1.1390240000000E-04
(PID.TID 0000.0001) %MON vort_a_sd                    =   3.7032751335564E-06
(PID.TID 0000.0001) %MON vort_p_mean                  =  -1.5528913309106E-04
(PID.TID 0000.0001) %MON vort_p_sd                    =   4.1188184605803E-05
(PID.TID 0000.0001) %MON surfExpan_theta_mean         =   3.1361579100061E-08
(PID.TID 0000.0001) %MON surfExpan_salt_mean          =   2.7441381712554E-07
(PID.TID 0000.0001) // =======================================================
(PID.TID 0000.0001) // End MONITOR dynamic field statistics
(PID.TID 0000.0001) // =======================================================
 cg2d: Sum(rhs),rhsMax =  -1.00469610672032E+00  2.31946123117386E-03
(PID.TID 0000.0001)                    cg2d_init_res =    2.50529579240350E-01
(PID.TID 0000.0001)                       cg2d_iters =    14
(PID.TID 0000.0001)                         cg2d_res =    6.57132224611482E-14
(PID.TID 0000.0001) // =======================================================
(PID.TID 0000.0001) // Begin MONITOR dynamic field statistics
(PID.TID 0000.0001) // =======================================================
(PID.TID 0000.0001) %MON time_tsnumber                =                    30
(PID.TID 0000.0001) %MON time_secondsf                =   1.0800000000000E+05
(PID.TID 0000.0001) %MON dynstat_eta_max              =   2.6785522236610E-04
(PID.TID 0000.0001) %MON dynstat_eta_min              =   6.6252373829842E-05
(PID.TID 0000.0001) %MON dynstat_eta_mean             =   1.5100691772846E-04
(PID.TID 0000.0001) %MON dynstat_eta_sd               =   6.8655370886508E-05
(PID.TID 0000.0001) %MON dynstat_eta_del2             =   2.4255312397701E-05
(PID.TID 0000.0001) %MON dynstat_uvel_max             =   4.5180059213591E-03
(PID.TID 0000.0001) %MON dynstat_uvel_min             =  -1.6142457775215E-04
(PID.TID 0000.0001) %MON dynstat_uvel_mean            =   1.2900119840816E-04
(PID.TID 0000.0001) %MON dynstat_uvel_sd              =   5.6260894105658E-04
(PID.TID 0000.0001) %MON dynstat_uvel_del2            =   8.3201333499572E-05
(PID.TID 0000.0001) %MON dynstat_vvel_max             =   7.6252918892305E-03
(PID.TID 0000.0001) %MON dynstat_vvel_min             =  -5.4620139219613E-04
(PID.TID 0000.0001) %MON dynstat_vvel_mean            =   8.7800896571204E-05
(PID.TID 0000.0001) %MON dynstat_vvel_sd              =   9.2919562865032E-04
(PID.TID 0000.0001) %MON dynstat_vvel_del2            =   1.4547025867770E-04
(PID.TID 0000.0001) %MON dynstat_wvel_max             =   1.0663916631231E-06
(PID.TID 0000.0001) %MON dynstat_wvel_min             =  -1.3223281558756E-06
(PID.TID 0000.0001) %MON dynstat_wvel_mean            =  -1.2233885865996E-09
(PID.TID 0000.0001) %MON dynstat_wvel_sd              =   7.8203073118290E-07
(PID.TID 0000.0001) %MON dynstat_wvel_del2            =   4.0113926488759E-07
(PID.TID 0000.0001) %MON dynstat_theta_max            =   4.0000000000000E+00
(PID.TID 0000.0001) %MON dynstat_theta_min            =   4.0000000000000E+00
(PID.TID 0000.0001) %MON dynstat_theta_mean           =   4.0000000000000E+00
(PID.TID 0000.0001) %MON dynstat_theta_sd             =   0.0000000000000E+00
(PID.TID 0000.0001) %MON dynstat_theta_del2           =   0.0000000000000E+00
(PID.TID 0000.0001) %MON dynstat_salt_max             =   3.5000000000000E+01
(PID.TID 0000.0001) %MON dynstat_salt_min             =   3.5000000000000E+01
(PID.TID 0000.0001) %MON dynstat_salt_mean            =   3.5000000000000E+01
(PID.TID 0000.0001) %MON dynstat_salt_sd              =   0.0000000000000E+00
(PID.TID 0000.0001) %MON dynstat_salt_del2            =   0.0000000000000E+00
(PID.TID 0000.0001) %MON dynstat_sst_max              =   4.0000000000000E+00
(PID.TID 0000.0001) %MON dynstat_sst_min              =   4.0000000000000E+00
(PID.TID 0000.0001) %MON dynstat_sst_mean             =   4.0000000000000E+00
(PID.TID 0000.0001) %MON dynstat_sst_sd               =   0.0000000000000E+00
(PID.TID 0000.0001) %MON dynstat_sst_del2             =   0.0000000000000E+00
(PID.TID 0000.0001) %MON dynstat_sss_max              =   3.5000000000000E+01
(PID.TID 0000.0001) %MON dynstat_sss_min              =   3.5000000000000E+01
(PID.TID 0000.0001) %MON dynstat_sss_mean             =   3.5000000000000E+01
(PID.TID 0000.0001) %MON dynstat_sss_sd               =   0.0000000000000E+00
(PID.TID 0000.0001) %MON dynstat_sss_del2             =   0.0000000000000E+00
(PID.TID 0000.0001) %MON extforcing_qnet_max          =   0.0000000000000E+00
(PID.TID 0000.0001) %MON extforcing_qnet_min          =   0.0000000000000E+00
(PID.TID 0000.0001) %MON extforcing_qnet_mean         =   0.0000000000000E+00
(PID.TID 0000.0001) %MON extforcing_qnet_sd           =   0.0000000000000E+00
(PID.TID 0000.0001) %MON extforcing_qnet_del2         =   0.0000000000000E+00
(PID.TID 0000.0001) %MON extforcing_qsw_max           =   0.0000000000000E+00
(PID.TID 0000.0001) %MON extforcing_qsw_min           =   0.0000000000000E+00
(PID.TID 0000.0001) %MON extforcing_qsw_mean          =   0.0000000000000E+00
(PID.TID 0000.0001) %MON extforcing_qsw_sd            =   0.0000000000000E+00
(PID.TID 0000.0001) %MON extforcing_qsw_del2          =   0.0000000000000E+00
(PID.TID 0000.0001) %MON extforcing_empmr_max         =   0.0000000000000E+00
(PID.TID 0000.0001) %MON extforcing_empmr_min         =   0.0000000000000E+00
(PID.TID 0000.0001) %MON extforcing_empmr_mean        =   0.0000000000000E+00
(PID.TID 0000.0001) %MON extforcing_empmr_sd          =   0.0000000000000E+00
(PID.TID 0000.0001) %MON extforcing_empmr_del2        =   0.0000000000000E+00
(PID.TID 0000.0001) %MON extforcing_fu_max            =   1.0000000000000E-01
(PID.TID 0000.0001) %MON extforcing_fu_min            =   1.0000000000000E-01
(PID.TID 0000.0001) %MON extforcing_fu_mean           =   1.0000000000000E-01
(PID.TID 0000.0001) %MON extforcing_fu_sd             =   0.0000000000000E+00
(PID.TID 0000.0001) %MON extforcing_fu_del2           =   0.0000000000000E+00
(PID.TID 0000.0001) %MON extforcing_fv_max            =   0.0000000000000E+00
(PID.TID 0000.0001) %MON extforcing_fv_min            =   0.0000000000000E+00
(PID.TID 0000.0001) %MON extforcing_fv_mean           =   0.0000000000000E+00
(PID.TID 0000.0001) %MON extforcing_fv_sd             =   0.0000000000000E+00
(PID.TID 0000.0001) %MON extforcing_fv_del2           =   0.0000000000000E+00
(PID.TID 0000.0001) %MON advcfl_uvel_max              =   8.1324106584464E-05
(PID.TID 0000.0001) %MON advcfl_vvel_max              =   1.3725525400615E-04
(PID.TID 0000.0001) %MON advcfl_wvel_max              =   1.4659884514241E-05
(PID.TID 0000.0001) %MON advcfl_W_hf_max              =   3.6649711285603E-05
(PID.TID 0000.0001) %MON pe_b_mean                    =   3.0668426779895E-11
(PID.TID 0000.0001) %MON ke_max                       =   2.8707534511211E-05
(PID.TID 0000.0001) %MON ke_mean                      =   6.0214182174456E-07
(PID.TID 0000.0001) %MON ke_vol                       =   4.4009158039362E+15
(PID.TID 0000.0001) %MON vort_r_min                   =  -5.5558459375815E-09
(PID.TID 0000.0001) %MON vort_r_max                   =   6.8214901526205E-09
(PID.TID 0000.0001) %MON vort_a_mean                  =  -1.1390240000000E-04
(PID.TID 0000.0001) %MON vort_a_sd                    =   3.7032724889846E-06
(PID.TID 0000.0001) %MON vort_p_mean                  =  -1.5528913309106E-04
(PID.TID 0000.0001) %MON vort_p_sd                    =   4.1188182417313E-05
(PID.TID 0000.0001) %MON surfExpan_theta_mean         =   9.4324786239832E-08
(PID.TID 0000.0001) %MON surfExpan_salt_mean          =   8.2534187959853E-07
(PID.TID 0000.0001) // =======================================================
(PID.TID 0000.0001) // End MONITOR dynamic field statistics
(PID.TID 0000.0001) // =======================================================
 cg2d: Sum(rhs),rhsMax =  -1.78565331428754E+00  2.37599941654386E-03
(PID.TID 0000.0001)                    cg2d_init_res =    2.37954629410588E-01
(PID.TID 0000.0001)                       cg2d_iters =    14
(PID.TID 0000.0001)                         cg2d_res =    4.85851852589260E-14
(PID.TID 0000.0001) // =======================================================
(PID.TID 0000.0001) // Begin MONITOR dynamic field statistics
(PID.TID 0000.0001) // =======================================================
(PID.TID 0000.0001) %MON time_tsnumber                =                    31
(PID.TID 0000.0001) %MON time_secondsf                =   1.1160000000000E+05
(PID.TID 0000.0001) %MON dynstat_eta_max              =   3.8919134134339E-04
(PID.TID 0000.0001) %MON dynstat_eta_min              =   1.9487614874707E-04
(PID.TID 0000.0001) %MON dynstat_eta_mean             =   2.7492768789171E-04
(PID.TID 0000.0001) %MON dynstat_eta_sd               =   6.4726079495736E-05
(PID.TID 0000.0001) %MON dynstat_eta_del2             =   2.3207509345908E-05
(PID.TID 0000.0001) %MON dynstat_uvel_max             =   5.4314975786826E-03
(PID.TID 0000.0001) %MON dynstat_uvel_min             =  -1.6165100508114E-04
(PID.TID 0000.0001) %MON dynstat_uvel_mean            =   1.6408029716497E-04
(PID.TID 0000.0001) %MON dynstat_uvel_sd              =   6.8611068220764E-04
(PID.TID 0000.0001) %MON dynstat_uvel_del2            =   9.2966706381869E-05
(PID.TID 0000.0001) %MON dynstat_vvel_max             =   8.8802309681886E-03
(PID.TID 0000.0001) %MON dynstat_vvel_min             =  -1.9552207741197E-04
(PID.TID 0000.0001) %MON dynstat_vvel_mean            =   1.5546074824377E-04
(PID.TID 0000.0001) %MON dynstat_vvel_sd              =   1.1683517064224E-03
(PID.TID 0000.0001) %MON dynstat_vvel_del2            =   1.2400451369090E-04
(PID.TID 0000.0001) %MON dynstat_wvel_max             =   8.9283910045617E-07
(PID.TID 0000.0001) %MON dynstat_wvel_min             =  -8.2438542701810E-07
(PID.TID 0000.0001) %MON dynstat_wvel_mean            =  -5.3071217343175E-10
(PID.TID 0000.0001) %MON dynstat_wvel_sd              =   5.7269680538121E-07
(PID.TID 0000.0001) %MON dynstat_wvel_del2            =   3.5458008646597E-07
(PID.TID 0000.0001) %MON dynstat_theta_max            =   4.0000000000000E+00
(PID.TID 0000.0001) %MON dynstat_theta_min            =   4.0000000000000E+00
(PID.TID 0000.0001) %MON dynstat_theta_mean           =   4.0000000000000E+00
(PID.TID 0000.0001) %MON dynstat_theta_sd             =   0.0000000000000E+00
(PID.TID 0000.0001) %MON dynstat_theta_del2           =   0.0000000000000E+00
(PID.TID 0000.0001) %MON dynstat_salt_max             =   3.5000000000000E+01
(PID.TID 0000.0001) %MON dynstat_salt_min             =   3.5000000000000E+01
(PID.TID 0000.0001) %MON dynstat_salt_mean            =   3.5000000000000E+01
(PID.TID 0000.0001) %MON dynstat_salt_sd              =   0.0000000000000E+00
(PID.TID 0000.0001) %MON dynstat_salt_del2            =   0.0000000000000E+00
(PID.TID 0000.0001) %MON dynstat_sst_max              =   4.0000000000000E+00
(PID.TID 0000.0001) %MON dynstat_sst_min              =   4.0000000000000E+00
(PID.TID 0000.0001) %MON dynstat_sst_mean             =   4.0000000000000E+00
(PID.TID 0000.0001) %MON dynstat_sst_sd               =   0.0000000000000E+00
(PID.TID 0000.0001) %MON dynstat_sst_del2             =   0.0000000000000E+00
(PID.TID 0000.0001) %MON dynstat_sss_max              =   3.5000000000000E+01
(PID.TID 0000.0001) %MON dynstat_sss_min              =   3.5000000000000E+01
(PID.TID 0000.0001) %MON dynstat_sss_mean             =   3.5000000000000E+01
(PID.TID 0000.0001) %MON dynstat_sss_sd               =   0.0000000000000E+00
(PID.TID 0000.0001) %MON dynstat_sss_del2             =   0.0000000000000E+00
(PID.TID 0000.0001) %MON extforcing_qnet_max          =   0.0000000000000E+00
(PID.TID 0000.0001) %MON extforcing_qnet_min          =   0.0000000000000E+00
(PID.TID 0000.0001) %MON extforcing_qnet_mean         =   0.0000000000000E+00
(PID.TID 0000.0001) %MON extforcing_qnet_sd           =   0.0000000000000E+00
(PID.TID 0000.0001) %MON extforcing_qnet_del2         =   0.0000000000000E+00
(PID.TID 0000.0001) %MON extforcing_qsw_max           =   0.0000000000000E+00
(PID.TID 0000.0001) %MON extforcing_qsw_min           =   0.0000000000000E+00
(PID.TID 0000.0001) %MON extforcing_qsw_mean          =   0.0000000000000E+00
(PID.TID 0000.0001) %MON extforcing_qsw_sd            =   0.0000000000000E+00
(PID.TID 0000.0001) %MON extforcing_qsw_del2          =   0.0000000000000E+00
(PID.TID 0000.0001) %MON extforcing_empmr_max         =   0.0000000000000E+00
(PID.TID 0000.0001) %MON extforcing_empmr_min         =   0.0000000000000E+00
(PID.TID 0000.0001) %MON extforcing_empmr_mean        =   0.0000000000000E+00
(PID.TID 0000.0001) %MON extforcing_empmr_sd          =   0.0000000000000E+00
(PID.TID 0000.0001) %MON extforcing_empmr_del2        =   0.0000000000000E+00
(PID.TID 0000.0001) %MON extforcing_fu_max            =   1.0000000000000E-01
(PID.TID 0000.0001) %MON extforcing_fu_min            =   1.0000000000000E-01
(PID.TID 0000.0001) %MON extforcing_fu_mean           =   1.0000000000000E-01
(PID.TID 0000.0001) %MON extforcing_fu_sd             =   0.0000000000000E+00
(PID.TID 0000.0001) %MON extforcing_fu_del2           =   0.0000000000000E+00
(PID.TID 0000.0001) %MON extforcing_fv_max            =   0.0000000000000E+00
(PID.TID 0000.0001) %MON extforcing_fv_min            =   0.0000000000000E+00
(PID.TID 0000.0001) %MON extforcing_fv_mean           =   0.0000000000000E+00
(PID.TID 0000.0001) %MON extforcing_fv_sd             =   0.0000000000000E+00
(PID.TID 0000.0001) %MON extforcing_fv_del2           =   0.0000000000000E+00
(PID.TID 0000.0001) %MON advcfl_uvel_max              =   9.7766956416286E-05
(PID.TID 0000.0001) %MON advcfl_vvel_max              =   1.5984415742740E-04
(PID.TID 0000.0001) %MON advcfl_wvel_max              =   1.1672411596454E-05
(PID.TID 0000.0001) %MON advcfl_W_hf_max              =   2.9181028991136E-05
(PID.TID 0000.0001) %MON pe_b_mean                    =   8.8912152768960E-11
(PID.TID 0000.0001) %MON ke_max                       =   4.3218717938473E-05
(PID.TID 0000.0001) %MON ke_mean                      =   9.4344198315088E-07
(PID.TID 0000.0001) %MON ke_vol                       =   4.4009158039362E+15
(PID.TID 0000.0001) %MON vort_r_min                   =  -6.7565349482692E-09
(PID.TID 0000.0001) %MON vort_r_max                   =   7.4206690073459E-09
(PID.TID 0000.0001) %MON vort_a_mean                  =  -1.1390240000000E-04
(PID.TID 0000.0001) %MON vort_a_sd                    =   3.7032692125021E-06
(PID.TID 0000.0001) %MON vort_p_mean                  =  -1.5528913309106E-04
(PID.TID 0000.0001) %MON vort_p_sd                    =   4.1188180689431E-05
(PID.TID 0000.0001) %MON surfExpan_theta_mean         =   1.3768974462583E-07
(PID.TID 0000.0001) %MON surfExpan_salt_mean          =   1.2047852654761E-06
(PID.TID 0000.0001) // =======================================================
(PID.TID 0000.0001) // End MONITOR dynamic field statistics
(PID.TID 0000.0001) // =======================================================
 cg2d: Sum(rhs),rhsMax =  -2.62429308819157E+00  2.42805543472491E-03
(PID.TID 0000.0001)                    cg2d_init_res =    2.10406377440192E-01
(PID.TID 0000.0001)                       cg2d_iters =    14
(PID.TID 0000.0001)                         cg2d_res =    6.92195487091742E-14
(PID.TID 0000.0001) // =======================================================
(PID.TID 0000.0001) // Begin MONITOR dynamic field statistics
(PID.TID 0000.0001) // =======================================================
(PID.TID 0000.0001) %MON time_tsnumber                =                    32
(PID.TID 0000.0001) %MON time_secondsf                =   1.1520000000000E+05
(PID.TID 0000.0001) %MON dynstat_eta_max              =   5.2571283847958E-04
(PID.TID 0000.0001) %MON dynstat_eta_min              =   3.3349672899009E-04
(PID.TID 0000.0001) %MON dynstat_eta_mean             =   4.1290100536213E-04
(PID.TID 0000.0001) %MON dynstat_eta_sd               =   6.3294025201817E-05
(PID.TID 0000.0001) %MON dynstat_eta_del2             =   2.2996563193365E-05
(PID.TID 0000.0001) %MON dynstat_uvel_max             =   5.3426950841270E-03
(PID.TID 0000.0001) %MON dynstat_uvel_min             =  -1.5307279806808E-04
(PID.TID 0000.0001) %MON dynstat_uvel_mean            =   1.6648316216375E-04
(PID.TID 0000.0001) %MON dynstat_uvel_sd              =   6.7929239529895E-04
(PID.TID 0000.0001) %MON dynstat_uvel_del2            =   8.7241727082856E-05
(PID.TID 0000.0001) %MON dynstat_vvel_max             =   1.0262430048343E-02
(PID.TID 0000.0001) %MON dynstat_vvel_min             =  -5.4428806130466E-05
(PID.TID 0000.0001) %MON dynstat_vvel_mean            =   2.3103560595487E-04
(PID.TID 0000.0001) %MON dynstat_vvel_sd              =   1.4396175050243E-03
(PID.TID 0000.0001) %MON dynstat_vvel_del2            =   1.1705766556074E-04
(PID.TID 0000.0001) %MON dynstat_wvel_max             =   8.3108547488781E-07
(PID.TID 0000.0001) %MON dynstat_wvel_min             =  -7.7543230814954E-07
(PID.TID 0000.0001) %MON dynstat_wvel_mean            =   2.3455235655758E-10
(PID.TID 0000.0001) %MON dynstat_wvel_sd              =   4.6794112140855E-07
(PID.TID 0000.0001) %MON dynstat_wvel_del2            =   3.0516830653878E-07
(PID.TID 0000.0001) %MON dynstat_theta_max            =   4.0000000000000E+00
(PID.TID 0000.0001) %MON dynstat_theta_min            =   4.0000000000000E+00
(PID.TID 0000.0001) %MON dynstat_theta_mean           =   4.0000000000000E+00
(PID.TID 0000.0001) %MON dynstat_theta_sd             =   0.0000000000000E+00
(PID.TID 0000.0001) %MON dynstat_theta_del2           =   0.0000000000000E+00
(PID.TID 0000.0001) %MON dynstat_salt_max             =   3.5000000000000E+01
(PID.TID 0000.0001) %MON dynstat_salt_min             =   3.5000000000000E+01
(PID.TID 0000.0001) %MON dynstat_salt_mean            =   3.5000000000000E+01
(PID.TID 0000.0001) %MON dynstat_salt_sd              =   0.0000000000000E+00
(PID.TID 0000.0001) %MON dynstat_salt_del2            =   0.0000000000000E+00
(PID.TID 0000.0001) %MON dynstat_sst_max              =   4.0000000000000E+00
(PID.TID 0000.0001) %MON dynstat_sst_min              =   4.0000000000000E+00
(PID.TID 0000.0001) %MON dynstat_sst_mean             =   4.0000000000000E+00
(PID.TID 0000.0001) %MON dynstat_sst_sd               =   0.0000000000000E+00
(PID.TID 0000.0001) %MON dynstat_sst_del2             =   0.0000000000000E+00
(PID.TID 0000.0001) %MON dynstat_sss_max              =   3.5000000000000E+01
(PID.TID 0000.0001) %MON dynstat_sss_min              =   3.5000000000000E+01
(PID.TID 0000.0001) %MON dynstat_sss_mean             =   3.5000000000000E+01
(PID.TID 0000.0001) %MON dynstat_sss_sd               =   0.0000000000000E+00
(PID.TID 0000.0001) %MON dynstat_sss_del2             =   0.0000000000000E+00
(PID.TID 0000.0001) %MON extforcing_qnet_max          =   0.0000000000000E+00
(PID.TID 0000.0001) %MON extforcing_qnet_min          =   0.0000000000000E+00
(PID.TID 0000.0001) %MON extforcing_qnet_mean         =   0.0000000000000E+00
(PID.TID 0000.0001) %MON extforcing_qnet_sd           =   0.0000000000000E+00
(PID.TID 0000.0001) %MON extforcing_qnet_del2         =   0.0000000000000E+00
(PID.TID 0000.0001) %MON extforcing_qsw_max           =   0.0000000000000E+00
(PID.TID 0000.0001) %MON extforcing_qsw_min           =   0.0000000000000E+00
(PID.TID 0000.0001) %MON extforcing_qsw_mean          =   0.0000000000000E+00
(PID.TID 0000.0001) %MON extforcing_qsw_sd            =   0.0000000000000E+00
(PID.TID 0000.0001) %MON extforcing_qsw_del2          =   0.0000000000000E+00
(PID.TID 0000.0001) %MON extforcing_empmr_max         =   0.0000000000000E+00
(PID.TID 0000.0001) %MON extforcing_empmr_min         =   0.0000000000000E+00
(PID.TID 0000.0001) %MON extforcing_empmr_mean        =   0.0000000000000E+00
(PID.TID 0000.0001) %MON extforcing_empmr_sd          =   0.0000000000000E+00
(PID.TID 0000.0001) %MON extforcing_empmr_del2        =   0.0000000000000E+00
(PID.TID 0000.0001) %MON extforcing_fu_max            =   1.0000000000000E-01
(PID.TID 0000.0001) %MON extforcing_fu_min            =   1.0000000000000E-01
(PID.TID 0000.0001) %MON extforcing_fu_mean           =   1.0000000000000E-01
(PID.TID 0000.0001) %MON extforcing_fu_sd             =   0.0000000000000E+00
(PID.TID 0000.0001) %MON extforcing_fu_del2           =   0.0000000000000E+00
(PID.TID 0000.0001) %MON extforcing_fv_max            =   0.0000000000000E+00
(PID.TID 0000.0001) %MON extforcing_fv_min            =   0.0000000000000E+00
(PID.TID 0000.0001) %MON extforcing_fv_mean           =   0.0000000000000E+00
(PID.TID 0000.0001) %MON extforcing_fv_sd             =   0.0000000000000E+00
(PID.TID 0000.0001) %MON extforcing_fv_del2           =   0.0000000000000E+00
(PID.TID 0000.0001) %MON advcfl_uvel_max              =   9.6168511514285E-05
(PID.TID 0000.0001) %MON advcfl_vvel_max              =   1.8472374087018E-04
(PID.TID 0000.0001) %MON advcfl_wvel_max              =   1.0984766279984E-05
(PID.TID 0000.0001) %MON advcfl_W_hf_max              =   2.7461915699961E-05
(PID.TID 0000.0001) %MON pe_b_mean                    =   1.9447997573477E-10
(PID.TID 0000.0001) %MON ke_max                       =   6.0997776721282E-05
(PID.TID 0000.0001) %MON ke_mean                      =   1.3075154067932E-06
(PID.TID 0000.0001) %MON ke_vol                       =   4.4009158039362E+15
(PID.TID 0000.0001) %MON vort_r_min                   =  -6.3516340041187E-09
(PID.TID 0000.0001) %MON vort_r_max                   =   6.8320407490281E-09
(PID.TID 0000.0001) %MON vort_a_mean                  =  -1.1390240000000E-04
(PID.TID 0000.0001) %MON vort_a_sd                    =   3.7032648754161E-06
(PID.TID 0000.0001) %MON vort_p_mean                  =  -1.5528913309106E-04
(PID.TID 0000.0001) %MON vort_p_sd                    =   4.1188179433435E-05
(PID.TID 0000.0001) %MON surfExpan_theta_mean         =   1.5330368607824E-07
(PID.TID 0000.0001) %MON surfExpan_salt_mean          =   1.3414072531846E-06
(PID.TID 0000.0001) // =======================================================
(PID.TID 0000.0001) // End MONITOR dynamic field statistics
(PID.TID 0000.0001) // =======================================================
 cg2d: Sum(rhs),rhsMax =  -3.35748486680838E+00  2.47123045079745E-03
(PID.TID 0000.0001)                    cg2d_init_res =    1.86171962548278E-01
(PID.TID 0000.0001)                       cg2d_iters =    14
(PID.TID 0000.0001)                         cg2d_res =    9.04041454019498E-14
(PID.TID 0000.0001) // =======================================================
(PID.TID 0000.0001) // Begin MONITOR dynamic field statistics
(PID.TID 0000.0001) // =======================================================
(PID.TID 0000.0001) %MON time_tsnumber                =                    33
(PID.TID 0000.0001) %MON time_secondsf                =   1.1880000000000E+05
(PID.TID 0000.0001) %MON dynstat_eta_max              =   6.5076446965000E-04
(PID.TID 0000.0001) %MON dynstat_eta_min              =   4.5563963821380E-04
(PID.TID 0000.0001) %MON dynstat_eta_mean             =   5.3765330089346E-04
(PID.TID 0000.0001) %MON dynstat_eta_sd               =   6.4598760902020E-05
(PID.TID 0000.0001) %MON dynstat_eta_del2             =   2.3006025537025E-05
(PID.TID 0000.0001) %MON dynstat_uvel_max             =   4.3176809056020E-03
(PID.TID 0000.0001) %MON dynstat_uvel_min             =  -1.3773521961167E-04
(PID.TID 0000.0001) %MON dynstat_uvel_mean            =   1.3633199010057E-04
(PID.TID 0000.0001) %MON dynstat_uvel_sd              =   5.4916855309231E-04
(PID.TID 0000.0001) %MON dynstat_uvel_del2            =   6.7636106627452E-05
(PID.TID 0000.0001) %MON dynstat_vvel_max             =   1.1833605189572E-02
(PID.TID 0000.0001) %MON dynstat_vvel_min             =  -7.8969630651484E-05
(PID.TID 0000.0001) %MON dynstat_vvel_mean            =   2.9954217882549E-04
(PID.TID 0000.0001) %MON dynstat_vvel_sd              =   1.6823084546722E-03
(PID.TID 0000.0001) %MON dynstat_vvel_del2            =   1.1323670660290E-04
(PID.TID 0000.0001) %MON dynstat_wvel_max             =   7.4404242215581E-07
(PID.TID 0000.0001) %MON dynstat_wvel_min             =  -1.1188789628789E-06
(PID.TID 0000.0001) %MON dynstat_wvel_mean            =   9.1889886905594E-10
(PID.TID 0000.0001) %MON dynstat_wvel_sd              =   5.2533309921820E-07
(PID.TID 0000.0001) %MON dynstat_wvel_del2            =   2.6758044105193E-07
(PID.TID 0000.0001) %MON dynstat_theta_max            =   4.0000000000000E+00
(PID.TID 0000.0001) %MON dynstat_theta_min            =   4.0000000000000E+00
(PID.TID 0000.0001) %MON dynstat_theta_mean           =   4.0000000000000E+00
(PID.TID 0000.0001) %MON dynstat_theta_sd             =   0.0000000000000E+00
(PID.TID 0000.0001) %MON dynstat_theta_del2           =   0.0000000000000E+00
(PID.TID 0000.0001) %MON dynstat_salt_max             =   3.5000000000000E+01
(PID.TID 0000.0001) %MON dynstat_salt_min             =   3.5000000000000E+01
(PID.TID 0000.0001) %MON dynstat_salt_mean            =   3.5000000000000E+01
(PID.TID 0000.0001) %MON dynstat_salt_sd              =   0.0000000000000E+00
(PID.TID 0000.0001) %MON dynstat_salt_del2            =   0.0000000000000E+00
(PID.TID 0000.0001) %MON dynstat_sst_max              =   4.0000000000000E+00
(PID.TID 0000.0001) %MON dynstat_sst_min              =   4.0000000000000E+00
(PID.TID 0000.0001) %MON dynstat_sst_mean             =   4.0000000000000E+00
(PID.TID 0000.0001) %MON dynstat_sst_sd               =   0.0000000000000E+00
(PID.TID 0000.0001) %MON dynstat_sst_del2             =   0.0000000000000E+00
(PID.TID 0000.0001) %MON dynstat_sss_max              =   3.5000000000000E+01
(PID.TID 0000.0001) %MON dynstat_sss_min              =   3.5000000000000E+01
(PID.TID 0000.0001) %MON dynstat_sss_mean             =   3.5000000000000E+01
(PID.TID 0000.0001) %MON dynstat_sss_sd               =   0.0000000000000E+00
(PID.TID 0000.0001) %MON dynstat_sss_del2             =   0.0000000000000E+00
(PID.TID 0000.0001) %MON extforcing_qnet_max          =   0.0000000000000E+00
(PID.TID 0000.0001) %MON extforcing_qnet_min          =   0.0000000000000E+00
(PID.TID 0000.0001) %MON extforcing_qnet_mean         =   0.0000000000000E+00
(PID.TID 0000.0001) %MON extforcing_qnet_sd           =   0.0000000000000E+00
(PID.TID 0000.0001) %MON extforcing_qnet_del2         =   0.0000000000000E+00
(PID.TID 0000.0001) %MON extforcing_qsw_max           =   0.0000000000000E+00
(PID.TID 0000.0001) %MON extforcing_qsw_min           =   0.0000000000000E+00
(PID.TID 0000.0001) %MON extforcing_qsw_mean          =   0.0000000000000E+00
(PID.TID 0000.0001) %MON extforcing_qsw_sd            =   0.0000000000000E+00
(PID.TID 0000.0001) %MON extforcing_qsw_del2          =   0.0000000000000E+00
(PID.TID 0000.0001) %MON extforcing_empmr_max         =   0.0000000000000E+00
(PID.TID 0000.0001) %MON extforcing_empmr_min         =   0.0000000000000E+00
(PID.TID 0000.0001) %MON extforcing_empmr_mean        =   0.0000000000000E+00
(PID.TID 0000.0001) %MON extforcing_empmr_sd          =   0.0000000000000E+00
(PID.TID 0000.0001) %MON extforcing_empmr_del2        =   0.0000000000000E+00
(PID.TID 0000.0001) %MON extforcing_fu_max            =   1.0000000000000E-01
(PID.TID 0000.0001) %MON extforcing_fu_min            =   1.0000000000000E-01
(PID.TID 0000.0001) %MON extforcing_fu_mean           =   1.0000000000000E-01
(PID.TID 0000.0001) %MON extforcing_fu_sd             =   0.0000000000000E+00
(PID.TID 0000.0001) %MON extforcing_fu_del2           =   0.0000000000000E+00
(PID.TID 0000.0001) %MON extforcing_fv_max            =   0.0000000000000E+00
(PID.TID 0000.0001) %MON extforcing_fv_min            =   0.0000000000000E+00
(PID.TID 0000.0001) %MON extforcing_fv_mean           =   0.0000000000000E+00
(PID.TID 0000.0001) %MON extforcing_fv_sd             =   0.0000000000000E+00
(PID.TID 0000.0001) %MON extforcing_fv_del2           =   0.0000000000000E+00
(PID.TID 0000.0001) %MON advcfl_uvel_max              =   7.7718256300837E-05
(PID.TID 0000.0001) %MON advcfl_vvel_max              =   2.1300489341229E-04
(PID.TID 0000.0001) %MON advcfl_wvel_max              =   1.2054654332820E-05
(PID.TID 0000.0001) %MON advcfl_W_hf_max              =   3.0136635832049E-05
(PID.TID 0000.0001) %MON pe_b_mean                    =   3.2683246774325E-10
(PID.TID 0000.0001) %MON ke_max                       =   7.6251065750582E-05
(PID.TID 0000.0001) %MON ke_mean                      =   1.6200298823938E-06
(PID.TID 0000.0001) %MON ke_vol                       =   4.4009158039362E+15
(PID.TID 0000.0001) %MON vort_r_min                   =  -4.5239746275308E-09
(PID.TID 0000.0001) %MON vort_r_max                   =   5.2253472751440E-09
(PID.TID 0000.0001) %MON vort_a_mean                  =  -1.1390240000000E-04
(PID.TID 0000.0001) %MON vort_a_sd                    =   3.7032594276315E-06
(PID.TID 0000.0001) %MON vort_p_mean                  =  -1.5528913309106E-04
(PID.TID 0000.0001) %MON vort_p_sd                    =   4.1188178610308E-05
(PID.TID 0000.0001) %MON surfExpan_theta_mean         =   1.3861366170148E-07
(PID.TID 0000.0001) %MON surfExpan_salt_mean          =   1.2128695398880E-06
(PID.TID 0000.0001) // =======================================================
(PID.TID 0000.0001) // End MONITOR dynamic field statistics
(PID.TID 0000.0001) // =======================================================
 cg2d: Sum(rhs),rhsMax =  -3.85508917834425E+00  2.50195598359617E-03
(PID.TID 0000.0001)                    cg2d_init_res =    1.85395316009149E-01
(PID.TID 0000.0001)                       cg2d_iters =    14
(PID.TID 0000.0001)                         cg2d_res =    9.01022036633845E-14
(PID.TID 0000.0001) // =======================================================
(PID.TID 0000.0001) // Begin MONITOR dynamic field statistics
(PID.TID 0000.0001) // =======================================================
(PID.TID 0000.0001) %MON time_tsnumber                =                    34
(PID.TID 0000.0001) %MON time_secondsf                =   1.2240000000000E+05
(PID.TID 0000.0001) %MON dynstat_eta_max              =   7.4040147550703E-04
(PID.TID 0000.0001) %MON dynstat_eta_min              =   5.3732504635325E-04
(PID.TID 0000.0001) %MON dynstat_eta_mean             =   6.2501307072118E-04
(PID.TID 0000.0001) %MON dynstat_eta_sd               =   6.8591683608523E-05
(PID.TID 0000.0001) %MON dynstat_eta_del2             =   2.3561496722632E-05
(PID.TID 0000.0001) %MON dynstat_uvel_max             =   2.5974300622319E-03
(PID.TID 0000.0001) %MON dynstat_uvel_min             =  -1.1879208915714E-04
(PID.TID 0000.0001) %MON dynstat_uvel_mean            =   8.0140022747740E-05
(PID.TID 0000.0001) %MON dynstat_uvel_sd              =   3.2836426015941E-04
(PID.TID 0000.0001) %MON dynstat_uvel_del2            =   4.4150843284911E-05
(PID.TID 0000.0001) %MON dynstat_vvel_max             =   1.2989665128068E-02
(PID.TID 0000.0001) %MON dynstat_vvel_min             =  -9.3226542574327E-05
(PID.TID 0000.0001) %MON dynstat_vvel_mean            =   3.4765702444856E-04
(PID.TID 0000.0001) %MON dynstat_vvel_sd              =   1.8452583834132E-03
(PID.TID 0000.0001) %MON dynstat_vvel_del2            =   1.1055934481581E-04
(PID.TID 0000.0001) %MON dynstat_wvel_max             =   7.9545748101000E-07
(PID.TID 0000.0001) %MON dynstat_wvel_min             =  -1.3456804807172E-06
(PID.TID 0000.0001) %MON dynstat_wvel_mean            =   1.3865247466711E-09
(PID.TID 0000.0001) %MON dynstat_wvel_sd              =   6.2691567884020E-07
(PID.TID 0000.0001) %MON dynstat_wvel_del2            =   2.5750215296069E-07
(PID.TID 0000.0001) %MON dynstat_theta_max            =   4.0000000000000E+00
(PID.TID 0000.0001) %MON dynstat_theta_min            =   4.0000000000000E+00
(PID.TID 0000.0001) %MON dynstat_theta_mean           =   4.0000000000000E+00
(PID.TID 0000.0001) %MON dynstat_theta_sd             =   0.0000000000000E+00
(PID.TID 0000.0001) %MON dynstat_theta_del2           =   0.0000000000000E+00
(PID.TID 0000.0001) %MON dynstat_salt_max             =   3.5000000000000E+01
(PID.TID 0000.0001) %MON dynstat_salt_min             =   3.5000000000000E+01
(PID.TID 0000.0001) %MON dynstat_salt_mean            =   3.5000000000000E+01
(PID.TID 0000.0001) %MON dynstat_salt_sd              =   0.0000000000000E+00
(PID.TID 0000.0001) %MON dynstat_salt_del2            =   0.0000000000000E+00
(PID.TID 0000.0001) %MON dynstat_sst_max              =   4.0000000000000E+00
(PID.TID 0000.0001) %MON dynstat_sst_min              =   4.0000000000000E+00
(PID.TID 0000.0001) %MON dynstat_sst_mean             =   4.0000000000000E+00
(PID.TID 0000.0001) %MON dynstat_sst_sd               =   0.0000000000000E+00
(PID.TID 0000.0001) %MON dynstat_sst_del2             =   0.0000000000000E+00
(PID.TID 0000.0001) %MON dynstat_sss_max              =   3.5000000000000E+01
(PID.TID 0000.0001) %MON dynstat_sss_min              =   3.5000000000000E+01
(PID.TID 0000.0001) %MON dynstat_sss_mean             =   3.5000000000000E+01
(PID.TID 0000.0001) %MON dynstat_sss_sd               =   0.0000000000000E+00
(PID.TID 0000.0001) %MON dynstat_sss_del2             =   0.0000000000000E+00
(PID.TID 0000.0001) %MON extforcing_qnet_max          =   0.0000000000000E+00
(PID.TID 0000.0001) %MON extforcing_qnet_min          =   0.0000000000000E+00
(PID.TID 0000.0001) %MON extforcing_qnet_mean         =   0.0000000000000E+00
(PID.TID 0000.0001) %MON extforcing_qnet_sd           =   0.0000000000000E+00
(PID.TID 0000.0001) %MON extforcing_qnet_del2         =   0.0000000000000E+00
(PID.TID 0000.0001) %MON extforcing_qsw_max           =   0.0000000000000E+00
(PID.TID 0000.0001) %MON extforcing_qsw_min           =   0.0000000000000E+00
(PID.TID 0000.0001) %MON extforcing_qsw_mean          =   0.0000000000000E+00
(PID.TID 0000.0001) %MON extforcing_qsw_sd            =   0.0000000000000E+00
(PID.TID 0000.0001) %MON extforcing_qsw_del2          =   0.0000000000000E+00
(PID.TID 0000.0001) %MON extforcing_empmr_max         =   0.0000000000000E+00
(PID.TID 0000.0001) %MON extforcing_empmr_min         =   0.0000000000000E+00
(PID.TID 0000.0001) %MON extforcing_empmr_mean        =   0.0000000000000E+00
(PID.TID 0000.0001) %MON extforcing_empmr_sd          =   0.0000000000000E+00
(PID.TID 0000.0001) %MON extforcing_empmr_del2        =   0.0000000000000E+00
(PID.TID 0000.0001) %MON extforcing_fu_max            =   1.0000000000000E-01
(PID.TID 0000.0001) %MON extforcing_fu_min            =   1.0000000000000E-01
(PID.TID 0000.0001) %MON extforcing_fu_mean           =   1.0000000000000E-01
(PID.TID 0000.0001) %MON extforcing_fu_sd             =   0.0000000000000E+00
(PID.TID 0000.0001) %MON extforcing_fu_del2           =   0.0000000000000E+00
(PID.TID 0000.0001) %MON extforcing_fv_max            =   0.0000000000000E+00
(PID.TID 0000.0001) %MON extforcing_fv_min            =   0.0000000000000E+00
(PID.TID 0000.0001) %MON extforcing_fv_mean           =   0.0000000000000E+00
(PID.TID 0000.0001) %MON extforcing_fv_sd             =   0.0000000000000E+00
(PID.TID 0000.0001) %MON extforcing_fv_del2           =   0.0000000000000E+00
(PID.TID 0000.0001) %MON advcfl_uvel_max              =   4.6753741120174E-05
(PID.TID 0000.0001) %MON advcfl_vvel_max              =   2.3381397230522E-04
(PID.TID 0000.0001) %MON advcfl_wvel_max              =   1.3845710754970E-05
(PID.TID 0000.0001) %MON advcfl_W_hf_max              =   3.4614276887424E-05
(PID.TID 0000.0001) %MON pe_b_mean                    =   4.4062940296503E-10
(PID.TID 0000.0001) %MON ke_max                       =   8.5724224371120E-05
(PID.TID 0000.0001) %MON ke_mean                      =   1.8200447094007E-06
(PID.TID 0000.0001) %MON ke_vol                       =   4.4009158039362E+15
(PID.TID 0000.0001) %MON vort_r_min                   =  -2.8580501851073E-09
(PID.TID 0000.0001) %MON vort_r_max                   =   2.9530484350371E-09
(PID.TID 0000.0001) %MON vort_a_mean                  =  -1.1390240000000E-04
(PID.TID 0000.0001) %MON vort_a_sd                    =   3.7032532003064E-06
(PID.TID 0000.0001) %MON vort_p_mean                  =  -1.5528913309106E-04
(PID.TID 0000.0001) %MON vort_p_sd                    =   4.1188178140324E-05
(PID.TID 0000.0001) %MON surfExpan_theta_mean         =   9.7066410919684E-08
(PID.TID 0000.0001) %MON surfExpan_salt_mean          =   8.4933109554724E-07
(PID.TID 0000.0001) // =======================================================
(PID.TID 0000.0001) // End MONITOR dynamic field statistics
(PID.TID 0000.0001) // =======================================================
 cg2d: Sum(rhs),rhsMax =  -4.03589978211298E+00  2.51830322545865E-03
(PID.TID 0000.0001)                    cg2d_init_res =    2.07649004449400E-01
(PID.TID 0000.0001)                       cg2d_iters =    14
(PID.TID 0000.0001)                         cg2d_res =    7.60522241885155E-14
(PID.TID 0000.0001) // =======================================================
(PID.TID 0000.0001) // Begin MONITOR dynamic field statistics
(PID.TID 0000.0001) // =======================================================
(PID.TID 0000.0001) %MON time_tsnumber                =                    35
(PID.TID 0000.0001) %MON time_secondsf                =   1.2600000000000E+05
(PID.TID 0000.0001) %MON dynstat_eta_max              =   7.7804314886246E-04
(PID.TID 0000.0001) %MON dynstat_eta_min              =   5.6305233694958E-04
(PID.TID 0000.0001) %MON dynstat_eta_mean             =   6.5860253964221E-04
(PID.TID 0000.0001) %MON dynstat_eta_sd               =   7.4814813729873E-05
(PID.TID 0000.0001) %MON dynstat_eta_del2             =   2.5792980566704E-05
(PID.TID 0000.0001) %MON dynstat_uvel_max             =   5.5895442363093E-04
(PID.TID 0000.0001) %MON dynstat_uvel_min             =  -1.6359844392645E-04
(PID.TID 0000.0001) %MON dynstat_uvel_mean            =   9.4164927359876E-06
(PID.TID 0000.0001) %MON dynstat_uvel_sd              =   9.2937856577929E-05
(PID.TID 0000.0001) %MON dynstat_uvel_del2            =   4.4554080036036E-05
(PID.TID 0000.0001) %MON dynstat_vvel_max             =   1.3372981960495E-02
(PID.TID 0000.0001) %MON dynstat_vvel_min             =  -9.5577531172126E-05
(PID.TID 0000.0001) %MON dynstat_vvel_mean            =   3.6630312124162E-04
(PID.TID 0000.0001) %MON dynstat_vvel_sd              =   1.8974347492329E-03
(PID.TID 0000.0001) %MON dynstat_vvel_del2            =   1.0805514276709E-04
(PID.TID 0000.0001) %MON dynstat_wvel_max             =   9.3485468953654E-07
(PID.TID 0000.0001) %MON dynstat_wvel_min             =  -1.4198555454623E-06
(PID.TID 0000.0001) %MON dynstat_wvel_mean            =   1.5472886852101E-09
(PID.TID 0000.0001) %MON dynstat_wvel_sd              =   6.6923983504675E-07
(PID.TID 0000.0001) %MON dynstat_wvel_del2            =   2.5503031491800E-07
(PID.TID 0000.0001) %MON dynstat_theta_max            =   4.0000000000000E+00
(PID.TID 0000.0001) %MON dynstat_theta_min            =   4.0000000000000E+00
(PID.TID 0000.0001) %MON dynstat_theta_mean           =   4.0000000000000E+00
(PID.TID 0000.0001) %MON dynstat_theta_sd             =   0.0000000000000E+00
(PID.TID 0000.0001) %MON dynstat_theta_del2           =   0.0000000000000E+00
(PID.TID 0000.0001) %MON dynstat_salt_max             =   3.5000000000000E+01
(PID.TID 0000.0001) %MON dynstat_salt_min             =   3.5000000000000E+01
(PID.TID 0000.0001) %MON dynstat_salt_mean            =   3.5000000000000E+01
(PID.TID 0000.0001) %MON dynstat_salt_sd              =   0.0000000000000E+00
(PID.TID 0000.0001) %MON dynstat_salt_del2            =   0.0000000000000E+00
(PID.TID 0000.0001) %MON dynstat_sst_max              =   4.0000000000000E+00
(PID.TID 0000.0001) %MON dynstat_sst_min              =   4.0000000000000E+00
(PID.TID 0000.0001) %MON dynstat_sst_mean             =   4.0000000000000E+00
(PID.TID 0000.0001) %MON dynstat_sst_sd               =   0.0000000000000E+00
(PID.TID 0000.0001) %MON dynstat_sst_del2             =   0.0000000000000E+00
(PID.TID 0000.0001) %MON dynstat_sss_max              =   3.5000000000000E+01
(PID.TID 0000.0001) %MON dynstat_sss_min              =   3.5000000000000E+01
(PID.TID 0000.0001) %MON dynstat_sss_mean             =   3.5000000000000E+01
(PID.TID 0000.0001) %MON dynstat_sss_sd               =   0.0000000000000E+00
(PID.TID 0000.0001) %MON dynstat_sss_del2             =   0.0000000000000E+00
(PID.TID 0000.0001) %MON extforcing_qnet_max          =   0.0000000000000E+00
(PID.TID 0000.0001) %MON extforcing_qnet_min          =   0.0000000000000E+00
(PID.TID 0000.0001) %MON extforcing_qnet_mean         =   0.0000000000000E+00
(PID.TID 0000.0001) %MON extforcing_qnet_sd           =   0.0000000000000E+00
(PID.TID 0000.0001) %MON extforcing_qnet_del2         =   0.0000000000000E+00
(PID.TID 0000.0001) %MON extforcing_qsw_max           =   0.0000000000000E+00
(PID.TID 0000.0001) %MON extforcing_qsw_min           =   0.0000000000000E+00
(PID.TID 0000.0001) %MON extforcing_qsw_mean          =   0.0000000000000E+00
(PID.TID 0000.0001) %MON extforcing_qsw_sd            =   0.0000000000000E+00
(PID.TID 0000.0001) %MON extforcing_qsw_del2          =   0.0000000000000E+00
(PID.TID 0000.0001) %MON extforcing_empmr_max         =   0.0000000000000E+00
(PID.TID 0000.0001) %MON extforcing_empmr_min         =   0.0000000000000E+00
(PID.TID 0000.0001) %MON extforcing_empmr_mean        =   0.0000000000000E+00
(PID.TID 0000.0001) %MON extforcing_empmr_sd          =   0.0000000000000E+00
(PID.TID 0000.0001) %MON extforcing_empmr_del2        =   0.0000000000000E+00
(PID.TID 0000.0001) %MON extforcing_fu_max            =   1.0000000000000E-01
(PID.TID 0000.0001) %MON extforcing_fu_min            =   1.0000000000000E-01
(PID.TID 0000.0001) %MON extforcing_fu_mean           =   1.0000000000000E-01
(PID.TID 0000.0001) %MON extforcing_fu_sd             =   0.0000000000000E+00
(PID.TID 0000.0001) %MON extforcing_fu_del2           =   0.0000000000000E+00
(PID.TID 0000.0001) %MON extforcing_fv_max            =   0.0000000000000E+00
(PID.TID 0000.0001) %MON extforcing_fv_min            =   0.0000000000000E+00
(PID.TID 0000.0001) %MON extforcing_fv_mean           =   0.0000000000000E+00
(PID.TID 0000.0001) %MON extforcing_fv_sd             =   0.0000000000000E+00
(PID.TID 0000.0001) %MON extforcing_fv_del2           =   0.0000000000000E+00
(PID.TID 0000.0001) %MON advcfl_uvel_max              =   1.0061179625357E-05
(PID.TID 0000.0001) %MON advcfl_vvel_max              =   2.4071367528891E-04
(PID.TID 0000.0001) %MON advcfl_wvel_max              =   1.4344142466244E-05
(PID.TID 0000.0001) %MON advcfl_W_hf_max              =   3.5860356165609E-05
(PID.TID 0000.0001) %MON pe_b_mean                    =   4.8967856249506E-10
(PID.TID 0000.0001) %MON ke_max                       =   8.7903003057135E-05
(PID.TID 0000.0001) %MON ke_mean                      =   1.8715813598743E-06
(PID.TID 0000.0001) %MON ke_vol                       =   4.4009158039362E+15
(PID.TID 0000.0001) %MON vort_r_min                   =  -2.1155861081718E-09
(PID.TID 0000.0001) %MON vort_r_max                   =   1.7807786601915E-09
(PID.TID 0000.0001) %MON vort_a_mean                  =  -1.1390240000000E-04
(PID.TID 0000.0001) %MON vort_a_sd                    =   3.7032468198012E-06
(PID.TID 0000.0001) %MON vort_p_mean                  =  -1.5528913309106E-04
(PID.TID 0000.0001) %MON vort_p_sd                    =   4.1188177916257E-05
(PID.TID 0000.0001) %MON surfExpan_theta_mean         =   3.7321632134480E-08
(PID.TID 0000.0001) %MON surfExpan_salt_mean          =   3.2656428117670E-07
(PID.TID 0000.0001) // =======================================================
(PID.TID 0000.0001) // End MONITOR dynamic field statistics
(PID.TID 0000.0001) // =======================================================
 cg2d: Sum(rhs),rhsMax =  -3.87512848171546E+00  2.52047519086830E-03
(PID.TID 0000.0001)                    cg2d_init_res =    2.33015551533520E-01
(PID.TID 0000.0001)                       cg2d_iters =    14
(PID.TID 0000.0001)                         cg2d_res =    7.19965820758666E-14
(PID.TID 0000.0001) // =======================================================
(PID.TID 0000.0001) // Begin MONITOR dynamic field statistics
(PID.TID 0000.0001) // =======================================================
(PID.TID 0000.0001) %MON time_tsnumber                =                    36
(PID.TID 0000.0001) %MON time_secondsf                =   1.2960000000000E+05
(PID.TID 0000.0001) %MON dynstat_eta_max              =   7.5759442548388E-04
(PID.TID 0000.0001) %MON dynstat_eta_min              =   5.2866006154914E-04
(PID.TID 0000.0001) %MON dynstat_eta_mean             =   6.3291230493349E-04
(PID.TID 0000.0001) %MON dynstat_eta_sd               =   8.2256111321630E-05
(PID.TID 0000.0001) %MON dynstat_eta_del2             =   2.8690707028658E-05
(PID.TID 0000.0001) %MON dynstat_uvel_max             =   1.1036128709252E-04
(PID.TID 0000.0001) %MON dynstat_uvel_min             =  -1.8819675496212E-03
(PID.TID 0000.0001) %MON dynstat_uvel_mean            =  -6.1684335664372E-05
(PID.TID 0000.0001) %MON dynstat_uvel_sd              =   2.2850585253250E-04
(PID.TID 0000.0001) %MON dynstat_uvel_del2            =   5.7696884738855E-05
(PID.TID 0000.0001) %MON dynstat_vvel_max             =   1.2947572307762E-02
(PID.TID 0000.0001) %MON dynstat_vvel_min             =  -8.6563188157009E-05
(PID.TID 0000.0001) %MON dynstat_vvel_mean            =   3.5235552401198E-04
(PID.TID 0000.0001) %MON dynstat_vvel_sd              =   1.8328698995202E-03
(PID.TID 0000.0001) %MON dynstat_vvel_del2            =   1.0551001348685E-04
(PID.TID 0000.0001) %MON dynstat_wvel_max             =   8.7008377378037E-07
(PID.TID 0000.0001) %MON dynstat_wvel_min             =  -1.3324870991560E-06
(PID.TID 0000.0001) %MON dynstat_wvel_mean            =   1.3753465598261E-09
(PID.TID 0000.0001) %MON dynstat_wvel_sd              =   6.2122331460753E-07
(PID.TID 0000.0001) %MON dynstat_wvel_del2            =   2.4866166476054E-07
(PID.TID 0000.0001) %MON dynstat_theta_max            =   4.0000000000000E+00
(PID.TID 0000.0001) %MON dynstat_theta_min            =   4.0000000000000E+00
(PID.TID 0000.0001) %MON dynstat_theta_mean           =   4.0000000000000E+00
(PID.TID 0000.0001) %MON dynstat_theta_sd             =   0.0000000000000E+00
(PID.TID 0000.0001) %MON dynstat_theta_del2           =   0.0000000000000E+00
(PID.TID 0000.0001) %MON dynstat_salt_max             =   3.5000000000000E+01
(PID.TID 0000.0001) %MON dynstat_salt_min             =   3.5000000000000E+01
(PID.TID 0000.0001) %MON dynstat_salt_mean            =   3.5000000000000E+01
(PID.TID 0000.0001) %MON dynstat_salt_sd              =   0.0000000000000E+00
(PID.TID 0000.0001) %MON dynstat_salt_del2            =   0.0000000000000E+00
(PID.TID 0000.0001) %MON dynstat_sst_max              =   4.0000000000000E+00
(PID.TID 0000.0001) %MON dynstat_sst_min              =   4.0000000000000E+00
(PID.TID 0000.0001) %MON dynstat_sst_mean             =   4.0000000000000E+00
(PID.TID 0000.0001) %MON dynstat_sst_sd               =   0.0000000000000E+00
(PID.TID 0000.0001) %MON dynstat_sst_del2             =   0.0000000000000E+00
(PID.TID 0000.0001) %MON dynstat_sss_max              =   3.5000000000000E+01
(PID.TID 0000.0001) %MON dynstat_sss_min              =   3.5000000000000E+01
(PID.TID 0000.0001) %MON dynstat_sss_mean             =   3.5000000000000E+01
(PID.TID 0000.0001) %MON dynstat_sss_sd               =   0.0000000000000E+00
(PID.TID 0000.0001) %MON dynstat_sss_del2             =   0.0000000000000E+00
(PID.TID 0000.0001) %MON extforcing_qnet_max          =   0.0000000000000E+00
(PID.TID 0000.0001) %MON extforcing_qnet_min          =   0.0000000000000E+00
(PID.TID 0000.0001) %MON extforcing_qnet_mean         =   0.0000000000000E+00
(PID.TID 0000.0001) %MON extforcing_qnet_sd           =   0.0000000000000E+00
(PID.TID 0000.0001) %MON extforcing_qnet_del2         =   0.0000000000000E+00
(PID.TID 0000.0001) %MON extforcing_qsw_max           =   0.0000000000000E+00
(PID.TID 0000.0001) %MON extforcing_qsw_min           =   0.0000000000000E+00
(PID.TID 0000.0001) %MON extforcing_qsw_mean          =   0.0000000000000E+00
(PID.TID 0000.0001) %MON extforcing_qsw_sd            =   0.0000000000000E+00
(PID.TID 0000.0001) %MON extforcing_qsw_del2          =   0.0000000000000E+00
(PID.TID 0000.0001) %MON extforcing_empmr_max         =   0.0000000000000E+00
(PID.TID 0000.0001) %MON extforcing_empmr_min         =   0.0000000000000E+00
(PID.TID 0000.0001) %MON extforcing_empmr_mean        =   0.0000000000000E+00
(PID.TID 0000.0001) %MON extforcing_empmr_sd          =   0.0000000000000E+00
(PID.TID 0000.0001) %MON extforcing_empmr_del2        =   0.0000000000000E+00
(PID.TID 0000.0001) %MON extforcing_fu_max            =   1.0000000000000E-01
(PID.TID 0000.0001) %MON extforcing_fu_min            =   1.0000000000000E-01
(PID.TID 0000.0001) %MON extforcing_fu_mean           =   1.0000000000000E-01
(PID.TID 0000.0001) %MON extforcing_fu_sd             =   0.0000000000000E+00
(PID.TID 0000.0001) %MON extforcing_fu_del2           =   0.0000000000000E+00
(PID.TID 0000.0001) %MON extforcing_fv_max            =   0.0000000000000E+00
(PID.TID 0000.0001) %MON extforcing_fv_min            =   0.0000000000000E+00
(PID.TID 0000.0001) %MON extforcing_fv_mean           =   0.0000000000000E+00
(PID.TID 0000.0001) %MON extforcing_fv_sd             =   0.0000000000000E+00
(PID.TID 0000.0001) %MON extforcing_fv_del2           =   0.0000000000000E+00
(PID.TID 0000.0001) %MON advcfl_uvel_max              =   3.3875415893181E-05
(PID.TID 0000.0001) %MON advcfl_vvel_max              =   2.3305630153972E-04
(PID.TID 0000.0001) %MON advcfl_wvel_max              =   1.3681155737382E-05
(PID.TID 0000.0001) %MON advcfl_W_hf_max              =   3.4202889343454E-05
(PID.TID 0000.0001) %MON pe_b_mean                    =   4.5400154691717E-10
(PID.TID 0000.0001) %MON ke_max                       =   8.2665292286786E-05
(PID.TID 0000.0001) %MON ke_mean                      =   1.7697931828884E-06
(PID.TID 0000.0001) %MON ke_vol                       =   4.4009158039362E+15
(PID.TID 0000.0001) %MON vort_r_min                   =  -2.5244476178391E-09
(PID.TID 0000.0001) %MON vort_r_max                   =   4.8455962296438E-09
(PID.TID 0000.0001) %MON vort_a_mean                  =  -1.1390240000000E-04
(PID.TID 0000.0001) %MON vort_a_sd                    =   3.7032410574496E-06
(PID.TID 0000.0001) %MON vort_p_mean                  =  -1.5528913309106E-04
(PID.TID 0000.0001) %MON vort_p_sd                    =   4.1188177818733E-05
(PID.TID 0000.0001) %MON surfExpan_theta_mean         =  -2.8544705231909E-08
(PID.TID 0000.0001) %MON surfExpan_salt_mean          =  -2.4976617077920E-07
(PID.TID 0000.0001) // =======================================================
(PID.TID 0000.0001) // End MONITOR dynamic field statistics
(PID.TID 0000.0001) // =======================================================
 cg2d: Sum(rhs),rhsMax =  -3.40600368805600E+00  2.51092921751124E-03
(PID.TID 0000.0001)                    cg2d_init_res =    2.44183210246042E-01
(PID.TID 0000.0001)                       cg2d_iters =    15
(PID.TID 0000.0001)                         cg2d_res =    2.17923552258857E-17
(PID.TID 0000.0001) // =======================================================
(PID.TID 0000.0001) // Begin MONITOR dynamic field statistics
(PID.TID 0000.0001) // =======================================================
(PID.TID 0000.0001) %MON time_tsnumber                =                    37
(PID.TID 0000.0001) %MON time_secondsf                =   1.3320000000000E+05
(PID.TID 0000.0001) %MON dynstat_eta_max              =   6.8445450278599E-04
(PID.TID 0000.0001) %MON dynstat_eta_min              =   4.4186631387930E-04
(PID.TID 0000.0001) %MON dynstat_eta_mean             =   5.5418477455885E-04
(PID.TID 0000.0001) %MON dynstat_eta_sd               =   8.9495768074548E-05
(PID.TID 0000.0001) %MON dynstat_eta_del2             =   3.1439731074721E-05
(PID.TID 0000.0001) %MON dynstat_uvel_max             =   1.0463835877167E-04
(PID.TID 0000.0001) %MON dynstat_uvel_min             =  -3.4670445025445E-03
(PID.TID 0000.0001) %MON dynstat_uvel_mean            =  -1.1919096900599E-04
(PID.TID 0000.0001) %MON dynstat_uvel_sd              =   4.2445553786650E-04
(PID.TID 0000.0001) %MON dynstat_uvel_del2            =   8.2898624943083E-05
(PID.TID 0000.0001) %MON dynstat_vvel_max             =   1.1835491046870E-02
(PID.TID 0000.0001) %MON dynstat_vvel_min             =  -6.8707222347670E-05
(PID.TID 0000.0001) %MON dynstat_vvel_mean            =   3.0914712300314E-04
(PID.TID 0000.0001) %MON dynstat_vvel_sd              =   1.6706554886964E-03
(PID.TID 0000.0001) %MON dynstat_vvel_del2            =   1.0312670846960E-04
(PID.TID 0000.0001) %MON dynstat_wvel_max             =   6.2086462819524E-07
(PID.TID 0000.0001) %MON dynstat_wvel_min             =  -1.1129623856864E-06
(PID.TID 0000.0001) %MON dynstat_wvel_mean            =   9.1441128500283E-10
(PID.TID 0000.0001) %MON dynstat_wvel_sd              =   5.0104731681356E-07
(PID.TID 0000.0001) %MON dynstat_wvel_del2            =   2.3992691213154E-07
(PID.TID 0000.0001) %MON dynstat_theta_max            =   4.0000000000000E+00
(PID.TID 0000.0001) %MON dynstat_theta_min            =   4.0000000000000E+00
(PID.TID 0000.0001) %MON dynstat_theta_mean           =   4.0000000000000E+00
(PID.TID 0000.0001) %MON dynstat_theta_sd             =   0.0000000000000E+00
(PID.TID 0000.0001) %MON dynstat_theta_del2           =   0.0000000000000E+00
(PID.TID 0000.0001) %MON dynstat_salt_max             =   3.5000000000000E+01
(PID.TID 0000.0001) %MON dynstat_salt_min             =   3.5000000000000E+01
(PID.TID 0000.0001) %MON dynstat_salt_mean            =   3.5000000000000E+01
(PID.TID 0000.0001) %MON dynstat_salt_sd              =   0.0000000000000E+00
(PID.TID 0000.0001) %MON dynstat_salt_del2            =   0.0000000000000E+00
(PID.TID 0000.0001) %MON dynstat_sst_max              =   4.0000000000000E+00
(PID.TID 0000.0001) %MON dynstat_sst_min              =   4.0000000000000E+00
(PID.TID 0000.0001) %MON dynstat_sst_mean             =   4.0000000000000E+00
(PID.TID 0000.0001) %MON dynstat_sst_sd               =   0.0000000000000E+00
(PID.TID 0000.0001) %MON dynstat_sst_del2             =   0.0000000000000E+00
(PID.TID 0000.0001) %MON dynstat_sss_max              =   3.5000000000000E+01
(PID.TID 0000.0001) %MON dynstat_sss_min              =   3.5000000000000E+01
(PID.TID 0000.0001) %MON dynstat_sss_mean             =   3.5000000000000E+01
(PID.TID 0000.0001) %MON dynstat_sss_sd               =   0.0000000000000E+00
(PID.TID 0000.0001) %MON dynstat_sss_del2             =   0.0000000000000E+00
(PID.TID 0000.0001) %MON extforcing_qnet_max          =   0.0000000000000E+00
(PID.TID 0000.0001) %MON extforcing_qnet_min          =   0.0000000000000E+00
(PID.TID 0000.0001) %MON extforcing_qnet_mean         =   0.0000000000000E+00
(PID.TID 0000.0001) %MON extforcing_qnet_sd           =   0.0000000000000E+00
(PID.TID 0000.0001) %MON extforcing_qnet_del2         =   0.0000000000000E+00
(PID.TID 0000.0001) %MON extforcing_qsw_max           =   0.0000000000000E+00
(PID.TID 0000.0001) %MON extforcing_qsw_min           =   0.0000000000000E+00
(PID.TID 0000.0001) %MON extforcing_qsw_mean          =   0.0000000000000E+00
(PID.TID 0000.0001) %MON extforcing_qsw_sd            =   0.0000000000000E+00
(PID.TID 0000.0001) %MON extforcing_qsw_del2          =   0.0000000000000E+00
(PID.TID 0000.0001) %MON extforcing_empmr_max         =   0.0000000000000E+00
(PID.TID 0000.0001) %MON extforcing_empmr_min         =   0.0000000000000E+00
(PID.TID 0000.0001) %MON extforcing_empmr_mean        =   0.0000000000000E+00
(PID.TID 0000.0001) %MON extforcing_empmr_sd          =   0.0000000000000E+00
(PID.TID 0000.0001) %MON extforcing_empmr_del2        =   0.0000000000000E+00
(PID.TID 0000.0001) %MON extforcing_fu_max            =   1.0000000000000E-01
(PID.TID 0000.0001) %MON extforcing_fu_min            =   1.0000000000000E-01
(PID.TID 0000.0001) %MON extforcing_fu_mean           =   1.0000000000000E-01
(PID.TID 0000.0001) %MON extforcing_fu_sd             =   0.0000000000000E+00
(PID.TID 0000.0001) %MON extforcing_fu_del2           =   0.0000000000000E+00
(PID.TID 0000.0001) %MON extforcing_fv_max            =   0.0000000000000E+00
(PID.TID 0000.0001) %MON extforcing_fv_min            =   0.0000000000000E+00
(PID.TID 0000.0001) %MON extforcing_fv_mean           =   0.0000000000000E+00
(PID.TID 0000.0001) %MON extforcing_fv_sd             =   0.0000000000000E+00
(PID.TID 0000.0001) %MON extforcing_fv_del2           =   0.0000000000000E+00
(PID.TID 0000.0001) %MON advcfl_uvel_max              =   6.2406801045802E-05
(PID.TID 0000.0001) %MON advcfl_vvel_max              =   2.1303883884366E-04
(PID.TID 0000.0001) %MON advcfl_wvel_max              =   1.1846980227922E-05
(PID.TID 0000.0001) %MON advcfl_W_hf_max              =   2.9617450569804E-05
(PID.TID 0000.0001) %MON pe_b_mean                    =   3.5122551276638E-10
(PID.TID 0000.0001) %MON ke_max                       =   7.1243539044201E-05
(PID.TID 0000.0001) %MON ke_mean                      =   1.5405153481453E-06
(PID.TID 0000.0001) %MON ke_vol                       =   4.4009158039362E+15
(PID.TID 0000.0001) %MON vort_r_min                   =  -4.4257570936156E-09
(PID.TID 0000.0001) %MON vort_r_max                   =   7.2455005018400E-09
(PID.TID 0000.0001) %MON vort_a_mean                  =  -1.1390240000000E-04
(PID.TID 0000.0001) %MON vort_a_sd                    =   3.7032366512879E-06
(PID.TID 0000.0001) %MON vort_p_mean                  =  -1.5528913309106E-04
(PID.TID 0000.0001) %MON vort_p_sd                    =   4.1188177731956E-05
(PID.TID 0000.0001) %MON surfExpan_theta_mean         =  -8.7475033749607E-08
(PID.TID 0000.0001) %MON surfExpan_salt_mean          =  -7.6540654530906E-07
(PID.TID 0000.0001) // =======================================================
(PID.TID 0000.0001) // End MONITOR dynamic field statistics
(PID.TID 0000.0001) // =======================================================
 cg2d: Sum(rhs),rhsMax =  -2.61682443313491E+00  2.58874087416428E-03
(PID.TID 0000.0001)                    cg2d_init_res =    2.25585657280338E-01
(PID.TID 0000.0001)                       cg2d_iters =    15
(PID.TID 0000.0001)                         cg2d_res =    2.63807913715848E-17
(PID.TID 0000.0001) // =======================================================
(PID.TID 0000.0001) // Begin MONITOR dynamic field statistics
(PID.TID 0000.0001) // =======================================================
(PID.TID 0000.0001) %MON time_tsnumber                =                    38
(PID.TID 0000.0001) %MON time_secondsf                =   1.3680000000000E+05
(PID.TID 0000.0001) %MON dynstat_eta_max              =   5.7425505760351E-04
(PID.TID 0000.0001) %MON dynstat_eta_min              =   3.2056396462567E-04
(PID.TID 0000.0001) %MON dynstat_eta_mean             =   4.3897336801281E-04
(PID.TID 0000.0001) %MON dynstat_eta_sd               =   9.5088315871805E-05
(PID.TID 0000.0001) %MON dynstat_eta_del2             =   3.3547194769937E-05
(PID.TID 0000.0001) %MON dynstat_uvel_max             =   1.0127118541055E-04
(PID.TID 0000.0001) %MON dynstat_uvel_min             =  -4.2979990972591E-03
(PID.TID 0000.0001) %MON dynstat_uvel_mean            =  -1.5205533565948E-04
(PID.TID 0000.0001) %MON dynstat_uvel_sd              =   5.2943977074314E-04
(PID.TID 0000.0001) %MON dynstat_uvel_del2            =   9.7744767863319E-05
(PID.TID 0000.0001) %MON dynstat_vvel_max             =   1.0285305433099E-02
(PID.TID 0000.0001) %MON dynstat_vvel_min             =  -4.5974800108128E-05
(PID.TID 0000.0001) %MON dynstat_vvel_mean            =   2.4569695342564E-04
(PID.TID 0000.0001) %MON dynstat_vvel_sd              =   1.4502684917769E-03
(PID.TID 0000.0001) %MON dynstat_vvel_del2            =   1.0164689104584E-04
(PID.TID 0000.0001) %MON dynstat_wvel_max             =   5.3690990182865E-07
(PID.TID 0000.0001) %MON dynstat_wvel_min             =  -7.9256410671537E-07
(PID.TID 0000.0001) %MON dynstat_wvel_mean            =   2.6839285177106E-10
(PID.TID 0000.0001) %MON dynstat_wvel_sd              =   3.8351133168549E-07
(PID.TID 0000.0001) %MON dynstat_wvel_del2            =   2.4141043331796E-07
(PID.TID 0000.0001) %MON dynstat_theta_max            =   4.0000000000000E+00
(PID.TID 0000.0001) %MON dynstat_theta_min            =   4.0000000000000E+00
(PID.TID 0000.0001) %MON dynstat_theta_mean           =   4.0000000000000E+00
(PID.TID 0000.0001) %MON dynstat_theta_sd             =   0.0000000000000E+00
(PID.TID 0000.0001) %MON dynstat_theta_del2           =   0.0000000000000E+00
(PID.TID 0000.0001) %MON dynstat_salt_max             =   3.5000000000000E+01
(PID.TID 0000.0001) %MON dynstat_salt_min             =   3.5000000000000E+01
(PID.TID 0000.0001) %MON dynstat_salt_mean            =   3.5000000000000E+01
(PID.TID 0000.0001) %MON dynstat_salt_sd              =   0.0000000000000E+00
(PID.TID 0000.0001) %MON dynstat_salt_del2            =   0.0000000000000E+00
(PID.TID 0000.0001) %MON dynstat_sst_max              =   4.0000000000000E+00
(PID.TID 0000.0001) %MON dynstat_sst_min              =   4.0000000000000E+00
(PID.TID 0000.0001) %MON dynstat_sst_mean             =   4.0000000000000E+00
(PID.TID 0000.0001) %MON dynstat_sst_sd               =   0.0000000000000E+00
(PID.TID 0000.0001) %MON dynstat_sst_del2             =   0.0000000000000E+00
(PID.TID 0000.0001) %MON dynstat_sss_max              =   3.5000000000000E+01
(PID.TID 0000.0001) %MON dynstat_sss_min              =   3.5000000000000E+01
(PID.TID 0000.0001) %MON dynstat_sss_mean             =   3.5000000000000E+01
(PID.TID 0000.0001) %MON dynstat_sss_sd               =   0.0000000000000E+00
(PID.TID 0000.0001) %MON dynstat_sss_del2             =   0.0000000000000E+00
(PID.TID 0000.0001) %MON extforcing_qnet_max          =   0.0000000000000E+00
(PID.TID 0000.0001) %MON extforcing_qnet_min          =   0.0000000000000E+00
(PID.TID 0000.0001) %MON extforcing_qnet_mean         =   0.0000000000000E+00
(PID.TID 0000.0001) %MON extforcing_qnet_sd           =   0.0000000000000E+00
(PID.TID 0000.0001) %MON extforcing_qnet_del2         =   0.0000000000000E+00
(PID.TID 0000.0001) %MON extforcing_qsw_max           =   0.0000000000000E+00
(PID.TID 0000.0001) %MON extforcing_qsw_min           =   0.0000000000000E+00
(PID.TID 0000.0001) %MON extforcing_qsw_mean          =   0.0000000000000E+00
(PID.TID 0000.0001) %MON extforcing_qsw_sd            =   0.0000000000000E+00
(PID.TID 0000.0001) %MON extforcing_qsw_del2          =   0.0000000000000E+00
(PID.TID 0000.0001) %MON extforcing_empmr_max         =   0.0000000000000E+00
(PID.TID 0000.0001) %MON extforcing_empmr_min         =   0.0000000000000E+00
(PID.TID 0000.0001) %MON extforcing_empmr_mean        =   0.0000000000000E+00
(PID.TID 0000.0001) %MON extforcing_empmr_sd          =   0.0000000000000E+00
(PID.TID 0000.0001) %MON extforcing_empmr_del2        =   0.0000000000000E+00
(PID.TID 0000.0001) %MON extforcing_fu_max            =   1.0000000000000E-01
(PID.TID 0000.0001) %MON extforcing_fu_min            =   1.0000000000000E-01
(PID.TID 0000.0001) %MON extforcing_fu_mean           =   1.0000000000000E-01
(PID.TID 0000.0001) %MON extforcing_fu_sd             =   0.0000000000000E+00
(PID.TID 0000.0001) %MON extforcing_fu_del2           =   0.0000000000000E+00
(PID.TID 0000.0001) %MON extforcing_fv_max            =   0.0000000000000E+00
(PID.TID 0000.0001) %MON extforcing_fv_min            =   0.0000000000000E+00
(PID.TID 0000.0001) %MON extforcing_fv_mean           =   0.0000000000000E+00
(PID.TID 0000.0001) %MON extforcing_fv_sd             =   0.0000000000000E+00
(PID.TID 0000.0001) %MON extforcing_fv_del2           =   0.0000000000000E+00
(PID.TID 0000.0001) %MON advcfl_uvel_max              =   7.7363983750663E-05
(PID.TID 0000.0001) %MON advcfl_vvel_max              =   1.8513549779579E-04
(PID.TID 0000.0001) %MON advcfl_wvel_max              =   9.1695467322946E-06
(PID.TID 0000.0001) %MON advcfl_W_hf_max              =   2.2923866830736E-05
(PID.TID 0000.0001) %MON pe_b_mean                    =   2.2484678842945E-10
(PID.TID 0000.0001) %MON ke_max                       =   5.5943549030357E-05
(PID.TID 0000.0001) %MON ke_mean                      =   1.2335364935553E-06
(PID.TID 0000.0001) %MON ke_vol                       =   4.4009158039362E+15
(PID.TID 0000.0001) %MON vort_r_min                   =  -5.5315612330437E-09
(PID.TID 0000.0001) %MON vort_r_max                   =   8.6328521128234E-09
(PID.TID 0000.0001) %MON vort_a_mean                  =  -1.1390240000000E-04
(PID.TID 0000.0001) %MON vort_a_sd                    =   3.7032341375770E-06
(PID.TID 0000.0001) %MON vort_p_mean                  =  -1.5528913309106E-04
(PID.TID 0000.0001) %MON vort_p_sd                    =   4.1188177557606E-05
(PID.TID 0000.0001) %MON surfExpan_theta_mean         =  -1.2801267394004E-07
(PID.TID 0000.0001) %MON surfExpan_salt_mean          =  -1.1201108969753E-06
(PID.TID 0000.0001) // =======================================================
(PID.TID 0000.0001) // End MONITOR dynamic field statistics
(PID.TID 0000.0001) // =======================================================
 cg2d: Sum(rhs),rhsMax =  -1.83238712200568E+00  2.61669730048878E-03
(PID.TID 0000.0001)                    cg2d_init_res =    1.95535290113929E-01
(PID.TID 0000.0001)                       cg2d_iters =    14
(PID.TID 0000.0001)                         cg2d_res =    8.02205494664599E-14
(PID.TID 0000.0001) // =======================================================
(PID.TID 0000.0001) // Begin MONITOR dynamic field statistics
(PID.TID 0000.0001) // =======================================================
(PID.TID 0000.0001) %MON time_tsnumber                =                    39
(PID.TID 0000.0001) %MON time_secondsf                =   1.4040000000000E+05
(PID.TID 0000.0001) %MON dynstat_eta_max              =   4.5034560163449E-04
(PID.TID 0000.0001) %MON dynstat_eta_min              =   1.8911684333119E-04
(PID.TID 0000.0001) %MON dynstat_eta_mean             =   3.1070319782705E-04
(PID.TID 0000.0001) %MON dynstat_eta_sd               =   9.7953211156405E-05
(PID.TID 0000.0001) %MON dynstat_eta_del2             =   3.4651412237757E-05
(PID.TID 0000.0001) %MON dynstat_uvel_max             =   1.0073782483383E-04
(PID.TID 0000.0001) %MON dynstat_uvel_min             =  -4.2565782859824E-03
(PID.TID 0000.0001) %MON dynstat_uvel_mean            =  -1.5426963381700E-04
(PID.TID 0000.0001) %MON dynstat_uvel_sd              =   5.2306087375283E-04
(PID.TID 0000.0001) %MON dynstat_uvel_del2            =   1.0002824692407E-04
(PID.TID 0000.0001) %MON dynstat_vvel_max             =   8.9481537648329E-03
(PID.TID 0000.0001) %MON dynstat_vvel_min             =  -2.4329347394078E-04
(PID.TID 0000.0001) %MON dynstat_vvel_mean            =   1.7483575838391E-04
(PID.TID 0000.0001) %MON dynstat_vvel_sd              =   1.2226241770480E-03
(PID.TID 0000.0001) %MON dynstat_vvel_del2            =   1.0584414734003E-04
(PID.TID 0000.0001) %MON dynstat_wvel_max             =   6.7144307792623E-07
(PID.TID 0000.0001) %MON dynstat_wvel_min             =  -4.2285841142630E-07
(PID.TID 0000.0001) %MON dynstat_wvel_mean            =  -4.2067949220183E-10
(PID.TID 0000.0001) %MON dynstat_wvel_sd              =   4.0056899978557E-07
(PID.TID 0000.0001) %MON dynstat_wvel_del2            =   2.6418658600346E-07
(PID.TID 0000.0001) %MON dynstat_theta_max            =   4.0000000000000E+00
(PID.TID 0000.0001) %MON dynstat_theta_min            =   4.0000000000000E+00
(PID.TID 0000.0001) %MON dynstat_theta_mean           =   4.0000000000000E+00
(PID.TID 0000.0001) %MON dynstat_theta_sd             =   0.0000000000000E+00
(PID.TID 0000.0001) %MON dynstat_theta_del2           =   0.0000000000000E+00
(PID.TID 0000.0001) %MON dynstat_salt_max             =   3.5000000000000E+01
(PID.TID 0000.0001) %MON dynstat_salt_min             =   3.5000000000000E+01
(PID.TID 0000.0001) %MON dynstat_salt_mean            =   3.5000000000000E+01
(PID.TID 0000.0001) %MON dynstat_salt_sd              =   0.0000000000000E+00
(PID.TID 0000.0001) %MON dynstat_salt_del2            =   0.0000000000000E+00
(PID.TID 0000.0001) %MON dynstat_sst_max              =   4.0000000000000E+00
(PID.TID 0000.0001) %MON dynstat_sst_min              =   4.0000000000000E+00
(PID.TID 0000.0001) %MON dynstat_sst_mean             =   4.0000000000000E+00
(PID.TID 0000.0001) %MON dynstat_sst_sd               =   0.0000000000000E+00
(PID.TID 0000.0001) %MON dynstat_sst_del2             =   0.0000000000000E+00
(PID.TID 0000.0001) %MON dynstat_sss_max              =   3.5000000000000E+01
(PID.TID 0000.0001) %MON dynstat_sss_min              =   3.5000000000000E+01
(PID.TID 0000.0001) %MON dynstat_sss_mean             =   3.5000000000000E+01
(PID.TID 0000.0001) %MON dynstat_sss_sd               =   0.0000000000000E+00
(PID.TID 0000.0001) %MON dynstat_sss_del2             =   0.0000000000000E+00
(PID.TID 0000.0001) %MON extforcing_qnet_max          =   0.0000000000000E+00
(PID.TID 0000.0001) %MON extforcing_qnet_min          =   0.0000000000000E+00
(PID.TID 0000.0001) %MON extforcing_qnet_mean         =   0.0000000000000E+00
(PID.TID 0000.0001) %MON extforcing_qnet_sd           =   0.0000000000000E+00
(PID.TID 0000.0001) %MON extforcing_qnet_del2         =   0.0000000000000E+00
(PID.TID 0000.0001) %MON extforcing_qsw_max           =   0.0000000000000E+00
(PID.TID 0000.0001) %MON extforcing_qsw_min           =   0.0000000000000E+00
(PID.TID 0000.0001) %MON extforcing_qsw_mean          =   0.0000000000000E+00
(PID.TID 0000.0001) %MON extforcing_qsw_sd            =   0.0000000000000E+00
(PID.TID 0000.0001) %MON extforcing_qsw_del2          =   0.0000000000000E+00
(PID.TID 0000.0001) %MON extforcing_empmr_max         =   0.0000000000000E+00
(PID.TID 0000.0001) %MON extforcing_empmr_min         =   0.0000000000000E+00
(PID.TID 0000.0001) %MON extforcing_empmr_mean        =   0.0000000000000E+00
(PID.TID 0000.0001) %MON extforcing_empmr_sd          =   0.0000000000000E+00
(PID.TID 0000.0001) %MON extforcing_empmr_del2        =   0.0000000000000E+00
(PID.TID 0000.0001) %MON extforcing_fu_max            =   1.0000000000000E-01
(PID.TID 0000.0001) %MON extforcing_fu_min            =   1.0000000000000E-01
(PID.TID 0000.0001) %MON extforcing_fu_mean           =   1.0000000000000E-01
(PID.TID 0000.0001) %MON extforcing_fu_sd             =   0.0000000000000E+00
(PID.TID 0000.0001) %MON extforcing_fu_del2           =   0.0000000000000E+00
(PID.TID 0000.0001) %MON extforcing_fv_max            =   0.0000000000000E+00
(PID.TID 0000.0001) %MON extforcing_fv_min            =   0.0000000000000E+00
(PID.TID 0000.0001) %MON extforcing_fv_mean           =   0.0000000000000E+00
(PID.TID 0000.0001) %MON extforcing_fv_sd             =   0.0000000000000E+00
(PID.TID 0000.0001) %MON extforcing_fv_del2           =   0.0000000000000E+00
(PID.TID 0000.0001) %MON advcfl_uvel_max              =   7.6618409147683E-05
(PID.TID 0000.0001) %MON advcfl_vvel_max              =   1.6106676776699E-04
(PID.TID 0000.0001) %MON advcfl_wvel_max              =   8.8052440130296E-06
(PID.TID 0000.0001) %MON advcfl_W_hf_max              =   2.2013110032574E-05
(PID.TID 0000.0001) %MON pe_b_mean                    =   1.1828766839516E-10
(PID.TID 0000.0001) %MON ke_max                       =   3.9712021944032E-05
(PID.TID 0000.0001) %MON ke_mean                      =   9.1138460914059E-07
(PID.TID 0000.0001) %MON ke_vol                       =   4.4009158039362E+15
(PID.TID 0000.0001) %MON vort_r_min                   =  -5.7088005286285E-09
(PID.TID 0000.0001) %MON vort_r_max                   =   8.8597188653372E-09
(PID.TID 0000.0001) %MON vort_a_mean                  =  -1.1390240000000E-04
(PID.TID 0000.0001) %MON vort_a_sd                    =   3.7032337246497E-06
(PID.TID 0000.0001) %MON vort_p_mean                  =  -1.5528913309106E-04
(PID.TID 0000.0001) %MON vort_p_sd                    =   4.1188177224715E-05
(PID.TID 0000.0001) %MON surfExpan_theta_mean         =  -1.4252241131751E-07
(PID.TID 0000.0001) %MON surfExpan_salt_mean          =  -1.2470710990282E-06
(PID.TID 0000.0001) // =======================================================
(PID.TID 0000.0001) // End MONITOR dynamic field statistics
(PID.TID 0000.0001) // =======================================================
 cg2d: Sum(rhs),rhsMax =  -1.17513338209904E+00  2.56005946296686E-03
(PID.TID 0000.0001)                    cg2d_init_res =    1.70303769272598E-01
(PID.TID 0000.0001)                       cg2d_iters =    15
(PID.TID 0000.0001)                         cg2d_res =    3.53188413072705E-17
(PID.TID 0000.0001) // =======================================================
(PID.TID 0000.0001) // Begin MONITOR dynamic field statistics
(PID.TID 0000.0001) // =======================================================
(PID.TID 0000.0001) %MON time_tsnumber                =                    40
(PID.TID 0000.0001) %MON time_secondsf                =   1.4400000000000E+05
(PID.TID 0000.0001) %MON dynstat_eta_max              =   3.3618671171246E-04
(PID.TID 0000.0001) %MON dynstat_eta_min              =   7.3452956601215E-05
(PID.TID 0000.0001) %MON dynstat_eta_mean             =   1.9494505451389E-04
(PID.TID 0000.0001) %MON dynstat_eta_sd               =   9.7636356564956E-05
(PID.TID 0000.0001) %MON dynstat_eta_del2             =   3.4806470139478E-05
(PID.TID 0000.0001) %MON dynstat_uvel_max             =   1.0304063493548E-04
(PID.TID 0000.0001) %MON dynstat_uvel_min             =  -3.4007062766924E-03
(PID.TID 0000.0001) %MON dynstat_uvel_mean            =  -1.2595493304722E-04
(PID.TID 0000.0001) %MON dynstat_uvel_sd              =   4.1136354594119E-04
(PID.TID 0000.0001) %MON dynstat_uvel_del2            =   9.0351821200833E-05
(PID.TID 0000.0001) %MON dynstat_vvel_max             =   7.8976654804612E-03
(PID.TID 0000.0001) %MON dynstat_vvel_min             =  -6.2189972283734E-04
(PID.TID 0000.0001) %MON dynstat_vvel_mean            =   1.1061689174650E-04
(PID.TID 0000.0001) %MON dynstat_vvel_sd              =   1.0369581390319E-03
(PID.TID 0000.0001) %MON dynstat_vvel_del2            =   1.1675716029993E-04
(PID.TID 0000.0001) %MON dynstat_wvel_max             =   9.1954754062170E-07
(PID.TID 0000.0001) %MON dynstat_wvel_min             =  -7.9961774328637E-07
(PID.TID 0000.0001) %MON dynstat_wvel_mean            =  -1.0027950096052E-09
(PID.TID 0000.0001) %MON dynstat_wvel_sd              =   5.4692195454734E-07
(PID.TID 0000.0001) %MON dynstat_wvel_del2            =   2.9009893607469E-07
(PID.TID 0000.0001) %MON dynstat_theta_max            =   4.0000000000000E+00
(PID.TID 0000.0001) %MON dynstat_theta_min            =   4.0000000000000E+00
(PID.TID 0000.0001) %MON dynstat_theta_mean           =   4.0000000000000E+00
(PID.TID 0000.0001) %MON dynstat_theta_sd             =   0.0000000000000E+00
(PID.TID 0000.0001) %MON dynstat_theta_del2           =   0.0000000000000E+00
(PID.TID 0000.0001) %MON dynstat_salt_max             =   3.5000000000000E+01
(PID.TID 0000.0001) %MON dynstat_salt_min             =   3.5000000000000E+01
(PID.TID 0000.0001) %MON dynstat_salt_mean            =   3.5000000000000E+01
(PID.TID 0000.0001) %MON dynstat_salt_sd              =   0.0000000000000E+00
(PID.TID 0000.0001) %MON dynstat_salt_del2            =   0.0000000000000E+00
(PID.TID 0000.0001) %MON dynstat_sst_max              =   4.0000000000000E+00
(PID.TID 0000.0001) %MON dynstat_sst_min              =   4.0000000000000E+00
(PID.TID 0000.0001) %MON dynstat_sst_mean             =   4.0000000000000E+00
(PID.TID 0000.0001) %MON dynstat_sst_sd               =   0.0000000000000E+00
(PID.TID 0000.0001) %MON dynstat_sst_del2             =   0.0000000000000E+00
(PID.TID 0000.0001) %MON dynstat_sss_max              =   3.5000000000000E+01
(PID.TID 0000.0001) %MON dynstat_sss_min              =   3.5000000000000E+01
(PID.TID 0000.0001) %MON dynstat_sss_mean             =   3.5000000000000E+01
(PID.TID 0000.0001) %MON dynstat_sss_sd               =   0.0000000000000E+00
(PID.TID 0000.0001) %MON dynstat_sss_del2             =   0.0000000000000E+00
(PID.TID 0000.0001) %MON extforcing_qnet_max          =   0.0000000000000E+00
(PID.TID 0000.0001) %MON extforcing_qnet_min          =   0.0000000000000E+00
(PID.TID 0000.0001) %MON extforcing_qnet_mean         =   0.0000000000000E+00
(PID.TID 0000.0001) %MON extforcing_qnet_sd           =   0.0000000000000E+00
(PID.TID 0000.0001) %MON extforcing_qnet_del2         =   0.0000000000000E+00
(PID.TID 0000.0001) %MON extforcing_qsw_max           =   0.0000000000000E+00
(PID.TID 0000.0001) %MON extforcing_qsw_min           =   0.0000000000000E+00
(PID.TID 0000.0001) %MON extforcing_qsw_mean          =   0.0000000000000E+00
(PID.TID 0000.0001) %MON extforcing_qsw_sd            =   0.0000000000000E+00
(PID.TID 0000.0001) %MON extforcing_qsw_del2          =   0.0000000000000E+00
(PID.TID 0000.0001) %MON extforcing_empmr_max         =   0.0000000000000E+00
(PID.TID 0000.0001) %MON extforcing_empmr_min         =   0.0000000000000E+00
(PID.TID 0000.0001) %MON extforcing_empmr_mean        =   0.0000000000000E+00
(PID.TID 0000.0001) %MON extforcing_empmr_sd          =   0.0000000000000E+00
(PID.TID 0000.0001) %MON extforcing_empmr_del2        =   0.0000000000000E+00
(PID.TID 0000.0001) %MON extforcing_fu_max            =   1.0000000000000E-01
(PID.TID 0000.0001) %MON extforcing_fu_min            =   1.0000000000000E-01
(PID.TID 0000.0001) %MON extforcing_fu_mean           =   1.0000000000000E-01
(PID.TID 0000.0001) %MON extforcing_fu_sd             =   0.0000000000000E+00
(PID.TID 0000.0001) %MON extforcing_fu_del2           =   0.0000000000000E+00
(PID.TID 0000.0001) %MON extforcing_fv_max            =   0.0000000000000E+00
(PID.TID 0000.0001) %MON extforcing_fv_min            =   0.0000000000000E+00
(PID.TID 0000.0001) %MON extforcing_fv_mean           =   0.0000000000000E+00
(PID.TID 0000.0001) %MON extforcing_fv_sd             =   0.0000000000000E+00
(PID.TID 0000.0001) %MON extforcing_fv_del2           =   0.0000000000000E+00
(PID.TID 0000.0001) %MON advcfl_uvel_max              =   6.1212712980464E-05
(PID.TID 0000.0001) %MON advcfl_vvel_max              =   1.4215797864830E-04
(PID.TID 0000.0001) %MON advcfl_wvel_max              =   1.0906095276737E-05
(PID.TID 0000.0001) %MON advcfl_W_hf_max              =   2.7265238191843E-05
(PID.TID 0000.0001) %MON pe_b_mean                    =   5.2981291013728E-11
(PID.TID 0000.0001) %MON ke_max                       =   2.8414816428750E-05
(PID.TID 0000.0001) %MON ke_mean                      =   6.3630144546624E-07
(PID.TID 0000.0001) %MON ke_vol                       =   4.4009158039362E+15
(PID.TID 0000.0001) %MON vort_r_min                   =  -5.0089098426229E-09
(PID.TID 0000.0001) %MON vort_r_max                   =   7.9585512671537E-09
(PID.TID 0000.0001) %MON vort_a_mean                  =  -1.1390240000000E-04
(PID.TID 0000.0001) %MON vort_a_sd                    =   3.7032352322248E-06
(PID.TID 0000.0001) %MON vort_p_mean                  =  -1.5528913309106E-04
(PID.TID 0000.0001) %MON vort_p_sd                    =   4.1188176694006E-05
(PID.TID 0000.0001) %MON surfExpan_theta_mean         =  -1.2862015923685E-07
(PID.TID 0000.0001) %MON surfExpan_salt_mean          =  -1.1254263933224E-06
(PID.TID 0000.0001) // =======================================================
(PID.TID 0000.0001) // End MONITOR dynamic field statistics
(PID.TID 0000.0001) // =======================================================
 cg2d: Sum(rhs),rhsMax =  -7.11994618995375E-01  2.47855830238830E-03
(PID.TID 0000.0001)                    cg2d_init_res =    1.66204072489621E-01
(PID.TID 0000.0001)                       cg2d_iters =    15
(PID.TID 0000.0001)                         cg2d_res =    1.50532614834679E-17
(PID.TID 0000.0001) // =======================================================
(PID.TID 0000.0001) // Begin MONITOR dynamic field statistics
(PID.TID 0000.0001) // =======================================================
(PID.TID 0000.0001) %MON time_tsnumber                =                    41
(PID.TID 0000.0001) %MON time_secondsf                =   1.4760000000000E+05
(PID.TID 0000.0001) %MON dynstat_eta_max              =   2.5468368437505E-04
(PID.TID 0000.0001) %MON dynstat_eta_min              =  -4.0587359997663E-06
(PID.TID 0000.0001) %MON dynstat_eta_mean             =   1.1435386728601E-04
(PID.TID 0000.0001) %MON dynstat_eta_sd               =   9.4400343746696E-05
(PID.TID 0000.0001) %MON dynstat_eta_del2             =   3.3954721949698E-05
(PID.TID 0000.0001) %MON dynstat_uvel_max             =   1.0772944413370E-04
(PID.TID 0000.0001) %MON dynstat_uvel_min             =  -1.9398158373829E-03
(PID.TID 0000.0001) %MON dynstat_uvel_mean            =  -7.3226319066095E-05
(PID.TID 0000.0001) %MON dynstat_uvel_sd              =   2.2485732053053E-04
(PID.TID 0000.0001) %MON dynstat_uvel_del2            =   7.1651279754664E-05
(PID.TID 0000.0001) %MON dynstat_vvel_max             =   7.2311488601312E-03
(PID.TID 0000.0001) %MON dynstat_vvel_min             =  -8.8784190873109E-04
(PID.TID 0000.0001) %MON dynstat_vvel_mean            =   6.5533983052078E-05
(PID.TID 0000.0001) %MON dynstat_vvel_sd              =   9.2528892321542E-04
(PID.TID 0000.0001) %MON dynstat_vvel_del2            =   1.2496138519522E-04
(PID.TID 0000.0001) %MON dynstat_wvel_max             =   1.0970884730455E-06
(PID.TID 0000.0001) %MON dynstat_wvel_min             =  -1.1372462620431E-06
(PID.TID 0000.0001) %MON dynstat_wvel_mean            =  -1.3517683559507E-09
(PID.TID 0000.0001) %MON dynstat_wvel_sd              =   6.9830769148237E-07
(PID.TID 0000.0001) %MON dynstat_wvel_del2            =   3.0772575829949E-07
(PID.TID 0000.0001) %MON dynstat_theta_max            =   4.0000000000000E+00
(PID.TID 0000.0001) %MON dynstat_theta_min            =   4.0000000000000E+00
(PID.TID 0000.0001) %MON dynstat_theta_mean           =   4.0000000000000E+00
(PID.TID 0000.0001) %MON dynstat_theta_sd             =   0.0000000000000E+00
(PID.TID 0000.0001) %MON dynstat_theta_del2           =   0.0000000000000E+00
(PID.TID 0000.0001) %MON dynstat_salt_max             =   3.5000000000000E+01
(PID.TID 0000.0001) %MON dynstat_salt_min             =   3.5000000000000E+01
(PID.TID 0000.0001) %MON dynstat_salt_mean            =   3.5000000000000E+01
(PID.TID 0000.0001) %MON dynstat_salt_sd              =   0.0000000000000E+00
(PID.TID 0000.0001) %MON dynstat_salt_del2            =   0.0000000000000E+00
(PID.TID 0000.0001) %MON dynstat_sst_max              =   4.0000000000000E+00
(PID.TID 0000.0001) %MON dynstat_sst_min              =   4.0000000000000E+00
(PID.TID 0000.0001) %MON dynstat_sst_mean             =   4.0000000000000E+00
(PID.TID 0000.0001) %MON dynstat_sst_sd               =   0.0000000000000E+00
(PID.TID 0000.0001) %MON dynstat_sst_del2             =   0.0000000000000E+00
(PID.TID 0000.0001) %MON dynstat_sss_max              =   3.5000000000000E+01
(PID.TID 0000.0001) %MON dynstat_sss_min              =   3.5000000000000E+01
(PID.TID 0000.0001) %MON dynstat_sss_mean             =   3.5000000000000E+01
(PID.TID 0000.0001) %MON dynstat_sss_sd               =   0.0000000000000E+00
(PID.TID 0000.0001) %MON dynstat_sss_del2             =   0.0000000000000E+00
(PID.TID 0000.0001) %MON extforcing_qnet_max          =   0.0000000000000E+00
(PID.TID 0000.0001) %MON extforcing_qnet_min          =   0.0000000000000E+00
(PID.TID 0000.0001) %MON extforcing_qnet_mean         =   0.0000000000000E+00
(PID.TID 0000.0001) %MON extforcing_qnet_sd           =   0.0000000000000E+00
(PID.TID 0000.0001) %MON extforcing_qnet_del2         =   0.0000000000000E+00
(PID.TID 0000.0001) %MON extforcing_qsw_max           =   0.0000000000000E+00
(PID.TID 0000.0001) %MON extforcing_qsw_min           =   0.0000000000000E+00
(PID.TID 0000.0001) %MON extforcing_qsw_mean          =   0.0000000000000E+00
(PID.TID 0000.0001) %MON extforcing_qsw_sd            =   0.0000000000000E+00
(PID.TID 0000.0001) %MON extforcing_qsw_del2          =   0.0000000000000E+00
(PID.TID 0000.0001) %MON extforcing_empmr_max         =   0.0000000000000E+00
(PID.TID 0000.0001) %MON extforcing_empmr_min         =   0.0000000000000E+00
(PID.TID 0000.0001) %MON extforcing_empmr_mean        =   0.0000000000000E+00
(PID.TID 0000.0001) %MON extforcing_empmr_sd          =   0.0000000000000E+00
(PID.TID 0000.0001) %MON extforcing_empmr_del2        =   0.0000000000000E+00
(PID.TID 0000.0001) %MON extforcing_fu_max            =   1.0000000000000E-01
(PID.TID 0000.0001) %MON extforcing_fu_min            =   1.0000000000000E-01
(PID.TID 0000.0001) %MON extforcing_fu_mean           =   1.0000000000000E-01
(PID.TID 0000.0001) %MON extforcing_fu_sd             =   0.0000000000000E+00
(PID.TID 0000.0001) %MON extforcing_fu_del2           =   0.0000000000000E+00
(PID.TID 0000.0001) %MON extforcing_fv_max            =   0.0000000000000E+00
(PID.TID 0000.0001) %MON extforcing_fv_min            =   0.0000000000000E+00
(PID.TID 0000.0001) %MON extforcing_fv_mean           =   0.0000000000000E+00
(PID.TID 0000.0001) %MON extforcing_fv_sd             =   0.0000000000000E+00
(PID.TID 0000.0001) %MON extforcing_fv_del2           =   0.0000000000000E+00
(PID.TID 0000.0001) %MON advcfl_uvel_max              =   3.4916685072892E-05
(PID.TID 0000.0001) %MON advcfl_vvel_max              =   1.3016067948236E-04
(PID.TID 0000.0001) %MON advcfl_wvel_max              =   1.2496882489076E-05
(PID.TID 0000.0001) %MON advcfl_W_hf_max              =   3.1242206222689E-05
(PID.TID 0000.0001) %MON pe_b_mean                    =   2.4506780427468E-11
(PID.TID 0000.0001) %MON ke_max                       =   2.2700723499251E-05
(PID.TID 0000.0001) %MON ke_mean                      =   4.5818860137998E-07
(PID.TID 0000.0001) %MON ke_vol                       =   4.4009158039362E+15
(PID.TID 0000.0001) %MON vort_r_min                   =  -3.6263436104308E-09
(PID.TID 0000.0001) %MON vort_r_max                   =   6.2002458192522E-09
(PID.TID 0000.0001) %MON vort_a_mean                  =  -1.1390240000000E-04
(PID.TID 0000.0001) %MON vort_a_sd                    =   3.7032381077778E-06
(PID.TID 0000.0001) %MON vort_p_mean                  =  -1.5528913309106E-04
(PID.TID 0000.0001) %MON vort_p_sd                    =   4.1188175956578E-05
(PID.TID 0000.0001) %MON surfExpan_theta_mean         =  -8.9545763586536E-08
(PID.TID 0000.0001) %MON surfExpan_salt_mean          =  -7.8352543138219E-07
(PID.TID 0000.0001) // =======================================================
(PID.TID 0000.0001) // End MONITOR dynamic field statistics
(PID.TID 0000.0001) // =======================================================
 cg2d: Sum(rhs),rhsMax =  -5.26422152819422E-01  2.47042092565892E-03
(PID.TID 0000.0001)                    cg2d_init_res =    1.83289937324677E-01
(PID.TID 0000.0001)                       cg2d_iters =    15
(PID.TID 0000.0001)                         cg2d_res =    2.01933664113747E-18
(PID.TID 0000.0001) // =======================================================
(PID.TID 0000.0001) // Begin MONITOR dynamic field statistics
(PID.TID 0000.0001) // =======================================================
(PID.TID 0000.0001) %MON time_tsnumber                =                    42
(PID.TID 0000.0001) %MON time_secondsf                =   1.5120000000000E+05
(PID.TID 0000.0001) %MON dynstat_eta_max              =   2.2252560751128E-04
(PID.TID 0000.0001) %MON dynstat_eta_min              =  -2.8937942283534E-05
(PID.TID 0000.0001) %MON dynstat_eta_mean             =   8.4271382773197E-05
(PID.TID 0000.0001) %MON dynstat_eta_sd               =   8.9139487288527E-05
(PID.TID 0000.0001) %MON dynstat_eta_del2             =   3.2284069724822E-05
(PID.TID 0000.0001) %MON dynstat_uvel_max             =   6.8428718764752E-04
(PID.TID 0000.0001) %MON dynstat_uvel_min             =  -1.8571766814374E-04
(PID.TID 0000.0001) %MON dynstat_uvel_mean            =  -6.8831781478685E-06
(PID.TID 0000.0001) %MON dynstat_uvel_sd              =   8.7564580979023E-05
(PID.TID 0000.0001) %MON dynstat_uvel_del2            =   4.8715030673812E-05
(PID.TID 0000.0001) %MON dynstat_vvel_max             =   7.0695265504690E-03
(PID.TID 0000.0001) %MON dynstat_vvel_min             =  -9.8843448840226E-04
(PID.TID 0000.0001) %MON dynstat_vvel_mean            =   4.8095333994441E-05
(PID.TID 0000.0001) %MON dynstat_vvel_sd              =   8.9525923860367E-04
(PID.TID 0000.0001) %MON dynstat_vvel_del2            =   1.2706604601459E-04
(PID.TID 0000.0001) %MON dynstat_wvel_max             =   1.1759589625865E-06
(PID.TID 0000.0001) %MON dynstat_wvel_min             =  -1.3312663405466E-06
(PID.TID 0000.0001) %MON dynstat_wvel_mean            =  -1.3919885884121E-09
(PID.TID 0000.0001) %MON dynstat_wvel_sd              =   7.8607441253639E-07
(PID.TID 0000.0001) %MON dynstat_wvel_del2            =   3.1402707492365E-07
(PID.TID 0000.0001) %MON dynstat_theta_max            =   4.0000000000000E+00
(PID.TID 0000.0001) %MON dynstat_theta_min            =   4.0000000000000E+00
(PID.TID 0000.0001) %MON dynstat_theta_mean           =   4.0000000000000E+00
(PID.TID 0000.0001) %MON dynstat_theta_sd             =   0.0000000000000E+00
(PID.TID 0000.0001) %MON dynstat_theta_del2           =   0.0000000000000E+00
(PID.TID 0000.0001) %MON dynstat_salt_max             =   3.5000000000000E+01
(PID.TID 0000.0001) %MON dynstat_salt_min             =   3.5000000000000E+01
(PID.TID 0000.0001) %MON dynstat_salt_mean            =   3.5000000000000E+01
(PID.TID 0000.0001) %MON dynstat_salt_sd              =   0.0000000000000E+00
(PID.TID 0000.0001) %MON dynstat_salt_del2            =   0.0000000000000E+00
(PID.TID 0000.0001) %MON dynstat_sst_max              =   4.0000000000000E+00
(PID.TID 0000.0001) %MON dynstat_sst_min              =   4.0000000000000E+00
(PID.TID 0000.0001) %MON dynstat_sst_mean             =   4.0000000000000E+00
(PID.TID 0000.0001) %MON dynstat_sst_sd               =   0.0000000000000E+00
(PID.TID 0000.0001) %MON dynstat_sst_del2             =   0.0000000000000E+00
(PID.TID 0000.0001) %MON dynstat_sss_max              =   3.5000000000000E+01
(PID.TID 0000.0001) %MON dynstat_sss_min              =   3.5000000000000E+01
(PID.TID 0000.0001) %MON dynstat_sss_mean             =   3.5000000000000E+01
(PID.TID 0000.0001) %MON dynstat_sss_sd               =   0.0000000000000E+00
(PID.TID 0000.0001) %MON dynstat_sss_del2             =   0.0000000000000E+00
(PID.TID 0000.0001) %MON extforcing_qnet_max          =   0.0000000000000E+00
(PID.TID 0000.0001) %MON extforcing_qnet_min          =   0.0000000000000E+00
(PID.TID 0000.0001) %MON extforcing_qnet_mean         =   0.0000000000000E+00
(PID.TID 0000.0001) %MON extforcing_qnet_sd           =   0.0000000000000E+00
(PID.TID 0000.0001) %MON extforcing_qnet_del2         =   0.0000000000000E+00
(PID.TID 0000.0001) %MON extforcing_qsw_max           =   0.0000000000000E+00
(PID.TID 0000.0001) %MON extforcing_qsw_min           =   0.0000000000000E+00
(PID.TID 0000.0001) %MON extforcing_qsw_mean          =   0.0000000000000E+00
(PID.TID 0000.0001) %MON extforcing_qsw_sd            =   0.0000000000000E+00
(PID.TID 0000.0001) %MON extforcing_qsw_del2          =   0.0000000000000E+00
(PID.TID 0000.0001) %MON extforcing_empmr_max         =   0.0000000000000E+00
(PID.TID 0000.0001) %MON extforcing_empmr_min         =   0.0000000000000E+00
(PID.TID 0000.0001) %MON extforcing_empmr_mean        =   0.0000000000000E+00
(PID.TID 0000.0001) %MON extforcing_empmr_sd          =   0.0000000000000E+00
(PID.TID 0000.0001) %MON extforcing_empmr_del2        =   0.0000000000000E+00
(PID.TID 0000.0001) %MON extforcing_fu_max            =   1.0000000000000E-01
(PID.TID 0000.0001) %MON extforcing_fu_min            =   1.0000000000000E-01
(PID.TID 0000.0001) %MON extforcing_fu_mean           =   1.0000000000000E-01
(PID.TID 0000.0001) %MON extforcing_fu_sd             =   0.0000000000000E+00
(PID.TID 0000.0001) %MON extforcing_fu_del2           =   0.0000000000000E+00
(PID.TID 0000.0001) %MON extforcing_fv_max            =   0.0000000000000E+00
(PID.TID 0000.0001) %MON extforcing_fv_min            =   0.0000000000000E+00
(PID.TID 0000.0001) %MON extforcing_fv_mean           =   0.0000000000000E+00
(PID.TID 0000.0001) %MON extforcing_fv_sd             =   0.0000000000000E+00
(PID.TID 0000.0001) %MON extforcing_fv_del2           =   0.0000000000000E+00
(PID.TID 0000.0001) %MON advcfl_uvel_max              =   1.2317169377655E-05
(PID.TID 0000.0001) %MON advcfl_vvel_max              =   1.2725147790844E-04
(PID.TID 0000.0001) %MON advcfl_wvel_max              =   1.3339771950937E-05
(PID.TID 0000.0001) %MON advcfl_W_hf_max              =   3.3349429877342E-05
(PID.TID 0000.0001) %MON pe_b_mean                    =   1.6771067702025E-11
(PID.TID 0000.0001) %MON ke_max                       =   2.1618542873645E-05
(PID.TID 0000.0001) %MON ke_mean                      =   4.0575859972036E-07
(PID.TID 0000.0001) %MON ke_vol                       =   4.4009158039362E+15
(PID.TID 0000.0001) %MON vort_r_min                   =  -1.8534124327688E-09
(PID.TID 0000.0001) %MON vort_r_max                   =   3.9922493628286E-09
(PID.TID 0000.0001) %MON vort_a_mean                  =  -1.1390240000000E-04
(PID.TID 0000.0001) %MON vort_a_sd                    =   3.7032415188708E-06
(PID.TID 0000.0001) %MON vort_p_mean                  =  -1.5528913309106E-04
(PID.TID 0000.0001) %MON vort_p_sd                    =   4.1188175028259E-05
(PID.TID 0000.0001) %MON surfExpan_theta_mean         =  -3.3424982792011E-08
(PID.TID 0000.0001) %MON surfExpan_salt_mean          =  -2.9246859943010E-07
(PID.TID 0000.0001) // =======================================================
(PID.TID 0000.0001) // End MONITOR dynamic field statistics
(PID.TID 0000.0001) // =======================================================
 cg2d: Sum(rhs),rhsMax =  -6.78930216954431E-01  2.49676870345939E-03
(PID.TID 0000.0001)                    cg2d_init_res =    2.04160389229038E-01
(PID.TID 0000.0001)                       cg2d_iters =    14
(PID.TID 0000.0001)                         cg2d_res =    7.70981343985436E-14
(PID.TID 0000.0001) // =======================================================
(PID.TID 0000.0001) // Begin MONITOR dynamic field statistics
(PID.TID 0000.0001) // =======================================================
(PID.TID 0000.0001) %MON time_tsnumber                =                    43
(PID.TID 0000.0001) %MON time_secondsf                =   1.5480000000000E+05
(PID.TID 0000.0001) %MON dynstat_eta_max              =   2.4487136965648E-04
(PID.TID 0000.0001) %MON dynstat_eta_min              =   2.7060267130543E-06
(PID.TID 0000.0001) %MON dynstat_eta_mean             =   1.0984453529560E-04
(PID.TID 0000.0001) %MON dynstat_eta_sd               =   8.3135987926184E-05
(PID.TID 0000.0001) %MON dynstat_eta_del2             =   3.0175144501592E-05
(PID.TID 0000.0001) %MON dynstat_uvel_max             =   1.9367392859395E-03
(PID.TID 0000.0001) %MON dynstat_uvel_min             =  -1.3776201512520E-04
(PID.TID 0000.0001) %MON dynstat_uvel_mean            =   5.9796892108663E-05
(PID.TID 0000.0001) %MON dynstat_uvel_sd              =   2.6410908714614E-04
(PID.TID 0000.0001) %MON dynstat_uvel_del2            =   3.8868645145659E-05
(PID.TID 0000.0001) %MON dynstat_vvel_max             =   7.4293726621716E-03
(PID.TID 0000.0001) %MON dynstat_vvel_min             =  -9.0383334335557E-04
(PID.TID 0000.0001) %MON dynstat_vvel_mean            =   6.1225034925672E-05
(PID.TID 0000.0001) %MON dynstat_vvel_sd              =   9.4200721707208E-04
(PID.TID 0000.0001) %MON dynstat_vvel_del2            =   1.2279838068336E-04
(PID.TID 0000.0001) %MON dynstat_wvel_max             =   1.1470162714721E-06
(PID.TID 0000.0001) %MON dynstat_wvel_min             =  -1.3458040599346E-06
(PID.TID 0000.0001) %MON dynstat_wvel_mean            =  -1.1144812061468E-09
(PID.TID 0000.0001) %MON dynstat_wvel_sd              =   7.8620336582135E-07
(PID.TID 0000.0001) %MON dynstat_wvel_del2            =   3.0773023945216E-07
(PID.TID 0000.0001) %MON dynstat_theta_max            =   4.0000000000000E+00
(PID.TID 0000.0001) %MON dynstat_theta_min            =   4.0000000000000E+00
(PID.TID 0000.0001) %MON dynstat_theta_mean           =   4.0000000000000E+00
(PID.TID 0000.0001) %MON dynstat_theta_sd             =   0.0000000000000E+00
(PID.TID 0000.0001) %MON dynstat_theta_del2           =   0.0000000000000E+00
(PID.TID 0000.0001) %MON dynstat_salt_max             =   3.5000000000000E+01
(PID.TID 0000.0001) %MON dynstat_salt_min             =   3.5000000000000E+01
(PID.TID 0000.0001) %MON dynstat_salt_mean            =   3.5000000000000E+01
(PID.TID 0000.0001) %MON dynstat_salt_sd              =   0.0000000000000E+00
(PID.TID 0000.0001) %MON dynstat_salt_del2            =   0.0000000000000E+00
(PID.TID 0000.0001) %MON dynstat_sst_max              =   4.0000000000000E+00
(PID.TID 0000.0001) %MON dynstat_sst_min              =   4.0000000000000E+00
(PID.TID 0000.0001) %MON dynstat_sst_mean             =   4.0000000000000E+00
(PID.TID 0000.0001) %MON dynstat_sst_sd               =   0.0000000000000E+00
(PID.TID 0000.0001) %MON dynstat_sst_del2             =   0.0000000000000E+00
(PID.TID 0000.0001) %MON dynstat_sss_max              =   3.5000000000000E+01
(PID.TID 0000.0001) %MON dynstat_sss_min              =   3.5000000000000E+01
(PID.TID 0000.0001) %MON dynstat_sss_mean             =   3.5000000000000E+01
(PID.TID 0000.0001) %MON dynstat_sss_sd               =   0.0000000000000E+00
(PID.TID 0000.0001) %MON dynstat_sss_del2             =   0.0000000000000E+00
(PID.TID 0000.0001) %MON extforcing_qnet_max          =   0.0000000000000E+00
(PID.TID 0000.0001) %MON extforcing_qnet_min          =   0.0000000000000E+00
(PID.TID 0000.0001) %MON extforcing_qnet_mean         =   0.0000000000000E+00
(PID.TID 0000.0001) %MON extforcing_qnet_sd           =   0.0000000000000E+00
(PID.TID 0000.0001) %MON extforcing_qnet_del2         =   0.0000000000000E+00
(PID.TID 0000.0001) %MON extforcing_qsw_max           =   0.0000000000000E+00
(PID.TID 0000.0001) %MON extforcing_qsw_min           =   0.0000000000000E+00
(PID.TID 0000.0001) %MON extforcing_qsw_mean          =   0.0000000000000E+00
(PID.TID 0000.0001) %MON extforcing_qsw_sd            =   0.0000000000000E+00
(PID.TID 0000.0001) %MON extforcing_qsw_del2          =   0.0000000000000E+00
(PID.TID 0000.0001) %MON extforcing_empmr_max         =   0.0000000000000E+00
(PID.TID 0000.0001) %MON extforcing_empmr_min         =   0.0000000000000E+00
(PID.TID 0000.0001) %MON extforcing_empmr_mean        =   0.0000000000000E+00
(PID.TID 0000.0001) %MON extforcing_empmr_sd          =   0.0000000000000E+00
(PID.TID 0000.0001) %MON extforcing_empmr_del2        =   0.0000000000000E+00
(PID.TID 0000.0001) %MON extforcing_fu_max            =   1.0000000000000E-01
(PID.TID 0000.0001) %MON extforcing_fu_min            =   1.0000000000000E-01
(PID.TID 0000.0001) %MON extforcing_fu_mean           =   1.0000000000000E-01
(PID.TID 0000.0001) %MON extforcing_fu_sd             =   0.0000000000000E+00
(PID.TID 0000.0001) %MON extforcing_fu_del2           =   0.0000000000000E+00
(PID.TID 0000.0001) %MON extforcing_fv_max            =   0.0000000000000E+00
(PID.TID 0000.0001) %MON extforcing_fv_min            =   0.0000000000000E+00
(PID.TID 0000.0001) %MON extforcing_fv_mean           =   0.0000000000000E+00
(PID.TID 0000.0001) %MON extforcing_fv_sd             =   0.0000000000000E+00
(PID.TID 0000.0001) %MON extforcing_fv_del2           =   0.0000000000000E+00
(PID.TID 0000.0001) %MON advcfl_uvel_max              =   3.4861307146911E-05
(PID.TID 0000.0001) %MON advcfl_vvel_max              =   1.3372870791909E-04
(PID.TID 0000.0001) %MON advcfl_wvel_max              =   1.3344367679848E-05
(PID.TID 0000.0001) %MON advcfl_W_hf_max              =   3.3360919199620E-05
(PID.TID 0000.0001) %MON pe_b_mean                    =   2.1151101700339E-11
(PID.TID 0000.0001) %MON ke_max                       =   2.5199062463495E-05
(PID.TID 0000.0001) %MON ke_mean                      =   4.8222769006828E-07
(PID.TID 0000.0001) %MON ke_vol                       =   4.4009158039362E+15
(PID.TID 0000.0001) %MON vort_r_min                   =  -1.9464253529513E-09
(PID.TID 0000.0001) %MON vort_r_max                   =   1.7798465631248E-09
(PID.TID 0000.0001) %MON vort_a_mean                  =  -1.1390240000000E-04
(PID.TID 0000.0001) %MON vort_a_sd                    =   3.7032445066552E-06
(PID.TID 0000.0001) %MON vort_p_mean                  =  -1.5528913309106E-04
(PID.TID 0000.0001) %MON vort_p_sd                    =   4.1188173941906E-05
(PID.TID 0000.0001) %MON surfExpan_theta_mean         =   2.8414613913783E-08
(PID.TID 0000.0001) %MON surfExpan_salt_mean          =   2.4862787174560E-07
(PID.TID 0000.0001) // =======================================================
(PID.TID 0000.0001) // End MONITOR dynamic field statistics
(PID.TID 0000.0001) // =======================================================
 cg2d: Sum(rhs),rhsMax =  -1.12673722382132E+00  2.53652611463688E-03
(PID.TID 0000.0001)                    cg2d_init_res =    2.10800557296060E-01
(PID.TID 0000.0001)                       cg2d_iters =    14
(PID.TID 0000.0001)                         cg2d_res =    4.62794102853582E-14
(PID.TID 0000.0001) // =======================================================
(PID.TID 0000.0001) // Begin MONITOR dynamic field statistics
(PID.TID 0000.0001) // =======================================================
(PID.TID 0000.0001) %MON time_tsnumber                =                    44
(PID.TID 0000.0001) %MON time_secondsf                =   1.5840000000000E+05
(PID.TID 0000.0001) %MON dynstat_eta_max              =   3.1666775447807E-04
(PID.TID 0000.0001) %MON dynstat_eta_min              =   8.3602053153638E-05
(PID.TID 0000.0001) %MON dynstat_eta_mean             =   1.8519829583764E-04
(PID.TID 0000.0001) %MON dynstat_eta_sd               =   7.7708484700699E-05
(PID.TID 0000.0001) %MON dynstat_eta_del2             =   2.8342885646317E-05
(PID.TID 0000.0001) %MON dynstat_uvel_max             =   2.9281194214120E-03
(PID.TID 0000.0001) %MON dynstat_uvel_min             =  -1.4656166780207E-04
(PID.TID 0000.0001) %MON dynstat_uvel_mean            =   1.1371099660904E-04
(PID.TID 0000.0001) %MON dynstat_uvel_sd              =   4.3242025350750E-04
(PID.TID 0000.0001) %MON dynstat_uvel_del2            =   4.2419646966402E-05
(PID.TID 0000.0001) %MON dynstat_vvel_max             =   8.2234476716993E-03
(PID.TID 0000.0001) %MON dynstat_vvel_min             =  -6.5112184413479E-04
(PID.TID 0000.0001) %MON dynstat_vvel_mean            =   1.0178991779826E-04
(PID.TID 0000.0001) %MON dynstat_vvel_sd              =   1.0590687170343E-03
(PID.TID 0000.0001) %MON dynstat_vvel_del2            =   1.1305184955315E-04
(PID.TID 0000.0001) %MON dynstat_wvel_max             =   1.0208459767448E-06
(PID.TID 0000.0001) %MON dynstat_wvel_min             =  -1.1880686750035E-06
(PID.TID 0000.0001) %MON dynstat_wvel_mean            =  -5.7891121082425E-10
(PID.TID 0000.0001) %MON dynstat_wvel_sd              =   7.0217462400358E-07
(PID.TID 0000.0001) %MON dynstat_wvel_del2            =   2.8968677756699E-07
(PID.TID 0000.0001) %MON dynstat_theta_max            =   4.0000000000000E+00
(PID.TID 0000.0001) %MON dynstat_theta_min            =   4.0000000000000E+00
(PID.TID 0000.0001) %MON dynstat_theta_mean           =   4.0000000000000E+00
(PID.TID 0000.0001) %MON dynstat_theta_sd             =   0.0000000000000E+00
(PID.TID 0000.0001) %MON dynstat_theta_del2           =   0.0000000000000E+00
(PID.TID 0000.0001) %MON dynstat_salt_max             =   3.5000000000000E+01
(PID.TID 0000.0001) %MON dynstat_salt_min             =   3.5000000000000E+01
(PID.TID 0000.0001) %MON dynstat_salt_mean            =   3.5000000000000E+01
(PID.TID 0000.0001) %MON dynstat_salt_sd              =   0.0000000000000E+00
(PID.TID 0000.0001) %MON dynstat_salt_del2            =   0.0000000000000E+00
(PID.TID 0000.0001) %MON dynstat_sst_max              =   4.0000000000000E+00
(PID.TID 0000.0001) %MON dynstat_sst_min              =   4.0000000000000E+00
(PID.TID 0000.0001) %MON dynstat_sst_mean             =   4.0000000000000E+00
(PID.TID 0000.0001) %MON dynstat_sst_sd               =   0.0000000000000E+00
(PID.TID 0000.0001) %MON dynstat_sst_del2             =   0.0000000000000E+00
(PID.TID 0000.0001) %MON dynstat_sss_max              =   3.5000000000000E+01
(PID.TID 0000.0001) %MON dynstat_sss_min              =   3.5000000000000E+01
(PID.TID 0000.0001) %MON dynstat_sss_mean             =   3.5000000000000E+01
(PID.TID 0000.0001) %MON dynstat_sss_sd               =   0.0000000000000E+00
(PID.TID 0000.0001) %MON dynstat_sss_del2             =   0.0000000000000E+00
(PID.TID 0000.0001) %MON extforcing_qnet_max          =   0.0000000000000E+00
(PID.TID 0000.0001) %MON extforcing_qnet_min          =   0.0000000000000E+00
(PID.TID 0000.0001) %MON extforcing_qnet_mean         =   0.0000000000000E+00
(PID.TID 0000.0001) %MON extforcing_qnet_sd           =   0.0000000000000E+00
(PID.TID 0000.0001) %MON extforcing_qnet_del2         =   0.0000000000000E+00
(PID.TID 0000.0001) %MON extforcing_qsw_max           =   0.0000000000000E+00
(PID.TID 0000.0001) %MON extforcing_qsw_min           =   0.0000000000000E+00
(PID.TID 0000.0001) %MON extforcing_qsw_mean          =   0.0000000000000E+00
(PID.TID 0000.0001) %MON extforcing_qsw_sd            =   0.0000000000000E+00
(PID.TID 0000.0001) %MON extforcing_qsw_del2          =   0.0000000000000E+00
(PID.TID 0000.0001) %MON extforcing_empmr_max         =   0.0000000000000E+00
(PID.TID 0000.0001) %MON extforcing_empmr_min         =   0.0000000000000E+00
(PID.TID 0000.0001) %MON extforcing_empmr_mean        =   0.0000000000000E+00
(PID.TID 0000.0001) %MON extforcing_empmr_sd          =   0.0000000000000E+00
(PID.TID 0000.0001) %MON extforcing_empmr_del2        =   0.0000000000000E+00
(PID.TID 0000.0001) %MON extforcing_fu_max            =   1.0000000000000E-01
(PID.TID 0000.0001) %MON extforcing_fu_min            =   1.0000000000000E-01
(PID.TID 0000.0001) %MON extforcing_fu_mean           =   1.0000000000000E-01
(PID.TID 0000.0001) %MON extforcing_fu_sd             =   0.0000000000000E+00
(PID.TID 0000.0001) %MON extforcing_fu_del2           =   0.0000000000000E+00
(PID.TID 0000.0001) %MON extforcing_fv_max            =   0.0000000000000E+00
(PID.TID 0000.0001) %MON extforcing_fv_min            =   0.0000000000000E+00
(PID.TID 0000.0001) %MON extforcing_fv_mean           =   0.0000000000000E+00
(PID.TID 0000.0001) %MON extforcing_fv_sd             =   0.0000000000000E+00
(PID.TID 0000.0001) %MON extforcing_fv_del2           =   0.0000000000000E+00
(PID.TID 0000.0001) %MON advcfl_uvel_max              =   5.2706149585416E-05
(PID.TID 0000.0001) %MON advcfl_vvel_max              =   1.4802205809059E-04
(PID.TID 0000.0001) %MON advcfl_wvel_max              =   1.2572946686590E-05
(PID.TID 0000.0001) %MON advcfl_W_hf_max              =   3.1432366716476E-05
(PID.TID 0000.0001) %MON pe_b_mean                    =   4.4957249591229E-11
(PID.TID 0000.0001) %MON ke_max                       =   3.2609705062303E-05
(PID.TID 0000.0001) %MON ke_mean                      =   6.6595260057966E-07
(PID.TID 0000.0001) %MON ke_vol                       =   4.4009158039362E+15
(PID.TID 0000.0001) %MON vort_r_min                   =  -2.8103451770616E-09
(PID.TID 0000.0001) %MON vort_r_max                   =   2.1104828650369E-09
(PID.TID 0000.0001) %MON vort_a_mean                  =  -1.1390240000000E-04
(PID.TID 0000.0001) %MON vort_a_sd                    =   3.7032461727752E-06
(PID.TID 0000.0001) %MON vort_p_mean                  =  -1.5528913309106E-04
(PID.TID 0000.0001) %MON vort_p_sd                    =   4.1188172739938E-05
(PID.TID 0000.0001) %MON surfExpan_theta_mean         =   8.3726400602269E-08
(PID.TID 0000.0001) %MON surfExpan_salt_mean          =   7.3260600526986E-07
(PID.TID 0000.0001) // =======================================================
(PID.TID 0000.0001) // End MONITOR dynamic field statistics
(PID.TID 0000.0001) // =======================================================
 cg2d: Sum(rhs),rhsMax =  -1.75981625889742E+00  2.58504763845508E-03
(PID.TID 0000.0001)                    cg2d_init_res =    1.97013199558804E-01
(PID.TID 0000.0001)                       cg2d_iters =    14
(PID.TID 0000.0001)                         cg2d_res =    5.41778544571011E-14
(PID.TID 0000.0001) // =======================================================
(PID.TID 0000.0001) // Begin MONITOR dynamic field statistics
(PID.TID 0000.0001) // =======================================================
(PID.TID 0000.0001) %MON time_tsnumber                =                    45
(PID.TID 0000.0001) %MON time_secondsf                =   1.6200000000000E+05
(PID.TID 0000.0001) %MON dynstat_eta_max              =   4.2322983321593E-04
(PID.TID 0000.0001) %MON dynstat_eta_min              =   1.9694726721248E-04
(PID.TID 0000.0001) %MON dynstat_eta_mean             =   2.9478873439871E-04
(PID.TID 0000.0001) %MON dynstat_eta_sd               =   7.3871397314090E-05
(PID.TID 0000.0001) %MON dynstat_eta_del2             =   2.7226425706700E-05
(PID.TID 0000.0001) %MON dynstat_uvel_max             =   3.6227317665624E-03
(PID.TID 0000.0001) %MON dynstat_uvel_min             =  -1.4919447519398E-04
(PID.TID 0000.0001) %MON dynstat_uvel_mean            =   1.4450146575496E-04
(PID.TID 0000.0001) %MON dynstat_uvel_sd              =   5.2093806214563E-04
(PID.TID 0000.0001) %MON dynstat_uvel_del2            =   5.0829833431778E-05
(PID.TID 0000.0001) %MON dynstat_vvel_max             =   9.2816444893372E-03
(PID.TID 0000.0001) %MON dynstat_vvel_min             =  -2.8093124181476E-04
(PID.TID 0000.0001) %MON dynstat_vvel_mean            =   1.6132489079383E-04
(PID.TID 0000.0001) %MON dynstat_vvel_sd              =   1.2300110523623E-03
(PID.TID 0000.0001) %MON dynstat_vvel_del2            =   1.0068683263138E-04
(PID.TID 0000.0001) %MON dynstat_wvel_max             =   8.2488045505658E-07
(PID.TID 0000.0001) %MON dynstat_wvel_min             =  -9.0717917638135E-07
(PID.TID 0000.0001) %MON dynstat_wvel_mean            =   9.8921173025021E-11
(PID.TID 0000.0001) %MON dynstat_wvel_sd              =   5.5924222212058E-07
(PID.TID 0000.0001) %MON dynstat_wvel_del2            =   2.6285529981524E-07
(PID.TID 0000.0001) %MON dynstat_theta_max            =   4.0000000000000E+00
(PID.TID 0000.0001) %MON dynstat_theta_min            =   4.0000000000000E+00
(PID.TID 0000.0001) %MON dynstat_theta_mean           =   4.0000000000000E+00
(PID.TID 0000.0001) %MON dynstat_theta_sd             =   0.0000000000000E+00
(PID.TID 0000.0001) %MON dynstat_theta_del2           =   0.0000000000000E+00
(PID.TID 0000.0001) %MON dynstat_salt_max             =   3.5000000000000E+01
(PID.TID 0000.0001) %MON dynstat_salt_min             =   3.5000000000000E+01
(PID.TID 0000.0001) %MON dynstat_salt_mean            =   3.5000000000000E+01
(PID.TID 0000.0001) %MON dynstat_salt_sd              =   0.0000000000000E+00
(PID.TID 0000.0001) %MON dynstat_salt_del2            =   0.0000000000000E+00
(PID.TID 0000.0001) %MON dynstat_sst_max              =   4.0000000000000E+00
(PID.TID 0000.0001) %MON dynstat_sst_min              =   4.0000000000000E+00
(PID.TID 0000.0001) %MON dynstat_sst_mean             =   4.0000000000000E+00
(PID.TID 0000.0001) %MON dynstat_sst_sd               =   0.0000000000000E+00
(PID.TID 0000.0001) %MON dynstat_sst_del2             =   0.0000000000000E+00
(PID.TID 0000.0001) %MON dynstat_sss_max              =   3.5000000000000E+01
(PID.TID 0000.0001) %MON dynstat_sss_min              =   3.5000000000000E+01
(PID.TID 0000.0001) %MON dynstat_sss_mean             =   3.5000000000000E+01
(PID.TID 0000.0001) %MON dynstat_sss_sd               =   0.0000000000000E+00
(PID.TID 0000.0001) %MON dynstat_sss_del2             =   0.0000000000000E+00
(PID.TID 0000.0001) %MON extforcing_qnet_max          =   0.0000000000000E+00
(PID.TID 0000.0001) %MON extforcing_qnet_min          =   0.0000000000000E+00
(PID.TID 0000.0001) %MON extforcing_qnet_mean         =   0.0000000000000E+00
(PID.TID 0000.0001) %MON extforcing_qnet_sd           =   0.0000000000000E+00
(PID.TID 0000.0001) %MON extforcing_qnet_del2         =   0.0000000000000E+00
(PID.TID 0000.0001) %MON extforcing_qsw_max           =   0.0000000000000E+00
(PID.TID 0000.0001) %MON extforcing_qsw_min           =   0.0000000000000E+00
(PID.TID 0000.0001) %MON extforcing_qsw_mean          =   0.0000000000000E+00
(PID.TID 0000.0001) %MON extforcing_qsw_sd            =   0.0000000000000E+00
(PID.TID 0000.0001) %MON extforcing_qsw_del2          =   0.0000000000000E+00
(PID.TID 0000.0001) %MON extforcing_empmr_max         =   0.0000000000000E+00
(PID.TID 0000.0001) %MON extforcing_empmr_min         =   0.0000000000000E+00
(PID.TID 0000.0001) %MON extforcing_empmr_mean        =   0.0000000000000E+00
(PID.TID 0000.0001) %MON extforcing_empmr_sd          =   0.0000000000000E+00
(PID.TID 0000.0001) %MON extforcing_empmr_del2        =   0.0000000000000E+00
(PID.TID 0000.0001) %MON extforcing_fu_max            =   1.0000000000000E-01
(PID.TID 0000.0001) %MON extforcing_fu_min            =   1.0000000000000E-01
(PID.TID 0000.0001) %MON extforcing_fu_mean           =   1.0000000000000E-01
(PID.TID 0000.0001) %MON extforcing_fu_sd             =   0.0000000000000E+00
(PID.TID 0000.0001) %MON extforcing_fu_del2           =   0.0000000000000E+00
(PID.TID 0000.0001) %MON extforcing_fv_max            =   0.0000000000000E+00
(PID.TID 0000.0001) %MON extforcing_fv_min            =   0.0000000000000E+00
(PID.TID 0000.0001) %MON extforcing_fv_mean           =   0.0000000000000E+00
(PID.TID 0000.0001) %MON extforcing_fv_sd             =   0.0000000000000E+00
(PID.TID 0000.0001) %MON extforcing_fv_del2           =   0.0000000000000E+00
(PID.TID 0000.0001) %MON advcfl_uvel_max              =   6.5209171798123E-05
(PID.TID 0000.0001) %MON advcfl_vvel_max              =   1.6706960080807E-04
(PID.TID 0000.0001) %MON advcfl_wvel_max              =   1.1218287147483E-05
(PID.TID 0000.0001) %MON advcfl_W_hf_max              =   2.8045717868707E-05
(PID.TID 0000.0001) %MON pe_b_mean                    =   1.0293606497127E-10
(PID.TID 0000.0001) %MON ke_max                       =   4.3529780701533E-05
(PID.TID 0000.0001) %MON ke_mean                      =   9.1560502376020E-07
(PID.TID 0000.0001) %MON ke_vol                       =   4.4009158039362E+15
(PID.TID 0000.0001) %MON vort_r_min                   =  -3.4194835641020E-09
(PID.TID 0000.0001) %MON vort_r_max                   =   3.2071615184949E-09
(PID.TID 0000.0001) %MON vort_a_mean                  =  -1.1390240000000E-04
(PID.TID 0000.0001) %MON vort_a_sd                    =   3.7032458628676E-06
(PID.TID 0000.0001) %MON vort_p_mean                  =  -1.5528913309106E-04
(PID.TID 0000.0001) %MON vort_p_sd                    =   4.1188171468616E-05
(PID.TID 0000.0001) %MON surfExpan_theta_mean         =   1.2176715395674E-07
(PID.TID 0000.0001) %MON surfExpan_salt_mean          =   1.0654625971215E-06
(PID.TID 0000.0001) // =======================================================
(PID.TID 0000.0001) // End MONITOR dynamic field statistics
(PID.TID 0000.0001) // =======================================================
 cg2d: Sum(rhs),rhsMax =  -2.43940636469665E+00  2.63568090232621E-03
(PID.TID 0000.0001)                    cg2d_init_res =    1.68613104169935E-01
(PID.TID 0000.0001)                       cg2d_iters =    14
(PID.TID 0000.0001)                         cg2d_res =    2.17775073526408E-15
(PID.TID 0000.0001) // =======================================================
(PID.TID 0000.0001) // Begin MONITOR dynamic field statistics
(PID.TID 0000.0001) // =======================================================
(PID.TID 0000.0001) %MON time_tsnumber                =                    46
(PID.TID 0000.0001) %MON time_secondsf                =   1.6560000000000E+05
(PID.TID 0000.0001) %MON dynstat_eta_max              =   5.4329511069363E-04
(PID.TID 0000.0001) %MON dynstat_eta_min              =   3.1987974594098E-04
(PID.TID 0000.0001) %MON dynstat_eta_mean             =   4.1663139059517E-04
(PID.TID 0000.0001) %MON dynstat_eta_sd               =   7.2173010373134E-05
(PID.TID 0000.0001) %MON dynstat_eta_del2             =   2.7080236690963E-05
(PID.TID 0000.0001) %MON dynstat_uvel_max             =   3.6433398987173E-03
(PID.TID 0000.0001) %MON dynstat_uvel_min             =  -1.4562026096571E-04
(PID.TID 0000.0001) %MON dynstat_uvel_mean            =   1.4654052736812E-04
(PID.TID 0000.0001) %MON dynstat_uvel_sd              =   5.1265774874673E-04
(PID.TID 0000.0001) %MON dynstat_uvel_del2            =   5.5066679820647E-05
(PID.TID 0000.0001) %MON dynstat_vvel_max             =   1.0387420109240E-02
(PID.TID 0000.0001) %MON dynstat_vvel_min             =  -6.1648716159104E-05
(PID.TID 0000.0001) %MON dynstat_vvel_mean            =   2.2779245598864E-04
(PID.TID 0000.0001) %MON dynstat_vvel_sd              =   1.4217748066244E-03
(PID.TID 0000.0001) %MON dynstat_vvel_del2            =   9.6040589564273E-05
(PID.TID 0000.0001) %MON dynstat_wvel_max             =   6.6387252486672E-07
(PID.TID 0000.0001) %MON dynstat_wvel_min             =  -6.1685824621356E-07
(PID.TID 0000.0001) %MON dynstat_wvel_mean            =   7.7154289817365E-10
(PID.TID 0000.0001) %MON dynstat_wvel_sd              =   4.0292309822843E-07
(PID.TID 0000.0001) %MON dynstat_wvel_del2            =   2.3213356150860E-07
(PID.TID 0000.0001) %MON dynstat_theta_max            =   4.0000000000000E+00
(PID.TID 0000.0001) %MON dynstat_theta_min            =   4.0000000000000E+00
(PID.TID 0000.0001) %MON dynstat_theta_mean           =   4.0000000000000E+00
(PID.TID 0000.0001) %MON dynstat_theta_sd             =   0.0000000000000E+00
(PID.TID 0000.0001) %MON dynstat_theta_del2           =   0.0000000000000E+00
(PID.TID 0000.0001) %MON dynstat_salt_max             =   3.5000000000000E+01
(PID.TID 0000.0001) %MON dynstat_salt_min             =   3.5000000000000E+01
(PID.TID 0000.0001) %MON dynstat_salt_mean            =   3.5000000000000E+01
(PID.TID 0000.0001) %MON dynstat_salt_sd              =   0.0000000000000E+00
(PID.TID 0000.0001) %MON dynstat_salt_del2            =   0.0000000000000E+00
(PID.TID 0000.0001) %MON dynstat_sst_max              =   4.0000000000000E+00
(PID.TID 0000.0001) %MON dynstat_sst_min              =   4.0000000000000E+00
(PID.TID 0000.0001) %MON dynstat_sst_mean             =   4.0000000000000E+00
(PID.TID 0000.0001) %MON dynstat_sst_sd               =   0.0000000000000E+00
(PID.TID 0000.0001) %MON dynstat_sst_del2             =   0.0000000000000E+00
(PID.TID 0000.0001) %MON dynstat_sss_max              =   3.5000000000000E+01
(PID.TID 0000.0001) %MON dynstat_sss_min              =   3.5000000000000E+01
(PID.TID 0000.0001) %MON dynstat_sss_mean             =   3.5000000000000E+01
(PID.TID 0000.0001) %MON dynstat_sss_sd               =   0.0000000000000E+00
(PID.TID 0000.0001) %MON dynstat_sss_del2             =   0.0000000000000E+00
(PID.TID 0000.0001) %MON extforcing_qnet_max          =   0.0000000000000E+00
(PID.TID 0000.0001) %MON extforcing_qnet_min          =   0.0000000000000E+00
(PID.TID 0000.0001) %MON extforcing_qnet_mean         =   0.0000000000000E+00
(PID.TID 0000.0001) %MON extforcing_qnet_sd           =   0.0000000000000E+00
(PID.TID 0000.0001) %MON extforcing_qnet_del2         =   0.0000000000000E+00
(PID.TID 0000.0001) %MON extforcing_qsw_max           =   0.0000000000000E+00
(PID.TID 0000.0001) %MON extforcing_qsw_min           =   0.0000000000000E+00
(PID.TID 0000.0001) %MON extforcing_qsw_mean          =   0.0000000000000E+00
(PID.TID 0000.0001) %MON extforcing_qsw_sd            =   0.0000000000000E+00
(PID.TID 0000.0001) %MON extforcing_qsw_del2          =   0.0000000000000E+00
(PID.TID 0000.0001) %MON extforcing_empmr_max         =   0.0000000000000E+00
(PID.TID 0000.0001) %MON extforcing_empmr_min         =   0.0000000000000E+00
(PID.TID 0000.0001) %MON extforcing_empmr_mean        =   0.0000000000000E+00
(PID.TID 0000.0001) %MON extforcing_empmr_sd          =   0.0000000000000E+00
(PID.TID 0000.0001) %MON extforcing_empmr_del2        =   0.0000000000000E+00
(PID.TID 0000.0001) %MON extforcing_fu_max            =   1.0000000000000E-01
(PID.TID 0000.0001) %MON extforcing_fu_min            =   1.0000000000000E-01
(PID.TID 0000.0001) %MON extforcing_fu_mean           =   1.0000000000000E-01
(PID.TID 0000.0001) %MON extforcing_fu_sd             =   0.0000000000000E+00
(PID.TID 0000.0001) %MON extforcing_fu_del2           =   0.0000000000000E+00
(PID.TID 0000.0001) %MON extforcing_fv_max            =   0.0000000000000E+00
(PID.TID 0000.0001) %MON extforcing_fv_min            =   0.0000000000000E+00
(PID.TID 0000.0001) %MON extforcing_fv_mean           =   0.0000000000000E+00
(PID.TID 0000.0001) %MON extforcing_fv_sd             =   0.0000000000000E+00
(PID.TID 0000.0001) %MON extforcing_fv_del2           =   0.0000000000000E+00
(PID.TID 0000.0001) %MON advcfl_uvel_max              =   6.5580118176912E-05
(PID.TID 0000.0001) %MON advcfl_vvel_max              =   1.8697356196632E-04
(PID.TID 0000.0001) %MON advcfl_wvel_max              =   9.7605552894870E-06
(PID.TID 0000.0001) %MON advcfl_W_hf_max              =   2.3899410895202E-05
(PID.TID 0000.0001) %MON pe_b_mean                    =   1.9926947520407E-10
(PID.TID 0000.0001) %MON ke_max                       =   5.5289373062042E-05
(PID.TID 0000.0001) %MON ke_mean                      =   1.1788125486344E-06
(PID.TID 0000.0001) %MON ke_vol                       =   4.4009158039362E+15
(PID.TID 0000.0001) %MON vort_r_min                   =  -3.7115482384941E-09
(PID.TID 0000.0001) %MON vort_r_max                   =   3.7080858229357E-09
(PID.TID 0000.0001) %MON vort_a_mean                  =  -1.1390240000000E-04
(PID.TID 0000.0001) %MON vort_a_sd                    =   3.7032433078680E-06
(PID.TID 0000.0001) %MON vort_p_mean                  =  -1.5528913309106E-04
(PID.TID 0000.0001) %MON vort_p_sd                    =   4.1188170174478E-05
(PID.TID 0000.0001) %MON surfExpan_theta_mean         =   1.3538072910718E-07
(PID.TID 0000.0001) %MON surfExpan_salt_mean          =   1.1845813796878E-06
(PID.TID 0000.0001) // =======================================================
(PID.TID 0000.0001) // End MONITOR dynamic field statistics
(PID.TID 0000.0001) // =======================================================
 cg2d: Sum(rhs),rhsMax =  -3.03203010255963E+00  2.68092813759027E-03
(PID.TID 0000.0001)                    cg2d_init_res =    1.41602629532586E-01
(PID.TID 0000.0001)                       cg2d_iters =    14
(PID.TID 0000.0001)                         cg2d_res =    8.45675534212955E-14
(PID.TID 0000.0001) // =======================================================
(PID.TID 0000.0001) // Begin MONITOR dynamic field statistics
(PID.TID 0000.0001) // =======================================================
(PID.TID 0000.0001) %MON time_tsnumber                =                    47
(PID.TID 0000.0001) %MON time_secondsf                =   1.6920000000000E+05
(PID.TID 0000.0001) %MON dynstat_eta_max              =   6.5331481856069E-04
(PID.TID 0000.0001) %MON dynstat_eta_min              =   4.2807910728800E-04
(PID.TID 0000.0001) %MON dynstat_eta_mean             =   5.2673683207504E-04
(PID.TID 0000.0001) %MON dynstat_eta_sd               =   7.2768406840648E-05
(PID.TID 0000.0001) %MON dynstat_eta_del2             =   2.7291028990894E-05
(PID.TID 0000.0001) %MON dynstat_uvel_max             =   3.0262331578397E-03
(PID.TID 0000.0001) %MON dynstat_uvel_min             =  -1.3699046845736E-04
(PID.TID 0000.0001) %MON dynstat_uvel_mean            =   1.1994988501757E-04
(PID.TID 0000.0001) %MON dynstat_uvel_sd              =   4.1295893163170E-04
(PID.TID 0000.0001) %MON dynstat_uvel_del2            =   5.4588224261340E-05
(PID.TID 0000.0001) %MON dynstat_vvel_max             =   1.1321959374815E-02
(PID.TID 0000.0001) %MON dynstat_vvel_min             =  -6.6080699475615E-05
(PID.TID 0000.0001) %MON dynstat_vvel_mean            =   2.8801201380766E-04
(PID.TID 0000.0001) %MON dynstat_vvel_sd              =   1.5929308321861E-03
(PID.TID 0000.0001) %MON dynstat_vvel_del2            =   9.4751969484958E-05
(PID.TID 0000.0001) %MON dynstat_wvel_max             =   5.6839936387549E-07
(PID.TID 0000.0001) %MON dynstat_wvel_min             =  -4.9924460782616E-07
(PID.TID 0000.0001) %MON dynstat_wvel_mean            =   1.2911927677212E-09
(PID.TID 0000.0001) %MON dynstat_wvel_sd              =   3.0052039275360E-07
(PID.TID 0000.0001) %MON dynstat_wvel_del2            =   2.0485865052547E-07
(PID.TID 0000.0001) %MON dynstat_theta_max            =   4.0000000000000E+00
(PID.TID 0000.0001) %MON dynstat_theta_min            =   4.0000000000000E+00
(PID.TID 0000.0001) %MON dynstat_theta_mean           =   4.0000000000000E+00
(PID.TID 0000.0001) %MON dynstat_theta_sd             =   0.0000000000000E+00
(PID.TID 0000.0001) %MON dynstat_theta_del2           =   0.0000000000000E+00
(PID.TID 0000.0001) %MON dynstat_salt_max             =   3.5000000000000E+01
(PID.TID 0000.0001) %MON dynstat_salt_min             =   3.5000000000000E+01
(PID.TID 0000.0001) %MON dynstat_salt_mean            =   3.5000000000000E+01
(PID.TID 0000.0001) %MON dynstat_salt_sd              =   0.0000000000000E+00
(PID.TID 0000.0001) %MON dynstat_salt_del2            =   0.0000000000000E+00
(PID.TID 0000.0001) %MON dynstat_sst_max              =   4.0000000000000E+00
(PID.TID 0000.0001) %MON dynstat_sst_min              =   4.0000000000000E+00
(PID.TID 0000.0001) %MON dynstat_sst_mean             =   4.0000000000000E+00
(PID.TID 0000.0001) %MON dynstat_sst_sd               =   0.0000000000000E+00
(PID.TID 0000.0001) %MON dynstat_sst_del2             =   0.0000000000000E+00
(PID.TID 0000.0001) %MON dynstat_sss_max              =   3.5000000000000E+01
(PID.TID 0000.0001) %MON dynstat_sss_min              =   3.5000000000000E+01
(PID.TID 0000.0001) %MON dynstat_sss_mean             =   3.5000000000000E+01
(PID.TID 0000.0001) %MON dynstat_sss_sd               =   0.0000000000000E+00
(PID.TID 0000.0001) %MON dynstat_sss_del2             =   0.0000000000000E+00
(PID.TID 0000.0001) %MON extforcing_qnet_max          =   0.0000000000000E+00
(PID.TID 0000.0001) %MON extforcing_qnet_min          =   0.0000000000000E+00
(PID.TID 0000.0001) %MON extforcing_qnet_mean         =   0.0000000000000E+00
(PID.TID 0000.0001) %MON extforcing_qnet_sd           =   0.0000000000000E+00
(PID.TID 0000.0001) %MON extforcing_qnet_del2         =   0.0000000000000E+00
(PID.TID 0000.0001) %MON extforcing_qsw_max           =   0.0000000000000E+00
(PID.TID 0000.0001) %MON extforcing_qsw_min           =   0.0000000000000E+00
(PID.TID 0000.0001) %MON extforcing_qsw_mean          =   0.0000000000000E+00
(PID.TID 0000.0001) %MON extforcing_qsw_sd            =   0.0000000000000E+00
(PID.TID 0000.0001) %MON extforcing_qsw_del2          =   0.0000000000000E+00
(PID.TID 0000.0001) %MON extforcing_empmr_max         =   0.0000000000000E+00
(PID.TID 0000.0001) %MON extforcing_empmr_min         =   0.0000000000000E+00
(PID.TID 0000.0001) %MON extforcing_empmr_mean        =   0.0000000000000E+00
(PID.TID 0000.0001) %MON extforcing_empmr_sd          =   0.0000000000000E+00
(PID.TID 0000.0001) %MON extforcing_empmr_del2        =   0.0000000000000E+00
(PID.TID 0000.0001) %MON extforcing_fu_max            =   1.0000000000000E-01
(PID.TID 0000.0001) %MON extforcing_fu_min            =   1.0000000000000E-01
(PID.TID 0000.0001) %MON extforcing_fu_mean           =   1.0000000000000E-01
(PID.TID 0000.0001) %MON extforcing_fu_sd             =   0.0000000000000E+00
(PID.TID 0000.0001) %MON extforcing_fu_del2           =   0.0000000000000E+00
(PID.TID 0000.0001) %MON extforcing_fv_max            =   0.0000000000000E+00
(PID.TID 0000.0001) %MON extforcing_fv_min            =   0.0000000000000E+00
(PID.TID 0000.0001) %MON extforcing_fv_mean           =   0.0000000000000E+00
(PID.TID 0000.0001) %MON extforcing_fv_sd             =   0.0000000000000E+00
(PID.TID 0000.0001) %MON extforcing_fv_del2           =   0.0000000000000E+00
(PID.TID 0000.0001) %MON advcfl_uvel_max              =   5.4472196841115E-05
(PID.TID 0000.0001) %MON advcfl_vvel_max              =   2.0379526874666E-04
(PID.TID 0000.0001) %MON advcfl_wvel_max              =   9.4457287163798E-06
(PID.TID 0000.0001) %MON advcfl_W_hf_max              =   2.0462377099518E-05
(PID.TID 0000.0001) %MON pe_b_mean                    =   3.1513297681794E-10
(PID.TID 0000.0001) %MON ke_max                       =   6.5183555713816E-05
(PID.TID 0000.0001) %MON ke_mean                      =   1.4026513051784E-06
(PID.TID 0000.0001) %MON ke_vol                       =   4.4009158039362E+15
(PID.TID 0000.0001) %MON vort_r_min                   =  -3.6858272384934E-09
(PID.TID 0000.0001) %MON vort_r_max                   =   3.6102581911289E-09
(PID.TID 0000.0001) %MON vort_a_mean                  =  -1.1390240000000E-04
(PID.TID 0000.0001) %MON vort_a_sd                    =   3.7032386916817E-06
(PID.TID 0000.0001) %MON vort_p_mean                  =  -1.5528913309106E-04
(PID.TID 0000.0001) %MON vort_p_sd                    =   4.1188168902466E-05
(PID.TID 0000.0001) %MON surfExpan_theta_mean         =   1.2233937942208E-07
(PID.TID 0000.0001) %MON surfExpan_salt_mean          =   1.0704695699432E-06
(PID.TID 0000.0001) // =======================================================
(PID.TID 0000.0001) // End MONITOR dynamic field statistics
(PID.TID 0000.0001) // =======================================================
 cg2d: Sum(rhs),rhsMax =  -3.40991311853895E+00  2.73286304448479E-03
(PID.TID 0000.0001)                    cg2d_init_res =    1.34801658790777E-01
(PID.TID 0000.0001)                       cg2d_iters =    14
(PID.TID 0000.0001)                         cg2d_res =    7.73136756648531E-14
(PID.TID 0000.0001) // =======================================================
(PID.TID 0000.0001) // Begin MONITOR dynamic field statistics
(PID.TID 0000.0001) // =======================================================
(PID.TID 0000.0001) %MON time_tsnumber                =                    48
(PID.TID 0000.0001) %MON time_secondsf                =   1.7280000000000E+05
(PID.TID 0000.0001) %MON dynstat_eta_max              =   7.3211564950622E-04
(PID.TID 0000.0001) %MON dynstat_eta_min              =   5.0057127856480E-04
(PID.TID 0000.0001) %MON dynstat_eta_mean             =   6.0385989541702E-04
(PID.TID 0000.0001) %MON dynstat_eta_sd               =   7.5540803583716E-05
(PID.TID 0000.0001) %MON dynstat_eta_del2             =   2.7747867708889E-05
(PID.TID 0000.0001) %MON dynstat_uvel_max             =   1.9294775347149E-03
(PID.TID 0000.0001) %MON dynstat_uvel_min             =  -1.2535253296377E-04
(PID.TID 0000.0001) %MON dynstat_uvel_mean            =   7.0472439030430E-05
(PID.TID 0000.0001) %MON dynstat_uvel_sd              =   2.4814023814711E-04
(PID.TID 0000.0001) %MON dynstat_uvel_del2            =   5.6598346441347E-05
(PID.TID 0000.0001) %MON dynstat_vvel_max             =   1.1907122242336E-02
(PID.TID 0000.0001) %MON dynstat_vvel_min             =  -7.6854757138051E-05
(PID.TID 0000.0001) %MON dynstat_vvel_mean            =   3.3026959483785E-04
(PID.TID 0000.0001) %MON dynstat_vvel_sd              =   1.7065724998475E-03
(PID.TID 0000.0001) %MON dynstat_vvel_del2            =   9.4647465473895E-05
(PID.TID 0000.0001) %MON dynstat_wvel_max             =   5.5106758024674E-07
(PID.TID 0000.0001) %MON dynstat_wvel_min             =  -4.7283529660537E-07
(PID.TID 0000.0001) %MON dynstat_wvel_mean            =   1.5416046248794E-09
(PID.TID 0000.0001) %MON dynstat_wvel_sd              =   2.9788275795432E-07
(PID.TID 0000.0001) %MON dynstat_wvel_del2            =   1.9526597561961E-07
(PID.TID 0000.0001) %MON dynstat_theta_max            =   4.0000000000000E+00
(PID.TID 0000.0001) %MON dynstat_theta_min            =   4.0000000000000E+00
(PID.TID 0000.0001) %MON dynstat_theta_mean           =   4.0000000000000E+00
(PID.TID 0000.0001) %MON dynstat_theta_sd             =   0.0000000000000E+00
(PID.TID 0000.0001) %MON dynstat_theta_del2           =   0.0000000000000E+00
(PID.TID 0000.0001) %MON dynstat_salt_max             =   3.5000000000000E+01
(PID.TID 0000.0001) %MON dynstat_salt_min             =   3.5000000000000E+01
(PID.TID 0000.0001) %MON dynstat_salt_mean            =   3.5000000000000E+01
(PID.TID 0000.0001) %MON dynstat_salt_sd              =   0.0000000000000E+00
(PID.TID 0000.0001) %MON dynstat_salt_del2            =   0.0000000000000E+00
(PID.TID 0000.0001) %MON dynstat_sst_max              =   4.0000000000000E+00
(PID.TID 0000.0001) %MON dynstat_sst_min              =   4.0000000000000E+00
(PID.TID 0000.0001) %MON dynstat_sst_mean             =   4.0000000000000E+00
(PID.TID 0000.0001) %MON dynstat_sst_sd               =   0.0000000000000E+00
(PID.TID 0000.0001) %MON dynstat_sst_del2             =   0.0000000000000E+00
(PID.TID 0000.0001) %MON dynstat_sss_max              =   3.5000000000000E+01
(PID.TID 0000.0001) %MON dynstat_sss_min              =   3.5000000000000E+01
(PID.TID 0000.0001) %MON dynstat_sss_mean             =   3.5000000000000E+01
(PID.TID 0000.0001) %MON dynstat_sss_sd               =   0.0000000000000E+00
(PID.TID 0000.0001) %MON dynstat_sss_del2             =   0.0000000000000E+00
(PID.TID 0000.0001) %MON extforcing_qnet_max          =   0.0000000000000E+00
(PID.TID 0000.0001) %MON extforcing_qnet_min          =   0.0000000000000E+00
(PID.TID 0000.0001) %MON extforcing_qnet_mean         =   0.0000000000000E+00
(PID.TID 0000.0001) %MON extforcing_qnet_sd           =   0.0000000000000E+00
(PID.TID 0000.0001) %MON extforcing_qnet_del2         =   0.0000000000000E+00
(PID.TID 0000.0001) %MON extforcing_qsw_max           =   0.0000000000000E+00
(PID.TID 0000.0001) %MON extforcing_qsw_min           =   0.0000000000000E+00
(PID.TID 0000.0001) %MON extforcing_qsw_mean          =   0.0000000000000E+00
(PID.TID 0000.0001) %MON extforcing_qsw_sd            =   0.0000000000000E+00
(PID.TID 0000.0001) %MON extforcing_qsw_del2          =   0.0000000000000E+00
(PID.TID 0000.0001) %MON extforcing_empmr_max         =   0.0000000000000E+00
(PID.TID 0000.0001) %MON extforcing_empmr_min         =   0.0000000000000E+00
(PID.TID 0000.0001) %MON extforcing_empmr_mean        =   0.0000000000000E+00
(PID.TID 0000.0001) %MON extforcing_empmr_sd          =   0.0000000000000E+00
(PID.TID 0000.0001) %MON extforcing_empmr_del2        =   0.0000000000000E+00
(PID.TID 0000.0001) %MON extforcing_fu_max            =   1.0000000000000E-01
(PID.TID 0000.0001) %MON extforcing_fu_min            =   1.0000000000000E-01
(PID.TID 0000.0001) %MON extforcing_fu_mean           =   1.0000000000000E-01
(PID.TID 0000.0001) %MON extforcing_fu_sd             =   0.0000000000000E+00
(PID.TID 0000.0001) %MON extforcing_fu_del2           =   0.0000000000000E+00
(PID.TID 0000.0001) %MON extforcing_fv_max            =   0.0000000000000E+00
(PID.TID 0000.0001) %MON extforcing_fv_min            =   0.0000000000000E+00
(PID.TID 0000.0001) %MON extforcing_fv_mean           =   0.0000000000000E+00
(PID.TID 0000.0001) %MON extforcing_fv_sd             =   0.0000000000000E+00
(PID.TID 0000.0001) %MON extforcing_fv_del2           =   0.0000000000000E+00
(PID.TID 0000.0001) %MON advcfl_uvel_max              =   3.4730595624868E-05
(PID.TID 0000.0001) %MON advcfl_vvel_max              =   2.1432820036205E-04
(PID.TID 0000.0001) %MON advcfl_wvel_max              =   8.5304960984616E-06
(PID.TID 0000.0001) %MON advcfl_W_hf_max              =   1.9838432888883E-05
(PID.TID 0000.0001) %MON pe_b_mean                    =   4.1277371795490E-10
(PID.TID 0000.0001) %MON ke_max                       =   7.1228073413104E-05
(PID.TID 0000.0001) %MON ke_mean                      =   1.5440038224804E-06
(PID.TID 0000.0001) %MON ke_vol                       =   4.4009158039362E+15
(PID.TID 0000.0001) %MON vort_r_min                   =  -3.3969821049206E-09
(PID.TID 0000.0001) %MON vort_r_max                   =   3.0184003711046E-09
(PID.TID 0000.0001) %MON vort_a_mean                  =  -1.1390240000000E-04
(PID.TID 0000.0001) %MON vort_a_sd                    =   3.7032326289300E-06
(PID.TID 0000.0001) %MON vort_p_mean                  =  -1.5528913309106E-04
(PID.TID 0000.0001) %MON vort_p_sd                    =   4.1188167694869E-05
(PID.TID 0000.0001) %MON surfExpan_theta_mean         =   8.5692292602203E-08
(PID.TID 0000.0001) %MON surfExpan_salt_mean          =   7.4980756026927E-07
(PID.TID 0000.0001) // =======================================================
(PID.TID 0000.0001) // End MONITOR dynamic field statistics
(PID.TID 0000.0001) // =======================================================
 cg2d: Sum(rhs),rhsMax =  -3.48046023235813E+00  2.80943922930572E-03
(PID.TID 0000.0001)                    cg2d_init_res =    1.48544719822058E-01
(PID.TID 0000.0001)                       cg2d_iters =    14
(PID.TID 0000.0001)                         cg2d_res =    5.69839704851593E-14
(PID.TID 0000.0001) // =======================================================
(PID.TID 0000.0001) // Begin MONITOR dynamic field statistics
(PID.TID 0000.0001) // =======================================================
(PID.TID 0000.0001) %MON time_tsnumber                =                    49
(PID.TID 0000.0001) %MON time_secondsf                =   1.7640000000000E+05
(PID.TID 0000.0001) %MON dynstat_eta_max              =   7.6500955551951E-04
(PID.TID 0000.0001) %MON dynstat_eta_min              =   5.2378960862477E-04
(PID.TID 0000.0001) %MON dynstat_eta_mean             =   6.3362357003109E-04
(PID.TID 0000.0001) %MON dynstat_eta_sd               =   8.0072959705641E-05
(PID.TID 0000.0001) %MON dynstat_eta_del2             =   2.9130990730034E-05
(PID.TID 0000.0001) %MON dynstat_uvel_max             =   5.9584905621211E-04
(PID.TID 0000.0001) %MON dynstat_uvel_min             =  -1.5267147879847E-04
(PID.TID 0000.0001) %MON dynstat_uvel_mean            =   8.2421936812724E-06
(PID.TID 0000.0001) %MON dynstat_uvel_sd              =   9.2120046365025E-05
(PID.TID 0000.0001) %MON dynstat_uvel_del2            =   6.0129340162273E-05
(PID.TID 0000.0001) %MON dynstat_vvel_max             =   1.2038830341241E-02
(PID.TID 0000.0001) %MON dynstat_vvel_min             =  -8.0709513375832E-05
(PID.TID 0000.0001) %MON dynstat_vvel_mean            =   3.4659211547326E-04
(PID.TID 0000.0001) %MON dynstat_vvel_sd              =   1.7397665356910E-03
(PID.TID 0000.0001) %MON dynstat_vvel_del2            =   9.4788066002213E-05
(PID.TID 0000.0001) %MON dynstat_wvel_max             =   5.3694703589364E-07
(PID.TID 0000.0001) %MON dynstat_wvel_min             =  -6.0406274170119E-07
(PID.TID 0000.0001) %MON dynstat_wvel_mean            =   1.4634897054024E-09
(PID.TID 0000.0001) %MON dynstat_wvel_sd              =   3.3661511879580E-07
(PID.TID 0000.0001) %MON dynstat_wvel_del2            =   1.9553825778713E-07
(PID.TID 0000.0001) %MON dynstat_theta_max            =   4.0000000000000E+00
(PID.TID 0000.0001) %MON dynstat_theta_min            =   4.0000000000000E+00
(PID.TID 0000.0001) %MON dynstat_theta_mean           =   4.0000000000000E+00
(PID.TID 0000.0001) %MON dynstat_theta_sd             =   0.0000000000000E+00
(PID.TID 0000.0001) %MON dynstat_theta_del2           =   0.0000000000000E+00
(PID.TID 0000.0001) %MON dynstat_salt_max             =   3.5000000000000E+01
(PID.TID 0000.0001) %MON dynstat_salt_min             =   3.5000000000000E+01
(PID.TID 0000.0001) %MON dynstat_salt_mean            =   3.5000000000000E+01
(PID.TID 0000.0001) %MON dynstat_salt_sd              =   0.0000000000000E+00
(PID.TID 0000.0001) %MON dynstat_salt_del2            =   0.0000000000000E+00
(PID.TID 0000.0001) %MON dynstat_sst_max              =   4.0000000000000E+00
(PID.TID 0000.0001) %MON dynstat_sst_min              =   4.0000000000000E+00
(PID.TID 0000.0001) %MON dynstat_sst_mean             =   4.0000000000000E+00
(PID.TID 0000.0001) %MON dynstat_sst_sd               =   0.0000000000000E+00
(PID.TID 0000.0001) %MON dynstat_sst_del2             =   0.0000000000000E+00
(PID.TID 0000.0001) %MON dynstat_sss_max              =   3.5000000000000E+01
(PID.TID 0000.0001) %MON dynstat_sss_min              =   3.5000000000000E+01
(PID.TID 0000.0001) %MON dynstat_sss_mean             =   3.5000000000000E+01
(PID.TID 0000.0001) %MON dynstat_sss_sd               =   0.0000000000000E+00
(PID.TID 0000.0001) %MON dynstat_sss_del2             =   0.0000000000000E+00
(PID.TID 0000.0001) %MON extforcing_qnet_max          =   0.0000000000000E+00
(PID.TID 0000.0001) %MON extforcing_qnet_min          =   0.0000000000000E+00
(PID.TID 0000.0001) %MON extforcing_qnet_mean         =   0.0000000000000E+00
(PID.TID 0000.0001) %MON extforcing_qnet_sd           =   0.0000000000000E+00
(PID.TID 0000.0001) %MON extforcing_qnet_del2         =   0.0000000000000E+00
(PID.TID 0000.0001) %MON extforcing_qsw_max           =   0.0000000000000E+00
(PID.TID 0000.0001) %MON extforcing_qsw_min           =   0.0000000000000E+00
(PID.TID 0000.0001) %MON extforcing_qsw_mean          =   0.0000000000000E+00
(PID.TID 0000.0001) %MON extforcing_qsw_sd            =   0.0000000000000E+00
(PID.TID 0000.0001) %MON extforcing_qsw_del2          =   0.0000000000000E+00
(PID.TID 0000.0001) %MON extforcing_empmr_max         =   0.0000000000000E+00
(PID.TID 0000.0001) %MON extforcing_empmr_min         =   0.0000000000000E+00
(PID.TID 0000.0001) %MON extforcing_empmr_mean        =   0.0000000000000E+00
(PID.TID 0000.0001) %MON extforcing_empmr_sd          =   0.0000000000000E+00
(PID.TID 0000.0001) %MON extforcing_empmr_del2        =   0.0000000000000E+00
(PID.TID 0000.0001) %MON extforcing_fu_max            =   1.0000000000000E-01
(PID.TID 0000.0001) %MON extforcing_fu_min            =   1.0000000000000E-01
(PID.TID 0000.0001) %MON extforcing_fu_mean           =   1.0000000000000E-01
(PID.TID 0000.0001) %MON extforcing_fu_sd             =   0.0000000000000E+00
(PID.TID 0000.0001) %MON extforcing_fu_del2           =   0.0000000000000E+00
(PID.TID 0000.0001) %MON extforcing_fv_max            =   0.0000000000000E+00
(PID.TID 0000.0001) %MON extforcing_fv_min            =   0.0000000000000E+00
(PID.TID 0000.0001) %MON extforcing_fv_mean           =   0.0000000000000E+00
(PID.TID 0000.0001) %MON extforcing_fv_sd             =   0.0000000000000E+00
(PID.TID 0000.0001) %MON extforcing_fv_del2           =   0.0000000000000E+00
(PID.TID 0000.0001) %MON advcfl_uvel_max              =   1.0725283011818E-05
(PID.TID 0000.0001) %MON advcfl_vvel_max              =   2.1669894614234E-04
(PID.TID 0000.0001) %MON advcfl_wvel_max              =   7.7320373168685E-06
(PID.TID 0000.0001) %MON advcfl_W_hf_max              =   1.9330093292171E-05
(PID.TID 0000.0001) %MON pe_b_mean                    =   4.5461059193288E-10
(PID.TID 0000.0001) %MON ke_max                       =   7.2260532984500E-05
(PID.TID 0000.0001) %MON ke_mean                      =   1.5777338649588E-06
(PID.TID 0000.0001) %MON ke_vol                       =   4.4009158039362E+15
(PID.TID 0000.0001) %MON vort_r_min                   =  -2.9393615232750E-09
(PID.TID 0000.0001) %MON vort_r_max                   =   2.1147777054377E-09
(PID.TID 0000.0001) %MON vort_a_mean                  =  -1.1390240000000E-04
(PID.TID 0000.0001) %MON vort_a_sd                    =   3.7032260560245E-06
(PID.TID 0000.0001) %MON vort_p_mean                  =  -1.5528913309106E-04
(PID.TID 0000.0001) %MON vort_p_sd                    =   4.1188166590345E-05
(PID.TID 0000.0001) %MON surfExpan_theta_mean         =   3.3070749571185E-08
(PID.TID 0000.0001) %MON surfExpan_salt_mean          =   2.8936905874787E-07
(PID.TID 0000.0001) // =======================================================
(PID.TID 0000.0001) // End MONITOR dynamic field statistics
(PID.TID 0000.0001) // =======================================================
 cg2d: Sum(rhs),rhsMax =  -3.32063073087968E+00  2.84054009236553E-03
(PID.TID 0000.0001)                    cg2d_init_res =    1.67461297905139E-01
(PID.TID 0000.0001)                       cg2d_iters =    14
(PID.TID 0000.0001)                         cg2d_res =    4.57137187774800E-14
(PID.TID 0000.0001) // =======================================================
(PID.TID 0000.0001) // Begin MONITOR dynamic field statistics
(PID.TID 0000.0001) // =======================================================
(PID.TID 0000.0001) %MON time_tsnumber                =                    50
(PID.TID 0000.0001) %MON time_secondsf                =   1.8000000000000E+05
(PID.TID 0000.0001) %MON dynstat_eta_max              =   7.4655618907694E-04
(PID.TID 0000.0001) %MON dynstat_eta_min              =   4.9410717326188E-04
(PID.TID 0000.0001) %MON dynstat_eta_mean             =   6.1121853005071E-04
(PID.TID 0000.0001) %MON dynstat_eta_sd               =   8.5559519181324E-05
(PID.TID 0000.0001) %MON dynstat_eta_del2             =   3.0831534264960E-05
(PID.TID 0000.0001) %MON dynstat_uvel_max             =   1.2383530884138E-04
(PID.TID 0000.0001) %MON dynstat_uvel_min             =  -1.2639423983510E-03
(PID.TID 0000.0001) %MON dynstat_uvel_mean            =  -5.4286018608868E-05
(PID.TID 0000.0001) %MON dynstat_uvel_sd              =   1.9254369060907E-04
(PID.TID 0000.0001) %MON dynstat_uvel_del2            =   6.4493361101549E-05
(PID.TID 0000.0001) %MON dynstat_vvel_max             =   1.1704757152209E-02
(PID.TID 0000.0001) %MON dynstat_vvel_min             =  -7.7787725882006E-05
(PID.TID 0000.0001) %MON dynstat_vvel_mean            =   3.3424553765785E-04
(PID.TID 0000.0001) %MON dynstat_vvel_sd              =   1.6882783086492E-03
(PID.TID 0000.0001) %MON dynstat_vvel_del2            =   9.4980926548244E-05
(PID.TID 0000.0001) %MON dynstat_wvel_max             =   5.2878196819919E-07
(PID.TID 0000.0001) %MON dynstat_wvel_min             =  -6.4947825558351E-07
(PID.TID 0000.0001) %MON dynstat_wvel_mean            =   1.0682292575524E-09
(PID.TID 0000.0001) %MON dynstat_wvel_sd              =   3.5071347254448E-07
(PID.TID 0000.0001) %MON dynstat_wvel_del2            =   1.9752355095854E-07
(PID.TID 0000.0001) %MON dynstat_theta_max            =   4.0000000000000E+00
(PID.TID 0000.0001) %MON dynstat_theta_min            =   4.0000000000000E+00
(PID.TID 0000.0001) %MON dynstat_theta_mean           =   4.0000000000000E+00
(PID.TID 0000.0001) %MON dynstat_theta_sd             =   0.0000000000000E+00
(PID.TID 0000.0001) %MON dynstat_theta_del2           =   0.0000000000000E+00
(PID.TID 0000.0001) %MON dynstat_salt_max             =   3.5000000000000E+01
(PID.TID 0000.0001) %MON dynstat_salt_min             =   3.5000000000000E+01
(PID.TID 0000.0001) %MON dynstat_salt_mean            =   3.5000000000000E+01
(PID.TID 0000.0001) %MON dynstat_salt_sd              =   0.0000000000000E+00
(PID.TID 0000.0001) %MON dynstat_salt_del2            =   0.0000000000000E+00
(PID.TID 0000.0001) %MON dynstat_sst_max              =   4.0000000000000E+00
(PID.TID 0000.0001) %MON dynstat_sst_min              =   4.0000000000000E+00
(PID.TID 0000.0001) %MON dynstat_sst_mean             =   4.0000000000000E+00
(PID.TID 0000.0001) %MON dynstat_sst_sd               =   0.0000000000000E+00
(PID.TID 0000.0001) %MON dynstat_sst_del2             =   0.0000000000000E+00
(PID.TID 0000.0001) %MON dynstat_sss_max              =   3.5000000000000E+01
(PID.TID 0000.0001) %MON dynstat_sss_min              =   3.5000000000000E+01
(PID.TID 0000.0001) %MON dynstat_sss_mean             =   3.5000000000000E+01
(PID.TID 0000.0001) %MON dynstat_sss_sd               =   0.0000000000000E+00
(PID.TID 0000.0001) %MON dynstat_sss_del2             =   0.0000000000000E+00
(PID.TID 0000.0001) %MON extforcing_qnet_max          =   0.0000000000000E+00
(PID.TID 0000.0001) %MON extforcing_qnet_min          =   0.0000000000000E+00
(PID.TID 0000.0001) %MON extforcing_qnet_mean         =   0.0000000000000E+00
(PID.TID 0000.0001) %MON extforcing_qnet_sd           =   0.0000000000000E+00
(PID.TID 0000.0001) %MON extforcing_qnet_del2         =   0.0000000000000E+00
(PID.TID 0000.0001) %MON extforcing_qsw_max           =   0.0000000000000E+00
(PID.TID 0000.0001) %MON extforcing_qsw_min           =   0.0000000000000E+00
(PID.TID 0000.0001) %MON extforcing_qsw_mean          =   0.0000000000000E+00
(PID.TID 0000.0001) %MON extforcing_qsw_sd            =   0.0000000000000E+00
(PID.TID 0000.0001) %MON extforcing_qsw_del2          =   0.0000000000000E+00
(PID.TID 0000.0001) %MON extforcing_empmr_max         =   0.0000000000000E+00
(PID.TID 0000.0001) %MON extforcing_empmr_min         =   0.0000000000000E+00
(PID.TID 0000.0001) %MON extforcing_empmr_mean        =   0.0000000000000E+00
(PID.TID 0000.0001) %MON extforcing_empmr_sd          =   0.0000000000000E+00
(PID.TID 0000.0001) %MON extforcing_empmr_del2        =   0.0000000000000E+00
(PID.TID 0000.0001) %MON extforcing_fu_max            =   1.0000000000000E-01
(PID.TID 0000.0001) %MON extforcing_fu_min            =   1.0000000000000E-01
(PID.TID 0000.0001) %MON extforcing_fu_mean           =   1.0000000000000E-01
(PID.TID 0000.0001) %MON extforcing_fu_sd             =   0.0000000000000E+00
(PID.TID 0000.0001) %MON extforcing_fu_del2           =   0.0000000000000E+00
(PID.TID 0000.0001) %MON extforcing_fv_max            =   0.0000000000000E+00
(PID.TID 0000.0001) %MON extforcing_fv_min            =   0.0000000000000E+00
(PID.TID 0000.0001) %MON extforcing_fv_mean           =   0.0000000000000E+00
(PID.TID 0000.0001) %MON extforcing_fv_sd             =   0.0000000000000E+00
(PID.TID 0000.0001) %MON extforcing_fv_del2           =   0.0000000000000E+00
(PID.TID 0000.0001) %MON advcfl_uvel_max              =   2.2750963170318E-05
(PID.TID 0000.0001) %MON advcfl_vvel_max              =   2.1068562873976E-04
(PID.TID 0000.0001) %MON advcfl_wvel_max              =   7.6144603420684E-06
(PID.TID 0000.0001) %MON advcfl_W_hf_max              =   1.9036150855171E-05
(PID.TID 0000.0001) %MON pe_b_mean                    =   4.2453807061303E-10
(PID.TID 0000.0001) %MON ke_max                       =   6.8210627522251E-05
(PID.TID 0000.0001) %MON ke_mean                      =   1.5010118857546E-06
(PID.TID 0000.0001) %MON ke_vol                       =   4.4009158039362E+15
(PID.TID 0000.0001) %MON vort_r_min                   =  -3.0998032980332E-09
(PID.TID 0000.0001) %MON vort_r_max                   =   3.4491737494279E-09
(PID.TID 0000.0001) %MON vort_a_mean                  =  -1.1390240000000E-04
(PID.TID 0000.0001) %MON vort_a_sd                    =   3.7032200572820E-06
(PID.TID 0000.0001) %MON vort_p_mean                  =  -1.5528913309106E-04
(PID.TID 0000.0001) %MON vort_p_sd                    =   4.1188165622516E-05
(PID.TID 0000.0001) %MON surfExpan_theta_mean         =  -2.4894488867088E-08
(PID.TID 0000.0001) %MON surfExpan_salt_mean          =  -2.1782677758702E-07
(PID.TID 0000.0001) // =======================================================
(PID.TID 0000.0001) // End MONITOR dynamic field statistics
(PID.TID 0000.0001) // =======================================================
 cg2d: Sum(rhs),rhsMax =  -2.96079447598354E+00  2.82589058192357E-03
(PID.TID 0000.0001)                    cg2d_init_res =    1.76836077589070E-01
(PID.TID 0000.0001)                       cg2d_iters =    14
(PID.TID 0000.0001)                         cg2d_res =    4.02634455973369E-14
(PID.TID 0000.0001) // =======================================================
(PID.TID 0000.0001) // Begin MONITOR dynamic field statistics
(PID.TID 0000.0001) // =======================================================
(PID.TID 0000.0001) %MON time_tsnumber                =                    51
(PID.TID 0000.0001) %MON time_secondsf                =   1.8360000000000E+05
(PID.TID 0000.0001) %MON dynstat_eta_max              =   6.8146239592886E-04
(PID.TID 0000.0001) %MON dynstat_eta_min              =   4.1836964217691E-04
(PID.TID 0000.0001) %MON dynstat_eta_mean             =   5.4217390336012E-04
(PID.TID 0000.0001) %MON dynstat_eta_sd               =   9.0881583637667E-05
(PID.TID 0000.0001) %MON dynstat_eta_del2             =   3.2494550228535E-05
(PID.TID 0000.0001) %MON dynstat_uvel_max             =   1.1832718282835E-04
(PID.TID 0000.0001) %MON dynstat_uvel_min             =  -2.3515876149185E-03
(PID.TID 0000.0001) %MON dynstat_uvel_mean            =  -1.0482510006260E-04
(PID.TID 0000.0001) %MON dynstat_uvel_sd              =   3.3473221403623E-04
(PID.TID 0000.0001) %MON dynstat_uvel_del2            =   6.8786112708568E-05
(PID.TID 0000.0001) %MON dynstat_vvel_max             =   1.0983495876975E-02
(PID.TID 0000.0001) %MON dynstat_vvel_min             =  -6.9603903264955E-05
(PID.TID 0000.0001) %MON dynstat_vvel_mean            =   2.9617676450545E-04
(PID.TID 0000.0001) %MON dynstat_vvel_sd              =   1.5668908146813E-03
(PID.TID 0000.0001) %MON dynstat_vvel_del2            =   9.5117090531325E-05
(PID.TID 0000.0001) %MON dynstat_wvel_max             =   5.2801059436008E-07
(PID.TID 0000.0001) %MON dynstat_wvel_min             =  -6.1114994233680E-07
(PID.TID 0000.0001) %MON dynstat_wvel_mean            =   4.3668034040344E-10
(PID.TID 0000.0001) %MON dynstat_wvel_sd              =   3.2979494497928E-07
(PID.TID 0000.0001) %MON dynstat_wvel_del2            =   1.9947852910135E-07
(PID.TID 0000.0001) %MON dynstat_theta_max            =   4.0000000000000E+00
(PID.TID 0000.0001) %MON dynstat_theta_min            =   4.0000000000000E+00
(PID.TID 0000.0001) %MON dynstat_theta_mean           =   4.0000000000000E+00
(PID.TID 0000.0001) %MON dynstat_theta_sd             =   0.0000000000000E+00
(PID.TID 0000.0001) %MON dynstat_theta_del2           =   0.0000000000000E+00
(PID.TID 0000.0001) %MON dynstat_salt_max             =   3.5000000000000E+01
(PID.TID 0000.0001) %MON dynstat_salt_min             =   3.5000000000000E+01
(PID.TID 0000.0001) %MON dynstat_salt_mean            =   3.5000000000000E+01
(PID.TID 0000.0001) %MON dynstat_salt_sd              =   0.0000000000000E+00
(PID.TID 0000.0001) %MON dynstat_salt_del2            =   0.0000000000000E+00
(PID.TID 0000.0001) %MON dynstat_sst_max              =   4.0000000000000E+00
(PID.TID 0000.0001) %MON dynstat_sst_min              =   4.0000000000000E+00
(PID.TID 0000.0001) %MON dynstat_sst_mean             =   4.0000000000000E+00
(PID.TID 0000.0001) %MON dynstat_sst_sd               =   0.0000000000000E+00
(PID.TID 0000.0001) %MON dynstat_sst_del2             =   0.0000000000000E+00
(PID.TID 0000.0001) %MON dynstat_sss_max              =   3.5000000000000E+01
(PID.TID 0000.0001) %MON dynstat_sss_min              =   3.5000000000000E+01
(PID.TID 0000.0001) %MON dynstat_sss_mean             =   3.5000000000000E+01
(PID.TID 0000.0001) %MON dynstat_sss_sd               =   0.0000000000000E+00
(PID.TID 0000.0001) %MON dynstat_sss_del2             =   0.0000000000000E+00
(PID.TID 0000.0001) %MON extforcing_qnet_max          =   0.0000000000000E+00
(PID.TID 0000.0001) %MON extforcing_qnet_min          =   0.0000000000000E+00
(PID.TID 0000.0001) %MON extforcing_qnet_mean         =   0.0000000000000E+00
(PID.TID 0000.0001) %MON extforcing_qnet_sd           =   0.0000000000000E+00
(PID.TID 0000.0001) %MON extforcing_qnet_del2         =   0.0000000000000E+00
(PID.TID 0000.0001) %MON extforcing_qsw_max           =   0.0000000000000E+00
(PID.TID 0000.0001) %MON extforcing_qsw_min           =   0.0000000000000E+00
(PID.TID 0000.0001) %MON extforcing_qsw_mean          =   0.0000000000000E+00
(PID.TID 0000.0001) %MON extforcing_qsw_sd            =   0.0000000000000E+00
(PID.TID 0000.0001) %MON extforcing_qsw_del2          =   0.0000000000000E+00
(PID.TID 0000.0001) %MON extforcing_empmr_max         =   0.0000000000000E+00
(PID.TID 0000.0001) %MON extforcing_empmr_min         =   0.0000000000000E+00
(PID.TID 0000.0001) %MON extforcing_empmr_mean        =   0.0000000000000E+00
(PID.TID 0000.0001) %MON extforcing_empmr_sd          =   0.0000000000000E+00
(PID.TID 0000.0001) %MON extforcing_empmr_del2        =   0.0000000000000E+00
(PID.TID 0000.0001) %MON extforcing_fu_max            =   1.0000000000000E-01
(PID.TID 0000.0001) %MON extforcing_fu_min            =   1.0000000000000E-01
(PID.TID 0000.0001) %MON extforcing_fu_mean           =   1.0000000000000E-01
(PID.TID 0000.0001) %MON extforcing_fu_sd             =   0.0000000000000E+00
(PID.TID 0000.0001) %MON extforcing_fu_del2           =   0.0000000000000E+00
(PID.TID 0000.0001) %MON extforcing_fv_max            =   0.0000000000000E+00
(PID.TID 0000.0001) %MON extforcing_fv_min            =   0.0000000000000E+00
(PID.TID 0000.0001) %MON extforcing_fv_mean           =   0.0000000000000E+00
(PID.TID 0000.0001) %MON extforcing_fv_sd             =   0.0000000000000E+00
(PID.TID 0000.0001) %MON extforcing_fv_del2           =   0.0000000000000E+00
(PID.TID 0000.0001) %MON advcfl_uvel_max              =   4.2328577068532E-05
(PID.TID 0000.0001) %MON advcfl_vvel_max              =   1.9770292578554E-04
(PID.TID 0000.0001) %MON advcfl_wvel_max              =   7.6033525587852E-06
(PID.TID 0000.0001) %MON advcfl_W_hf_max              =   1.9008381396963E-05
(PID.TID 0000.0001) %MON pe_b_mean                    =   3.3682759324005E-10
(PID.TID 0000.0001) %MON ke_max                       =   6.0089349331068E-05
(PID.TID 0000.0001) %MON ke_mean                      =   1.3329507288411E-06
(PID.TID 0000.0001) %MON ke_vol                       =   4.4009158039362E+15
(PID.TID 0000.0001) %MON vort_r_min                   =  -3.5026740972367E-09
(PID.TID 0000.0001) %MON vort_r_max                   =   4.8048152328287E-09
(PID.TID 0000.0001) %MON vort_a_mean                  =  -1.1390240000000E-04
(PID.TID 0000.0001) %MON vort_a_sd                    =   3.7032156606537E-06
(PID.TID 0000.0001) %MON vort_p_mean                  =  -1.5528913309106E-04
(PID.TID 0000.0001) %MON vort_p_sd                    =   4.1188164817940E-05
(PID.TID 0000.0001) %MON surfExpan_theta_mean         =  -7.6716251878431E-08
(PID.TID 0000.0001) %MON surfExpan_salt_mean          =  -6.7126720393628E-07
(PID.TID 0000.0001) // =======================================================
(PID.TID 0000.0001) // End MONITOR dynamic field statistics
(PID.TID 0000.0001) // =======================================================
 cg2d: Sum(rhs),rhsMax =  -2.32992811105143E+00  2.92147975447442E-03
(PID.TID 0000.0001)                    cg2d_init_res =    1.62395126976480E-01
(PID.TID 0000.0001)                       cg2d_iters =    14
(PID.TID 0000.0001)                         cg2d_res =    8.71666292726370E-14
(PID.TID 0000.0001) // =======================================================
(PID.TID 0000.0001) // Begin MONITOR dynamic field statistics
(PID.TID 0000.0001) // =======================================================
(PID.TID 0000.0001) %MON time_tsnumber                =                    52
(PID.TID 0000.0001) %MON time_secondsf                =   1.8720000000000E+05
(PID.TID 0000.0001) %MON dynstat_eta_max              =   5.8347746065048E-04
(PID.TID 0000.0001) %MON dynstat_eta_min              =   3.1235987684304E-04
(PID.TID 0000.0001) %MON dynstat_eta_mean             =   4.4108308981698E-04
(PID.TID 0000.0001) %MON dynstat_eta_sd               =   9.4875162792105E-05
(PID.TID 0000.0001) %MON dynstat_eta_del2             =   3.3994382063436E-05
(PID.TID 0000.0001) %MON dynstat_uvel_max             =   1.1351745564652E-04
(PID.TID 0000.0001) %MON dynstat_uvel_min             =  -2.9284853290509E-03
(PID.TID 0000.0001) %MON dynstat_uvel_mean            =  -1.3366615300989E-04
(PID.TID 0000.0001) %MON dynstat_uvel_sd              =   4.1009196143525E-04
(PID.TID 0000.0001) %MON dynstat_uvel_del2            =   7.1908497529047E-05
(PID.TID 0000.0001) %MON dynstat_vvel_max             =   1.0026095216641E-02
(PID.TID 0000.0001) %MON dynstat_vvel_min             =  -5.8641379873778E-05
(PID.TID 0000.0001) %MON dynstat_vvel_mean            =   2.4033165061148E-04
(PID.TID 0000.0001) %MON dynstat_vvel_sd              =   1.4056230901060E-03
(PID.TID 0000.0001) %MON dynstat_vvel_del2            =   9.5400063417558E-05
(PID.TID 0000.0001) %MON dynstat_wvel_max             =   5.3454302167724E-07
(PID.TID 0000.0001) %MON dynstat_wvel_min             =  -5.0744168545942E-07
(PID.TID 0000.0001) %MON dynstat_wvel_mean            =  -2.9689819853340E-10
(PID.TID 0000.0001) %MON dynstat_wvel_sd              =   3.0495279198942E-07
(PID.TID 0000.0001) %MON dynstat_wvel_del2            =   2.0428087442991E-07
(PID.TID 0000.0001) %MON dynstat_theta_max            =   4.0000000000000E+00
(PID.TID 0000.0001) %MON dynstat_theta_min            =   4.0000000000000E+00
(PID.TID 0000.0001) %MON dynstat_theta_mean           =   4.0000000000000E+00
(PID.TID 0000.0001) %MON dynstat_theta_sd             =   0.0000000000000E+00
(PID.TID 0000.0001) %MON dynstat_theta_del2           =   0.0000000000000E+00
(PID.TID 0000.0001) %MON dynstat_salt_max             =   3.5000000000000E+01
(PID.TID 0000.0001) %MON dynstat_salt_min             =   3.5000000000000E+01
(PID.TID 0000.0001) %MON dynstat_salt_mean            =   3.5000000000000E+01
(PID.TID 0000.0001) %MON dynstat_salt_sd              =   0.0000000000000E+00
(PID.TID 0000.0001) %MON dynstat_salt_del2            =   0.0000000000000E+00
(PID.TID 0000.0001) %MON dynstat_sst_max              =   4.0000000000000E+00
(PID.TID 0000.0001) %MON dynstat_sst_min              =   4.0000000000000E+00
(PID.TID 0000.0001) %MON dynstat_sst_mean             =   4.0000000000000E+00
(PID.TID 0000.0001) %MON dynstat_sst_sd               =   0.0000000000000E+00
(PID.TID 0000.0001) %MON dynstat_sst_del2             =   0.0000000000000E+00
(PID.TID 0000.0001) %MON dynstat_sss_max              =   3.5000000000000E+01
(PID.TID 0000.0001) %MON dynstat_sss_min              =   3.5000000000000E+01
(PID.TID 0000.0001) %MON dynstat_sss_mean             =   3.5000000000000E+01
(PID.TID 0000.0001) %MON dynstat_sss_sd               =   0.0000000000000E+00
(PID.TID 0000.0001) %MON dynstat_sss_del2             =   0.0000000000000E+00
(PID.TID 0000.0001) %MON extforcing_qnet_max          =   0.0000000000000E+00
(PID.TID 0000.0001) %MON extforcing_qnet_min          =   0.0000000000000E+00
(PID.TID 0000.0001) %MON extforcing_qnet_mean         =   0.0000000000000E+00
(PID.TID 0000.0001) %MON extforcing_qnet_sd           =   0.0000000000000E+00
(PID.TID 0000.0001) %MON extforcing_qnet_del2         =   0.0000000000000E+00
(PID.TID 0000.0001) %MON extforcing_qsw_max           =   0.0000000000000E+00
(PID.TID 0000.0001) %MON extforcing_qsw_min           =   0.0000000000000E+00
(PID.TID 0000.0001) %MON extforcing_qsw_mean          =   0.0000000000000E+00
(PID.TID 0000.0001) %MON extforcing_qsw_sd            =   0.0000000000000E+00
(PID.TID 0000.0001) %MON extforcing_qsw_del2          =   0.0000000000000E+00
(PID.TID 0000.0001) %MON extforcing_empmr_max         =   0.0000000000000E+00
(PID.TID 0000.0001) %MON extforcing_empmr_min         =   0.0000000000000E+00
(PID.TID 0000.0001) %MON extforcing_empmr_mean        =   0.0000000000000E+00
(PID.TID 0000.0001) %MON extforcing_empmr_sd          =   0.0000000000000E+00
(PID.TID 0000.0001) %MON extforcing_empmr_del2        =   0.0000000000000E+00
(PID.TID 0000.0001) %MON extforcing_fu_max            =   1.0000000000000E-01
(PID.TID 0000.0001) %MON extforcing_fu_min            =   1.0000000000000E-01
(PID.TID 0000.0001) %MON extforcing_fu_mean           =   1.0000000000000E-01
(PID.TID 0000.0001) %MON extforcing_fu_sd             =   0.0000000000000E+00
(PID.TID 0000.0001) %MON extforcing_fu_del2           =   0.0000000000000E+00
(PID.TID 0000.0001) %MON extforcing_fv_max            =   0.0000000000000E+00
(PID.TID 0000.0001) %MON extforcing_fv_min            =   0.0000000000000E+00
(PID.TID 0000.0001) %MON extforcing_fv_mean           =   0.0000000000000E+00
(PID.TID 0000.0001) %MON extforcing_fv_sd             =   0.0000000000000E+00
(PID.TID 0000.0001) %MON extforcing_fv_del2           =   0.0000000000000E+00
(PID.TID 0000.0001) %MON advcfl_uvel_max              =   5.2712735922916E-05
(PID.TID 0000.0001) %MON advcfl_vvel_max              =   1.8046971389954E-04
(PID.TID 0000.0001) %MON advcfl_wvel_max              =   7.6974195121522E-06
(PID.TID 0000.0001) %MON advcfl_W_hf_max              =   1.9243548780380E-05
(PID.TID 0000.0001) %MON pe_b_mean                    =   2.2687099838926E-10
(PID.TID 0000.0001) %MON ke_max                       =   4.9702375723558E-05
(PID.TID 0000.0001) %MON ke_mean                      =   1.1097888155096E-06
(PID.TID 0000.0001) %MON ke_vol                       =   4.4009158039362E+15
(PID.TID 0000.0001) %MON vort_r_min                   =  -3.7326691303173E-09
(PID.TID 0000.0001) %MON vort_r_max                   =   5.6804052995371E-09
(PID.TID 0000.0001) %MON vort_a_mean                  =  -1.1390240000000E-04
(PID.TID 0000.0001) %MON vort_a_sd                    =   3.7032136428117E-06
(PID.TID 0000.0001) %MON vort_p_mean                  =  -1.5528913309106E-04
(PID.TID 0000.0001) %MON vort_p_sd                    =   4.1188164193415E-05
(PID.TID 0000.0001) %MON surfExpan_theta_mean         =  -1.1232312615904E-07
(PID.TID 0000.0001) %MON surfExpan_salt_mean          =  -9.8282735389163E-07
(PID.TID 0000.0001) // =======================================================
(PID.TID 0000.0001) // End MONITOR dynamic field statistics
(PID.TID 0000.0001) // =======================================================
 cg2d: Sum(rhs),rhsMax =  -1.72242456195865E+00  2.94384963610313E-03
(PID.TID 0000.0001)                    cg2d_init_res =    1.39996361640281E-01
(PID.TID 0000.0001)                       cg2d_iters =    14
(PID.TID 0000.0001)                         cg2d_res =    4.60229212915572E-14
(PID.TID 0000.0001) // =======================================================
(PID.TID 0000.0001) // Begin MONITOR dynamic field statistics
(PID.TID 0000.0001) // =======================================================
(PID.TID 0000.0001) %MON time_tsnumber                =                    53
(PID.TID 0000.0001) %MON time_secondsf                =   1.9080000000000E+05
(PID.TID 0000.0001) %MON dynstat_eta_max              =   4.7253692350766E-04
(PID.TID 0000.0001) %MON dynstat_eta_min              =   1.9753362243755E-04
(PID.TID 0000.0001) %MON dynstat_eta_mean             =   3.2857221801192E-04
(PID.TID 0000.0001) %MON dynstat_eta_sd               =   9.6650866326522E-05
(PID.TID 0000.0001) %MON dynstat_eta_del2             =   3.4760037843355E-05
(PID.TID 0000.0001) %MON dynstat_uvel_max             =   1.0957128093961E-04
(PID.TID 0000.0001) %MON dynstat_uvel_min             =  -2.9107800860135E-03
(PID.TID 0000.0001) %MON dynstat_uvel_mean            =  -1.3553880736185E-04
(PID.TID 0000.0001) %MON dynstat_uvel_sd              =   4.0105503707895E-04
(PID.TID 0000.0001) %MON dynstat_uvel_del2            =   7.3037013464841E-05
(PID.TID 0000.0001) %MON dynstat_vvel_max             =   9.0242363009166E-03
(PID.TID 0000.0001) %MON dynstat_vvel_min             =  -2.5172474241168E-04
(PID.TID 0000.0001) %MON dynstat_vvel_mean            =   1.7800346569657E-04
(PID.TID 0000.0001) %MON dynstat_vvel_sd              =   1.2421058000615E-03
(PID.TID 0000.0001) %MON dynstat_vvel_del2            =   9.6312049225037E-05
(PID.TID 0000.0001) %MON dynstat_wvel_max             =   5.4686590374521E-07
(PID.TID 0000.0001) %MON dynstat_wvel_min             =  -4.3064818768060E-07
(PID.TID 0000.0001) %MON dynstat_wvel_mean            =  -9.7262630724914E-10
(PID.TID 0000.0001) %MON dynstat_wvel_sd              =   3.2369316778438E-07
(PID.TID 0000.0001) %MON dynstat_wvel_del2            =   2.2214547515990E-07
(PID.TID 0000.0001) %MON dynstat_theta_max            =   4.0000000000000E+00
(PID.TID 0000.0001) %MON dynstat_theta_min            =   4.0000000000000E+00
(PID.TID 0000.0001) %MON dynstat_theta_mean           =   4.0000000000000E+00
(PID.TID 0000.0001) %MON dynstat_theta_sd             =   0.0000000000000E+00
(PID.TID 0000.0001) %MON dynstat_theta_del2           =   0.0000000000000E+00
(PID.TID 0000.0001) %MON dynstat_salt_max             =   3.5000000000000E+01
(PID.TID 0000.0001) %MON dynstat_salt_min             =   3.5000000000000E+01
(PID.TID 0000.0001) %MON dynstat_salt_mean            =   3.5000000000000E+01
(PID.TID 0000.0001) %MON dynstat_salt_sd              =   0.0000000000000E+00
(PID.TID 0000.0001) %MON dynstat_salt_del2            =   0.0000000000000E+00
(PID.TID 0000.0001) %MON dynstat_sst_max              =   4.0000000000000E+00
(PID.TID 0000.0001) %MON dynstat_sst_min              =   4.0000000000000E+00
(PID.TID 0000.0001) %MON dynstat_sst_mean             =   4.0000000000000E+00
(PID.TID 0000.0001) %MON dynstat_sst_sd               =   0.0000000000000E+00
(PID.TID 0000.0001) %MON dynstat_sst_del2             =   0.0000000000000E+00
(PID.TID 0000.0001) %MON dynstat_sss_max              =   3.5000000000000E+01
(PID.TID 0000.0001) %MON dynstat_sss_min              =   3.5000000000000E+01
(PID.TID 0000.0001) %MON dynstat_sss_mean             =   3.5000000000000E+01
(PID.TID 0000.0001) %MON dynstat_sss_sd               =   0.0000000000000E+00
(PID.TID 0000.0001) %MON dynstat_sss_del2             =   0.0000000000000E+00
(PID.TID 0000.0001) %MON extforcing_qnet_max          =   0.0000000000000E+00
(PID.TID 0000.0001) %MON extforcing_qnet_min          =   0.0000000000000E+00
(PID.TID 0000.0001) %MON extforcing_qnet_mean         =   0.0000000000000E+00
(PID.TID 0000.0001) %MON extforcing_qnet_sd           =   0.0000000000000E+00
(PID.TID 0000.0001) %MON extforcing_qnet_del2         =   0.0000000000000E+00
(PID.TID 0000.0001) %MON extforcing_qsw_max           =   0.0000000000000E+00
(PID.TID 0000.0001) %MON extforcing_qsw_min           =   0.0000000000000E+00
(PID.TID 0000.0001) %MON extforcing_qsw_mean          =   0.0000000000000E+00
(PID.TID 0000.0001) %MON extforcing_qsw_sd            =   0.0000000000000E+00
(PID.TID 0000.0001) %MON extforcing_qsw_del2          =   0.0000000000000E+00
(PID.TID 0000.0001) %MON extforcing_empmr_max         =   0.0000000000000E+00
(PID.TID 0000.0001) %MON extforcing_empmr_min         =   0.0000000000000E+00
(PID.TID 0000.0001) %MON extforcing_empmr_mean        =   0.0000000000000E+00
(PID.TID 0000.0001) %MON extforcing_empmr_sd          =   0.0000000000000E+00
(PID.TID 0000.0001) %MON extforcing_empmr_del2        =   0.0000000000000E+00
(PID.TID 0000.0001) %MON extforcing_fu_max            =   1.0000000000000E-01
(PID.TID 0000.0001) %MON extforcing_fu_min            =   1.0000000000000E-01
(PID.TID 0000.0001) %MON extforcing_fu_mean           =   1.0000000000000E-01
(PID.TID 0000.0001) %MON extforcing_fu_sd             =   0.0000000000000E+00
(PID.TID 0000.0001) %MON extforcing_fu_del2           =   0.0000000000000E+00
(PID.TID 0000.0001) %MON extforcing_fv_max            =   0.0000000000000E+00
(PID.TID 0000.0001) %MON extforcing_fv_min            =   0.0000000000000E+00
(PID.TID 0000.0001) %MON extforcing_fv_mean           =   0.0000000000000E+00
(PID.TID 0000.0001) %MON extforcing_fv_sd             =   0.0000000000000E+00
(PID.TID 0000.0001) %MON extforcing_fv_del2           =   0.0000000000000E+00
(PID.TID 0000.0001) %MON advcfl_uvel_max              =   5.2394041548243E-05
(PID.TID 0000.0001) %MON advcfl_vvel_max              =   1.6243625341650E-04
(PID.TID 0000.0001) %MON advcfl_wvel_max              =   7.8837833499110E-06
(PID.TID 0000.0001) %MON advcfl_W_hf_max              =   1.9687172534827E-05
(PID.TID 0000.0001) %MON pe_b_mean                    =   1.3073684749003E-10
(PID.TID 0000.0001) %MON ke_max                       =   3.9194588426124E-05
(PID.TID 0000.0001) %MON ke_mean                      =   8.7686398170696E-07
(PID.TID 0000.0001) %MON ke_vol                       =   4.4009158039362E+15
(PID.TID 0000.0001) %MON vort_r_min                   =  -3.7744293043710E-09
(PID.TID 0000.0001) %MON vort_r_max                   =   5.9698876163124E-09
(PID.TID 0000.0001) %MON vort_a_mean                  =  -1.1390240000000E-04
(PID.TID 0000.0001) %MON vort_a_sd                    =   3.7032143803103E-06
(PID.TID 0000.0001) %MON vort_p_mean                  =  -1.5528913309106E-04
(PID.TID 0000.0001) %MON vort_p_sd                    =   4.1188163752752E-05
(PID.TID 0000.0001) %MON surfExpan_theta_mean         =  -1.2501207978340E-07
(PID.TID 0000.0001) %MON surfExpan_salt_mean          =  -1.0938556981047E-06
(PID.TID 0000.0001) // =======================================================
(PID.TID 0000.0001) // End MONITOR dynamic field statistics
(PID.TID 0000.0001) // =======================================================
 cg2d: Sum(rhs),rhsMax =  -1.21221903664747E+00  2.89157780595210E-03
(PID.TID 0000.0001)                    cg2d_init_res =    1.21940145997088E-01
(PID.TID 0000.0001)                       cg2d_iters =    15
(PID.TID 0000.0001)                         cg2d_res =    2.03243500925249E-17
(PID.TID 0000.0001) // =======================================================
(PID.TID 0000.0001) // Begin MONITOR dynamic field statistics
(PID.TID 0000.0001) // =======================================================
(PID.TID 0000.0001) %MON time_tsnumber                =                    54
(PID.TID 0000.0001) %MON time_secondsf                =   1.9440000000000E+05
(PID.TID 0000.0001) %MON dynstat_eta_max              =   3.7074531955180E-04
(PID.TID 0000.0001) %MON dynstat_eta_min              =   9.6699508679754E-05
(PID.TID 0000.0001) %MON dynstat_eta_mean             =   2.2713862291850E-04
(PID.TID 0000.0001) %MON dynstat_eta_sd               =   9.5829534601628E-05
(PID.TID 0000.0001) %MON dynstat_eta_del2             =   3.4610888417755E-05
(PID.TID 0000.0001) %MON dynstat_uvel_max             =   1.0723889315035E-04
(PID.TID 0000.0001) %MON dynstat_uvel_min             =  -2.3349086212767E-03
(PID.TID 0000.0001) %MON dynstat_uvel_mean            =  -1.1056596855353E-04
(PID.TID 0000.0001) %MON dynstat_uvel_sd              =   3.1245059856209E-04
(PID.TID 0000.0001) %MON dynstat_uvel_del2            =   7.0825594589866E-05
(PID.TID 0000.0001) %MON dynstat_vvel_max             =   8.1717357758227E-03
(PID.TID 0000.0001) %MON dynstat_vvel_min             =  -5.9839224357365E-04
(PID.TID 0000.0001) %MON dynstat_vvel_mean            =   1.2155377765207E-04
(PID.TID 0000.0001) %MON dynstat_vvel_sd              =   1.1107997451286E-03
(PID.TID 0000.0001) %MON dynstat_vvel_del2            =   1.0120792000147E-04
(PID.TID 0000.0001) %MON dynstat_wvel_max             =   6.2000082112100E-07
(PID.TID 0000.0001) %MON dynstat_wvel_min             =  -4.9997725354320E-07
(PID.TID 0000.0001) %MON dynstat_wvel_mean            =  -1.4387765676553E-09
(PID.TID 0000.0001) %MON dynstat_wvel_sd              =   3.9100595320217E-07
(PID.TID 0000.0001) %MON dynstat_wvel_del2            =   2.4440295141637E-07
(PID.TID 0000.0001) %MON dynstat_theta_max            =   4.0000000000000E+00
(PID.TID 0000.0001) %MON dynstat_theta_min            =   4.0000000000000E+00
(PID.TID 0000.0001) %MON dynstat_theta_mean           =   4.0000000000000E+00
(PID.TID 0000.0001) %MON dynstat_theta_sd             =   0.0000000000000E+00
(PID.TID 0000.0001) %MON dynstat_theta_del2           =   0.0000000000000E+00
(PID.TID 0000.0001) %MON dynstat_salt_max             =   3.5000000000000E+01
(PID.TID 0000.0001) %MON dynstat_salt_min             =   3.5000000000000E+01
(PID.TID 0000.0001) %MON dynstat_salt_mean            =   3.5000000000000E+01
(PID.TID 0000.0001) %MON dynstat_salt_sd              =   0.0000000000000E+00
(PID.TID 0000.0001) %MON dynstat_salt_del2            =   0.0000000000000E+00
(PID.TID 0000.0001) %MON dynstat_sst_max              =   4.0000000000000E+00
(PID.TID 0000.0001) %MON dynstat_sst_min              =   4.0000000000000E+00
(PID.TID 0000.0001) %MON dynstat_sst_mean             =   4.0000000000000E+00
(PID.TID 0000.0001) %MON dynstat_sst_sd               =   0.0000000000000E+00
(PID.TID 0000.0001) %MON dynstat_sst_del2             =   0.0000000000000E+00
(PID.TID 0000.0001) %MON dynstat_sss_max              =   3.5000000000000E+01
(PID.TID 0000.0001) %MON dynstat_sss_min              =   3.5000000000000E+01
(PID.TID 0000.0001) %MON dynstat_sss_mean             =   3.5000000000000E+01
(PID.TID 0000.0001) %MON dynstat_sss_sd               =   0.0000000000000E+00
(PID.TID 0000.0001) %MON dynstat_sss_del2             =   0.0000000000000E+00
(PID.TID 0000.0001) %MON extforcing_qnet_max          =   0.0000000000000E+00
(PID.TID 0000.0001) %MON extforcing_qnet_min          =   0.0000000000000E+00
(PID.TID 0000.0001) %MON extforcing_qnet_mean         =   0.0000000000000E+00
(PID.TID 0000.0001) %MON extforcing_qnet_sd           =   0.0000000000000E+00
(PID.TID 0000.0001) %MON extforcing_qnet_del2         =   0.0000000000000E+00
(PID.TID 0000.0001) %MON extforcing_qsw_max           =   0.0000000000000E+00
(PID.TID 0000.0001) %MON extforcing_qsw_min           =   0.0000000000000E+00
(PID.TID 0000.0001) %MON extforcing_qsw_mean          =   0.0000000000000E+00
(PID.TID 0000.0001) %MON extforcing_qsw_sd            =   0.0000000000000E+00
(PID.TID 0000.0001) %MON extforcing_qsw_del2          =   0.0000000000000E+00
(PID.TID 0000.0001) %MON extforcing_empmr_max         =   0.0000000000000E+00
(PID.TID 0000.0001) %MON extforcing_empmr_min         =   0.0000000000000E+00
(PID.TID 0000.0001) %MON extforcing_empmr_mean        =   0.0000000000000E+00
(PID.TID 0000.0001) %MON extforcing_empmr_sd          =   0.0000000000000E+00
(PID.TID 0000.0001) %MON extforcing_empmr_del2        =   0.0000000000000E+00
(PID.TID 0000.0001) %MON extforcing_fu_max            =   1.0000000000000E-01
(PID.TID 0000.0001) %MON extforcing_fu_min            =   1.0000000000000E-01
(PID.TID 0000.0001) %MON extforcing_fu_mean           =   1.0000000000000E-01
(PID.TID 0000.0001) %MON extforcing_fu_sd             =   0.0000000000000E+00
(PID.TID 0000.0001) %MON extforcing_fu_del2           =   0.0000000000000E+00
(PID.TID 0000.0001) %MON extforcing_fv_max            =   0.0000000000000E+00
(PID.TID 0000.0001) %MON extforcing_fv_min            =   0.0000000000000E+00
(PID.TID 0000.0001) %MON extforcing_fv_mean           =   0.0000000000000E+00
(PID.TID 0000.0001) %MON extforcing_fv_sd             =   0.0000000000000E+00
(PID.TID 0000.0001) %MON extforcing_fv_del2           =   0.0000000000000E+00
(PID.TID 0000.0001) %MON advcfl_uvel_max              =   4.2028355182980E-05
(PID.TID 0000.0001) %MON advcfl_vvel_max              =   1.4709124396481E-04
(PID.TID 0000.0001) %MON advcfl_wvel_max              =   8.6286992439448E-06
(PID.TID 0000.0001) %MON advcfl_W_hf_max              =   2.1571748109862E-05
(PID.TID 0000.0001) %MON pe_b_mean                    =   6.7736496855051E-11
(PID.TID 0000.0001) %MON ke_max                       =   3.0575894928053E-05
(PID.TID 0000.0001) %MON ke_mean                      =   6.7925080229164E-07
(PID.TID 0000.0001) %MON ke_vol                       =   4.4009158039362E+15
(PID.TID 0000.0001) %MON vort_r_min                   =  -3.6453860769501E-09
(PID.TID 0000.0001) %MON vort_r_max                   =   5.6946895079916E-09
(PID.TID 0000.0001) %MON vort_a_mean                  =  -1.1390240000000E-04
(PID.TID 0000.0001) %MON vort_a_sd                    =   3.7032177742088E-06
(PID.TID 0000.0001) %MON vort_p_mean                  =  -1.5528913309106E-04
(PID.TID 0000.0001) %MON vort_p_sd                    =   4.1188163483504E-05
(PID.TID 0000.0001) %MON surfExpan_theta_mean         =  -1.1270399454825E-07
(PID.TID 0000.0001) %MON surfExpan_salt_mean          =  -9.8615995229720E-07
(PID.TID 0000.0001) // =======================================================
(PID.TID 0000.0001) // End MONITOR dynamic field statistics
(PID.TID 0000.0001) // =======================================================
 cg2d: Sum(rhs),rhsMax =  -8.69698394722446E-01  2.78046458206125E-03
(PID.TID 0000.0001)                    cg2d_init_res =    1.25043687292678E-01
(PID.TID 0000.0001)                       cg2d_iters =    15
(PID.TID 0000.0001)                         cg2d_res =    2.14857392281596E-17
(PID.TID 0000.0001) // =======================================================
(PID.TID 0000.0001) // Begin MONITOR dynamic field statistics
(PID.TID 0000.0001) // =======================================================
(PID.TID 0000.0001) %MON time_tsnumber                =                    55
(PID.TID 0000.0001) %MON time_secondsf                =   1.9800000000000E+05
(PID.TID 0000.0001) %MON dynstat_eta_max              =   2.9800499388184E-04
(PID.TID 0000.0001) %MON dynstat_eta_min              =   2.9511667273709E-05
(PID.TID 0000.0001) %MON dynstat_eta_mean             =   1.5669712981736E-04
(PID.TID 0000.0001) %MON dynstat_eta_sd               =   9.2631359613839E-05
(PID.TID 0000.0001) %MON dynstat_eta_del2             =   3.3847912164168E-05
(PID.TID 0000.0001) %MON dynstat_uvel_max             =   1.0675387867069E-04
(PID.TID 0000.0001) %MON dynstat_uvel_min             =  -1.3445029061186E-03
(PID.TID 0000.0001) %MON dynstat_uvel_mean            =  -6.4141840779407E-05
(PID.TID 0000.0001) %MON dynstat_uvel_sd              =   1.7042408387884E-04
(PID.TID 0000.0001) %MON dynstat_uvel_del2            =   6.6694710794036E-05
(PID.TID 0000.0001) %MON dynstat_vvel_max             =   7.6270799784228E-03
(PID.TID 0000.0001) %MON dynstat_vvel_min             =  -8.4507724072234E-04
(PID.TID 0000.0001) %MON dynstat_vvel_mean            =   8.1964800983254E-05
(PID.TID 0000.0001) %MON dynstat_vvel_sd              =   1.0325736523890E-03
(PID.TID 0000.0001) %MON dynstat_vvel_del2            =   1.0677925547659E-04
(PID.TID 0000.0001) %MON dynstat_wvel_max             =   7.4626537589875E-07
(PID.TID 0000.0001) %MON dynstat_wvel_min             =  -7.0509821427000E-07
(PID.TID 0000.0001) %MON dynstat_wvel_mean            =  -1.5844762832373E-09
(PID.TID 0000.0001) %MON dynstat_wvel_sd              =   4.6613608393487E-07
(PID.TID 0000.0001) %MON dynstat_wvel_del2            =   2.6274972542530E-07
(PID.TID 0000.0001) %MON dynstat_theta_max            =   4.0000000000000E+00
(PID.TID 0000.0001) %MON dynstat_theta_min            =   4.0000000000000E+00
(PID.TID 0000.0001) %MON dynstat_theta_mean           =   4.0000000000000E+00
(PID.TID 0000.0001) %MON dynstat_theta_sd             =   0.0000000000000E+00
(PID.TID 0000.0001) %MON dynstat_theta_del2           =   0.0000000000000E+00
(PID.TID 0000.0001) %MON dynstat_salt_max             =   3.5000000000000E+01
(PID.TID 0000.0001) %MON dynstat_salt_min             =   3.5000000000000E+01
(PID.TID 0000.0001) %MON dynstat_salt_mean            =   3.5000000000000E+01
(PID.TID 0000.0001) %MON dynstat_salt_sd              =   0.0000000000000E+00
(PID.TID 0000.0001) %MON dynstat_salt_del2            =   0.0000000000000E+00
(PID.TID 0000.0001) %MON dynstat_sst_max              =   4.0000000000000E+00
(PID.TID 0000.0001) %MON dynstat_sst_min              =   4.0000000000000E+00
(PID.TID 0000.0001) %MON dynstat_sst_mean             =   4.0000000000000E+00
(PID.TID 0000.0001) %MON dynstat_sst_sd               =   0.0000000000000E+00
(PID.TID 0000.0001) %MON dynstat_sst_del2             =   0.0000000000000E+00
(PID.TID 0000.0001) %MON dynstat_sss_max              =   3.5000000000000E+01
(PID.TID 0000.0001) %MON dynstat_sss_min              =   3.5000000000000E+01
(PID.TID 0000.0001) %MON dynstat_sss_mean             =   3.5000000000000E+01
(PID.TID 0000.0001) %MON dynstat_sss_sd               =   0.0000000000000E+00
(PID.TID 0000.0001) %MON dynstat_sss_del2             =   0.0000000000000E+00
(PID.TID 0000.0001) %MON extforcing_qnet_max          =   0.0000000000000E+00
(PID.TID 0000.0001) %MON extforcing_qnet_min          =   0.0000000000000E+00
(PID.TID 0000.0001) %MON extforcing_qnet_mean         =   0.0000000000000E+00
(PID.TID 0000.0001) %MON extforcing_qnet_sd           =   0.0000000000000E+00
(PID.TID 0000.0001) %MON extforcing_qnet_del2         =   0.0000000000000E+00
(PID.TID 0000.0001) %MON extforcing_qsw_max           =   0.0000000000000E+00
(PID.TID 0000.0001) %MON extforcing_qsw_min           =   0.0000000000000E+00
(PID.TID 0000.0001) %MON extforcing_qsw_mean          =   0.0000000000000E+00
(PID.TID 0000.0001) %MON extforcing_qsw_sd            =   0.0000000000000E+00
(PID.TID 0000.0001) %MON extforcing_qsw_del2          =   0.0000000000000E+00
(PID.TID 0000.0001) %MON extforcing_empmr_max         =   0.0000000000000E+00
(PID.TID 0000.0001) %MON extforcing_empmr_min         =   0.0000000000000E+00
(PID.TID 0000.0001) %MON extforcing_empmr_mean        =   0.0000000000000E+00
(PID.TID 0000.0001) %MON extforcing_empmr_sd          =   0.0000000000000E+00
(PID.TID 0000.0001) %MON extforcing_empmr_del2        =   0.0000000000000E+00
(PID.TID 0000.0001) %MON extforcing_fu_max            =   1.0000000000000E-01
(PID.TID 0000.0001) %MON extforcing_fu_min            =   1.0000000000000E-01
(PID.TID 0000.0001) %MON extforcing_fu_mean           =   1.0000000000000E-01
(PID.TID 0000.0001) %MON extforcing_fu_sd             =   0.0000000000000E+00
(PID.TID 0000.0001) %MON extforcing_fu_del2           =   0.0000000000000E+00
(PID.TID 0000.0001) %MON extforcing_fv_max            =   0.0000000000000E+00
(PID.TID 0000.0001) %MON extforcing_fv_min            =   0.0000000000000E+00
(PID.TID 0000.0001) %MON extforcing_fv_mean           =   0.0000000000000E+00
(PID.TID 0000.0001) %MON extforcing_fv_sd             =   0.0000000000000E+00
(PID.TID 0000.0001) %MON extforcing_fv_del2           =   0.0000000000000E+00
(PID.TID 0000.0001) %MON advcfl_uvel_max              =   2.4201052310135E-05
(PID.TID 0000.0001) %MON advcfl_vvel_max              =   1.3728743961161E-04
(PID.TID 0000.0001) %MON advcfl_wvel_max              =   9.5872288565765E-06
(PID.TID 0000.0001) %MON advcfl_W_hf_max              =   2.3968072141441E-05
(PID.TID 0000.0001) %MON pe_b_mean                    =   3.6929816541337E-11
(PID.TID 0000.0001) %MON ke_max                       =   2.5505571132076E-05
(PID.TID 0000.0001) %MON ke_mean                      =   5.5304256015638E-07
(PID.TID 0000.0001) %MON ke_vol                       =   4.4009158039362E+15
(PID.TID 0000.0001) %MON vort_r_min                   =  -3.3905126832410E-09
(PID.TID 0000.0001) %MON vort_r_max                   =   4.9887661135660E-09
(PID.TID 0000.0001) %MON vort_a_mean                  =  -1.1390240000000E-04
(PID.TID 0000.0001) %MON vort_a_sd                    =   3.7032232619035E-06
(PID.TID 0000.0001) %MON vort_p_mean                  =  -1.5528913309106E-04
(PID.TID 0000.0001) %MON vort_p_sd                    =   4.1188163354464E-05
(PID.TID 0000.0001) %MON surfExpan_theta_mean         =  -7.8268325667925E-08
(PID.TID 0000.0001) %MON surfExpan_salt_mean          =  -6.8484784959435E-07
(PID.TID 0000.0001) // =======================================================
(PID.TID 0000.0001) // End MONITOR dynamic field statistics
(PID.TID 0000.0001) // =======================================================
 cg2d: Sum(rhs),rhsMax =  -7.64867805246178E-01  2.63730950806144E-03
(PID.TID 0000.0001)                    cg2d_init_res =    1.51571426803138E-01
(PID.TID 0000.0001)                       cg2d_iters =    14
(PID.TID 0000.0001)                         cg2d_res =    9.21608842462467E-14
(PID.TID 0000.0001) // =======================================================
(PID.TID 0000.0001) // Begin MONITOR dynamic field statistics
(PID.TID 0000.0001) // =======================================================
(PID.TID 0000.0001) %MON time_tsnumber                =                    56
(PID.TID 0000.0001) %MON time_secondsf                =   2.0160000000000E+05
(PID.TID 0000.0001) %MON dynstat_eta_max              =   2.6815396969411E-04
(PID.TID 0000.0001) %MON dynstat_eta_min              =   8.6639603396413E-06
(PID.TID 0000.0001) %MON dynstat_eta_mean             =   1.3071411516004E-04
(PID.TID 0000.0001) %MON dynstat_eta_sd               =   8.7805939114906E-05
(PID.TID 0000.0001) %MON dynstat_eta_del2             =   3.2673115193075E-05
(PID.TID 0000.0001) %MON dynstat_uvel_max             =   7.0455982849093E-04
(PID.TID 0000.0001) %MON dynstat_uvel_min             =  -1.7632085906082E-04
(PID.TID 0000.0001) %MON dynstat_uvel_mean            =  -5.7766702842463E-06
(PID.TID 0000.0001) %MON dynstat_uvel_sd              =   8.9877042525900E-05
(PID.TID 0000.0001) %MON dynstat_uvel_del2            =   6.2376237770895E-05
(PID.TID 0000.0001) %MON dynstat_vvel_max             =   7.4841878248001E-03
(PID.TID 0000.0001) %MON dynstat_vvel_min             =  -9.2952713199591E-04
(PID.TID 0000.0001) %MON dynstat_vvel_mean            =   6.6707067455733E-05
(PID.TID 0000.0001) %MON dynstat_vvel_sd              =   1.0125464582054E-03
(PID.TID 0000.0001) %MON dynstat_vvel_del2            =   1.0944582684010E-04
(PID.TID 0000.0001) %MON dynstat_wvel_max             =   8.2088593415984E-07
(PID.TID 0000.0001) %MON dynstat_wvel_min             =  -8.2813157698025E-07
(PID.TID 0000.0001) %MON dynstat_wvel_mean            =  -1.3644097641797E-09
(PID.TID 0000.0001) %MON dynstat_wvel_sd              =   5.1345611878164E-07
(PID.TID 0000.0001) %MON dynstat_wvel_del2            =   2.7369444374080E-07
(PID.TID 0000.0001) %MON dynstat_theta_max            =   4.0000000000000E+00
(PID.TID 0000.0001) %MON dynstat_theta_min            =   4.0000000000000E+00
(PID.TID 0000.0001) %MON dynstat_theta_mean           =   4.0000000000000E+00
(PID.TID 0000.0001) %MON dynstat_theta_sd             =   0.0000000000000E+00
(PID.TID 0000.0001) %MON dynstat_theta_del2           =   0.0000000000000E+00
(PID.TID 0000.0001) %MON dynstat_salt_max             =   3.5000000000000E+01
(PID.TID 0000.0001) %MON dynstat_salt_min             =   3.5000000000000E+01
(PID.TID 0000.0001) %MON dynstat_salt_mean            =   3.5000000000000E+01
(PID.TID 0000.0001) %MON dynstat_salt_sd              =   0.0000000000000E+00
(PID.TID 0000.0001) %MON dynstat_salt_del2            =   0.0000000000000E+00
(PID.TID 0000.0001) %MON dynstat_sst_max              =   4.0000000000000E+00
(PID.TID 0000.0001) %MON dynstat_sst_min              =   4.0000000000000E+00
(PID.TID 0000.0001) %MON dynstat_sst_mean             =   4.0000000000000E+00
(PID.TID 0000.0001) %MON dynstat_sst_sd               =   0.0000000000000E+00
(PID.TID 0000.0001) %MON dynstat_sst_del2             =   0.0000000000000E+00
(PID.TID 0000.0001) %MON dynstat_sss_max              =   3.5000000000000E+01
(PID.TID 0000.0001) %MON dynstat_sss_min              =   3.5000000000000E+01
(PID.TID 0000.0001) %MON dynstat_sss_mean             =   3.5000000000000E+01
(PID.TID 0000.0001) %MON dynstat_sss_sd               =   0.0000000000000E+00
(PID.TID 0000.0001) %MON dynstat_sss_del2             =   0.0000000000000E+00
(PID.TID 0000.0001) %MON extforcing_qnet_max          =   0.0000000000000E+00
(PID.TID 0000.0001) %MON extforcing_qnet_min          =   0.0000000000000E+00
(PID.TID 0000.0001) %MON extforcing_qnet_mean         =   0.0000000000000E+00
(PID.TID 0000.0001) %MON extforcing_qnet_sd           =   0.0000000000000E+00
(PID.TID 0000.0001) %MON extforcing_qnet_del2         =   0.0000000000000E+00
(PID.TID 0000.0001) %MON extforcing_qsw_max           =   0.0000000000000E+00
(PID.TID 0000.0001) %MON extforcing_qsw_min           =   0.0000000000000E+00
(PID.TID 0000.0001) %MON extforcing_qsw_mean          =   0.0000000000000E+00
(PID.TID 0000.0001) %MON extforcing_qsw_sd            =   0.0000000000000E+00
(PID.TID 0000.0001) %MON extforcing_qsw_del2          =   0.0000000000000E+00
(PID.TID 0000.0001) %MON extforcing_empmr_max         =   0.0000000000000E+00
(PID.TID 0000.0001) %MON extforcing_empmr_min         =   0.0000000000000E+00
(PID.TID 0000.0001) %MON extforcing_empmr_mean        =   0.0000000000000E+00
(PID.TID 0000.0001) %MON extforcing_empmr_sd          =   0.0000000000000E+00
(PID.TID 0000.0001) %MON extforcing_empmr_del2        =   0.0000000000000E+00
(PID.TID 0000.0001) %MON extforcing_fu_max            =   1.0000000000000E-01
(PID.TID 0000.0001) %MON extforcing_fu_min            =   1.0000000000000E-01
(PID.TID 0000.0001) %MON extforcing_fu_mean           =   1.0000000000000E-01
(PID.TID 0000.0001) %MON extforcing_fu_sd             =   0.0000000000000E+00
(PID.TID 0000.0001) %MON extforcing_fu_del2           =   0.0000000000000E+00
(PID.TID 0000.0001) %MON extforcing_fv_max            =   0.0000000000000E+00
(PID.TID 0000.0001) %MON extforcing_fv_min            =   0.0000000000000E+00
(PID.TID 0000.0001) %MON extforcing_fv_mean           =   0.0000000000000E+00
(PID.TID 0000.0001) %MON extforcing_fv_sd             =   0.0000000000000E+00
(PID.TID 0000.0001) %MON extforcing_fv_del2           =   0.0000000000000E+00
(PID.TID 0000.0001) %MON advcfl_uvel_max              =   1.2682076912837E-05
(PID.TID 0000.0001) %MON advcfl_vvel_max              =   1.3471538084640E-04
(PID.TID 0000.0001) %MON advcfl_wvel_max              =   1.0245020007936E-05
(PID.TID 0000.0001) %MON advcfl_W_hf_max              =   2.5612550019839E-05
(PID.TID 0000.0001) %MON pe_b_mean                    =   2.7636222476802E-11
(PID.TID 0000.0001) %MON ke_max                       =   2.4411866819920E-05
(PID.TID 0000.0001) %MON ke_mean                      =   5.1890570778276E-07
(PID.TID 0000.0001) %MON ke_vol                       =   4.4009158039362E+15
(PID.TID 0000.0001) %MON vort_r_min                   =  -3.0724752848064E-09
(PID.TID 0000.0001) %MON vort_r_max                   =   4.0622520869233E-09
(PID.TID 0000.0001) %MON vort_a_mean                  =  -1.1390240000000E-04
(PID.TID 0000.0001) %MON vort_a_sd                    =   3.7032299141650E-06
(PID.TID 0000.0001) %MON vort_p_mean                  =  -1.5528913309106E-04
(PID.TID 0000.0001) %MON vort_p_sd                    =   4.1188163315066E-05
(PID.TID 0000.0001) %MON surfExpan_theta_mean         =  -2.8870016285912E-08
(PID.TID 0000.0001) %MON surfExpan_salt_mean          =  -2.5261264250173E-07
(PID.TID 0000.0001) // =======================================================
(PID.TID 0000.0001) // End MONITOR dynamic field statistics
(PID.TID 0000.0001) // =======================================================
 cg2d: Sum(rhs),rhsMax =  -9.31747849420069E-01  2.54529703304591E-03
(PID.TID 0000.0001)                    cg2d_init_res =    1.79874224226638E-01
(PID.TID 0000.0001)                       cg2d_iters =    14
(PID.TID 0000.0001)                         cg2d_res =    5.54002066671159E-14
(PID.TID 0000.0001) // =======================================================
(PID.TID 0000.0001) // Begin MONITOR dynamic field statistics
(PID.TID 0000.0001) // =======================================================
(PID.TID 0000.0001) %MON time_tsnumber                =                    57
(PID.TID 0000.0001) %MON time_secondsf                =   2.0520000000000E+05
(PID.TID 0000.0001) %MON dynstat_eta_max              =   2.8636181299216E-04
(PID.TID 0000.0001) %MON dynstat_eta_min              =   3.7520536042160E-05
(PID.TID 0000.0001) %MON dynstat_eta_mean             =   1.5367806237659E-04
(PID.TID 0000.0001) %MON dynstat_eta_sd               =   8.2420945561601E-05
(PID.TID 0000.0001) %MON dynstat_eta_del2             =   3.1226877621116E-05
(PID.TID 0000.0001) %MON dynstat_uvel_max             =   1.6613671434207E-03
(PID.TID 0000.0001) %MON dynstat_uvel_min             =  -1.2344476433349E-04
(PID.TID 0000.0001) %MON dynstat_uvel_mean            =   5.2846150794701E-05
(PID.TID 0000.0001) %MON dynstat_uvel_sd              =   2.2404083053161E-04
(PID.TID 0000.0001) %MON dynstat_uvel_del2            =   5.9297500671860E-05
(PID.TID 0000.0001) %MON dynstat_vvel_max             =   7.7567266923832E-03
(PID.TID 0000.0001) %MON dynstat_vvel_min             =  -8.3641414412408E-04
(PID.TID 0000.0001) %MON dynstat_vvel_mean            =   7.8335595378512E-05
(PID.TID 0000.0001) %MON dynstat_vvel_sd              =   1.0481927179425E-03
(PID.TID 0000.0001) %MON dynstat_vvel_del2            =   1.0860112835571E-04
(PID.TID 0000.0001) %MON dynstat_wvel_max             =   8.3546280075148E-07
(PID.TID 0000.0001) %MON dynstat_wvel_min             =  -8.5058155749360E-07
(PID.TID 0000.0001) %MON dynstat_wvel_mean            =  -8.1019061986255E-10
(PID.TID 0000.0001) %MON dynstat_wvel_sd              =   5.1748112545334E-07
(PID.TID 0000.0001) %MON dynstat_wvel_del2            =   2.7583567863178E-07
(PID.TID 0000.0001) %MON dynstat_theta_max            =   4.0000000000000E+00
(PID.TID 0000.0001) %MON dynstat_theta_min            =   4.0000000000000E+00
(PID.TID 0000.0001) %MON dynstat_theta_mean           =   4.0000000000000E+00
(PID.TID 0000.0001) %MON dynstat_theta_sd             =   0.0000000000000E+00
(PID.TID 0000.0001) %MON dynstat_theta_del2           =   0.0000000000000E+00
(PID.TID 0000.0001) %MON dynstat_salt_max             =   3.5000000000000E+01
(PID.TID 0000.0001) %MON dynstat_salt_min             =   3.5000000000000E+01
(PID.TID 0000.0001) %MON dynstat_salt_mean            =   3.5000000000000E+01
(PID.TID 0000.0001) %MON dynstat_salt_sd              =   0.0000000000000E+00
(PID.TID 0000.0001) %MON dynstat_salt_del2            =   0.0000000000000E+00
(PID.TID 0000.0001) %MON dynstat_sst_max              =   4.0000000000000E+00
(PID.TID 0000.0001) %MON dynstat_sst_min              =   4.0000000000000E+00
(PID.TID 0000.0001) %MON dynstat_sst_mean             =   4.0000000000000E+00
(PID.TID 0000.0001) %MON dynstat_sst_sd               =   0.0000000000000E+00
(PID.TID 0000.0001) %MON dynstat_sst_del2             =   0.0000000000000E+00
(PID.TID 0000.0001) %MON dynstat_sss_max              =   3.5000000000000E+01
(PID.TID 0000.0001) %MON dynstat_sss_min              =   3.5000000000000E+01
(PID.TID 0000.0001) %MON dynstat_sss_mean             =   3.5000000000000E+01
(PID.TID 0000.0001) %MON dynstat_sss_sd               =   0.0000000000000E+00
(PID.TID 0000.0001) %MON dynstat_sss_del2             =   0.0000000000000E+00
(PID.TID 0000.0001) %MON extforcing_qnet_max          =   0.0000000000000E+00
(PID.TID 0000.0001) %MON extforcing_qnet_min          =   0.0000000000000E+00
(PID.TID 0000.0001) %MON extforcing_qnet_mean         =   0.0000000000000E+00
(PID.TID 0000.0001) %MON extforcing_qnet_sd           =   0.0000000000000E+00
(PID.TID 0000.0001) %MON extforcing_qnet_del2         =   0.0000000000000E+00
(PID.TID 0000.0001) %MON extforcing_qsw_max           =   0.0000000000000E+00
(PID.TID 0000.0001) %MON extforcing_qsw_min           =   0.0000000000000E+00
(PID.TID 0000.0001) %MON extforcing_qsw_mean          =   0.0000000000000E+00
(PID.TID 0000.0001) %MON extforcing_qsw_sd            =   0.0000000000000E+00
(PID.TID 0000.0001) %MON extforcing_qsw_del2          =   0.0000000000000E+00
(PID.TID 0000.0001) %MON extforcing_empmr_max         =   0.0000000000000E+00
(PID.TID 0000.0001) %MON extforcing_empmr_min         =   0.0000000000000E+00
(PID.TID 0000.0001) %MON extforcing_empmr_mean        =   0.0000000000000E+00
(PID.TID 0000.0001) %MON extforcing_empmr_sd          =   0.0000000000000E+00
(PID.TID 0000.0001) %MON extforcing_empmr_del2        =   0.0000000000000E+00
(PID.TID 0000.0001) %MON extforcing_fu_max            =   1.0000000000000E-01
(PID.TID 0000.0001) %MON extforcing_fu_min            =   1.0000000000000E-01
(PID.TID 0000.0001) %MON extforcing_fu_mean           =   1.0000000000000E-01
(PID.TID 0000.0001) %MON extforcing_fu_sd             =   0.0000000000000E+00
(PID.TID 0000.0001) %MON extforcing_fu_del2           =   0.0000000000000E+00
(PID.TID 0000.0001) %MON extforcing_fv_max            =   0.0000000000000E+00
(PID.TID 0000.0001) %MON extforcing_fv_min            =   0.0000000000000E+00
(PID.TID 0000.0001) %MON extforcing_fv_mean           =   0.0000000000000E+00
(PID.TID 0000.0001) %MON extforcing_fv_sd             =   0.0000000000000E+00
(PID.TID 0000.0001) %MON extforcing_fv_del2           =   0.0000000000000E+00
(PID.TID 0000.0001) %MON advcfl_uvel_max              =   2.9904608581573E-05
(PID.TID 0000.0001) %MON advcfl_vvel_max              =   1.3962108046290E-04
(PID.TID 0000.0001) %MON advcfl_wvel_max              =   1.0523022139077E-05
(PID.TID 0000.0001) %MON advcfl_W_hf_max              =   2.6307555347692E-05
(PID.TID 0000.0001) %MON pe_b_mean                    =   3.3893361551102E-11
(PID.TID 0000.0001) %MON ke_max                       =   2.7407835689814E-05
(PID.TID 0000.0001) %MON ke_mean                      =   5.7891572442500E-07
(PID.TID 0000.0001) %MON ke_vol                       =   4.4009158039362E+15
(PID.TID 0000.0001) %MON vort_r_min                   =  -2.7592185745214E-09
(PID.TID 0000.0001) %MON vort_r_max                   =   3.1523645116851E-09
(PID.TID 0000.0001) %MON vort_a_mean                  =  -1.1390240000000E-04
(PID.TID 0000.0001) %MON vort_a_sd                    =   3.7032366000143E-06
(PID.TID 0000.0001) %MON vort_p_mean                  =  -1.5528913309106E-04
(PID.TID 0000.0001) %MON vort_p_sd                    =   4.1188163297741E-05
(PID.TID 0000.0001) %MON surfExpan_theta_mean         =   2.5515496907278E-08
(PID.TID 0000.0001) %MON surfExpan_salt_mean          =   2.2326059793868E-07
(PID.TID 0000.0001) // =======================================================
(PID.TID 0000.0001) // End MONITOR dynamic field statistics
(PID.TID 0000.0001) // =======================================================
 cg2d: Sum(rhs),rhsMax =  -1.31074338891562E+00  2.59464768533879E-03
(PID.TID 0000.0001)                    cg2d_init_res =    1.85277176536869E-01
(PID.TID 0000.0001)                       cg2d_iters =    14
(PID.TID 0000.0001)                         cg2d_res =    3.04552427284148E-14
(PID.TID 0000.0001) // =======================================================
(PID.TID 0000.0001) // Begin MONITOR dynamic field statistics
(PID.TID 0000.0001) // =======================================================
(PID.TID 0000.0001) %MON time_tsnumber                =                    58
(PID.TID 0000.0001) %MON time_secondsf                =   2.0880000000000E+05
(PID.TID 0000.0001) %MON dynstat_eta_max              =   3.4827291225071E-04
(PID.TID 0000.0001) %MON dynstat_eta_min              =   1.0962191875009E-04
(PID.TID 0000.0001) %MON dynstat_eta_mean             =   2.2037944104797E-04
(PID.TID 0000.0001) %MON dynstat_eta_sd               =   7.7564303636824E-05
(PID.TID 0000.0001) %MON dynstat_eta_del2             =   2.9944259827635E-05
(PID.TID 0000.0001) %MON dynstat_uvel_max             =   2.3920780445160E-03
(PID.TID 0000.0001) %MON dynstat_uvel_min             =  -1.2520792478854E-04
(PID.TID 0000.0001) %MON dynstat_uvel_mean            =   1.0020467879963E-04
(PID.TID 0000.0001) %MON dynstat_uvel_sd              =   3.5122544057178E-04
(PID.TID 0000.0001) %MON dynstat_uvel_del2            =   5.7919796041440E-05
(PID.TID 0000.0001) %MON dynstat_vvel_max             =   8.3784808880306E-03
(PID.TID 0000.0001) %MON dynstat_vvel_min             =  -5.8632003218581E-04
(PID.TID 0000.0001) %MON dynstat_vvel_mean            =   1.1407715316925E-04
(PID.TID 0000.0001) %MON dynstat_vvel_sd              =   1.1347239498726E-03
(PID.TID 0000.0001) %MON dynstat_vvel_del2            =   1.0512306273695E-04
(PID.TID 0000.0001) %MON dynstat_wvel_max             =   7.9455243913909E-07
(PID.TID 0000.0001) %MON dynstat_wvel_min             =  -7.7589282173484E-07
(PID.TID 0000.0001) %MON dynstat_wvel_mean            =  -2.5793734023975E-11
(PID.TID 0000.0001) %MON dynstat_wvel_sd              =   4.8072932019353E-07
(PID.TID 0000.0001) %MON dynstat_wvel_del2            =   2.6984724809884E-07
(PID.TID 0000.0001) %MON dynstat_theta_max            =   4.0000000000000E+00
(PID.TID 0000.0001) %MON dynstat_theta_min            =   4.0000000000000E+00
(PID.TID 0000.0001) %MON dynstat_theta_mean           =   4.0000000000000E+00
(PID.TID 0000.0001) %MON dynstat_theta_sd             =   0.0000000000000E+00
(PID.TID 0000.0001) %MON dynstat_theta_del2           =   0.0000000000000E+00
(PID.TID 0000.0001) %MON dynstat_salt_max             =   3.5000000000000E+01
(PID.TID 0000.0001) %MON dynstat_salt_min             =   3.5000000000000E+01
(PID.TID 0000.0001) %MON dynstat_salt_mean            =   3.5000000000000E+01
(PID.TID 0000.0001) %MON dynstat_salt_sd              =   0.0000000000000E+00
(PID.TID 0000.0001) %MON dynstat_salt_del2            =   0.0000000000000E+00
(PID.TID 0000.0001) %MON dynstat_sst_max              =   4.0000000000000E+00
(PID.TID 0000.0001) %MON dynstat_sst_min              =   4.0000000000000E+00
(PID.TID 0000.0001) %MON dynstat_sst_mean             =   4.0000000000000E+00
(PID.TID 0000.0001) %MON dynstat_sst_sd               =   0.0000000000000E+00
(PID.TID 0000.0001) %MON dynstat_sst_del2             =   0.0000000000000E+00
(PID.TID 0000.0001) %MON dynstat_sss_max              =   3.5000000000000E+01
(PID.TID 0000.0001) %MON dynstat_sss_min              =   3.5000000000000E+01
(PID.TID 0000.0001) %MON dynstat_sss_mean             =   3.5000000000000E+01
(PID.TID 0000.0001) %MON dynstat_sss_sd               =   0.0000000000000E+00
(PID.TID 0000.0001) %MON dynstat_sss_del2             =   0.0000000000000E+00
(PID.TID 0000.0001) %MON extforcing_qnet_max          =   0.0000000000000E+00
(PID.TID 0000.0001) %MON extforcing_qnet_min          =   0.0000000000000E+00
(PID.TID 0000.0001) %MON extforcing_qnet_mean         =   0.0000000000000E+00
(PID.TID 0000.0001) %MON extforcing_qnet_sd           =   0.0000000000000E+00
(PID.TID 0000.0001) %MON extforcing_qnet_del2         =   0.0000000000000E+00
(PID.TID 0000.0001) %MON extforcing_qsw_max           =   0.0000000000000E+00
(PID.TID 0000.0001) %MON extforcing_qsw_min           =   0.0000000000000E+00
(PID.TID 0000.0001) %MON extforcing_qsw_mean          =   0.0000000000000E+00
(PID.TID 0000.0001) %MON extforcing_qsw_sd            =   0.0000000000000E+00
(PID.TID 0000.0001) %MON extforcing_qsw_del2          =   0.0000000000000E+00
(PID.TID 0000.0001) %MON extforcing_empmr_max         =   0.0000000000000E+00
(PID.TID 0000.0001) %MON extforcing_empmr_min         =   0.0000000000000E+00
(PID.TID 0000.0001) %MON extforcing_empmr_mean        =   0.0000000000000E+00
(PID.TID 0000.0001) %MON extforcing_empmr_sd          =   0.0000000000000E+00
(PID.TID 0000.0001) %MON extforcing_empmr_del2        =   0.0000000000000E+00
(PID.TID 0000.0001) %MON extforcing_fu_max            =   1.0000000000000E-01
(PID.TID 0000.0001) %MON extforcing_fu_min            =   1.0000000000000E-01
(PID.TID 0000.0001) %MON extforcing_fu_mean           =   1.0000000000000E-01
(PID.TID 0000.0001) %MON extforcing_fu_sd             =   0.0000000000000E+00
(PID.TID 0000.0001) %MON extforcing_fu_del2           =   0.0000000000000E+00
(PID.TID 0000.0001) %MON extforcing_fv_max            =   0.0000000000000E+00
(PID.TID 0000.0001) %MON extforcing_fv_min            =   0.0000000000000E+00
(PID.TID 0000.0001) %MON extforcing_fv_mean           =   0.0000000000000E+00
(PID.TID 0000.0001) %MON extforcing_fv_sd             =   0.0000000000000E+00
(PID.TID 0000.0001) %MON extforcing_fv_del2           =   0.0000000000000E+00
(PID.TID 0000.0001) %MON advcfl_uvel_max              =   4.3057404801289E-05
(PID.TID 0000.0001) %MON advcfl_vvel_max              =   1.5081265598455E-04
(PID.TID 0000.0001) %MON advcfl_wvel_max              =   1.0425298406490E-05
(PID.TID 0000.0001) %MON advcfl_W_hf_max              =   2.6063246016226E-05
(PID.TID 0000.0001) %MON pe_b_mean                    =   6.0835333547985E-11
(PID.TID 0000.0001) %MON ke_max                       =   3.3925187158212E-05
(PID.TID 0000.0001) %MON ke_mean                      =   7.1700616352393E-07
(PID.TID 0000.0001) %MON ke_vol                       =   4.4009158039362E+15
(PID.TID 0000.0001) %MON vort_r_min                   =  -2.6910147917574E-09
(PID.TID 0000.0001) %MON vort_r_max                   =   2.4721933926010E-09
(PID.TID 0000.0001) %MON vort_a_mean                  =  -1.1390240000000E-04
(PID.TID 0000.0001) %MON vort_a_sd                    =   3.7032421892244E-06
(PID.TID 0000.0001) %MON vort_p_mean                  =  -1.5528913309106E-04
(PID.TID 0000.0001) %MON vort_p_sd                    =   4.1188163223779E-05
(PID.TID 0000.0001) %MON surfExpan_theta_mean         =   7.4112642968199E-08
(PID.TID 0000.0001) %MON surfExpan_salt_mean          =   6.4848562597174E-07
(PID.TID 0000.0001) // =======================================================
(PID.TID 0000.0001) // End MONITOR dynamic field statistics
(PID.TID 0000.0001) // =======================================================
 cg2d: Sum(rhs),rhsMax =  -1.82960843215037E+00  2.67470088166806E-03
(PID.TID 0000.0001)                    cg2d_init_res =    1.69848570975484E-01
(PID.TID 0000.0001)                       cg2d_iters =    14
(PID.TID 0000.0001)                         cg2d_res =    4.06487621548554E-14
(PID.TID 0000.0001) // =======================================================
(PID.TID 0000.0001) // Begin MONITOR dynamic field statistics
(PID.TID 0000.0001) // =======================================================
(PID.TID 0000.0001) %MON time_tsnumber                =                    59
(PID.TID 0000.0001) %MON time_secondsf                =   2.1240000000000E+05
(PID.TID 0000.0001) %MON dynstat_eta_max              =   4.4103459657280E-04
(PID.TID 0000.0001) %MON dynstat_eta_min              =   2.1012970613700E-04
(PID.TID 0000.0001) %MON dynstat_eta_mean             =   3.1710886257038E-04
(PID.TID 0000.0001) %MON dynstat_eta_sd               =   7.4069358429667E-05
(PID.TID 0000.0001) %MON dynstat_eta_del2             =   2.9017900595802E-05
(PID.TID 0000.0001) %MON dynstat_uvel_max             =   2.7666268783744E-03
(PID.TID 0000.0001) %MON dynstat_uvel_min             =  -1.2447331901258E-04
(PID.TID 0000.0001) %MON dynstat_uvel_mean            =   1.2719897070674E-04
(PID.TID 0000.0001) %MON dynstat_uvel_sd              =   4.1666380960184E-04
(PID.TID 0000.0001) %MON dynstat_uvel_del2            =   5.8201375252384E-05
(PID.TID 0000.0001) %MON dynstat_vvel_max             =   9.2190768067245E-03
(PID.TID 0000.0001) %MON dynstat_vvel_min             =  -2.3130179357765E-04
(PID.TID 0000.0001) %MON dynstat_vvel_mean            =   1.6647174916720E-04
(PID.TID 0000.0001) %MON dynstat_vvel_sd              =   1.2601602028881E-03
(PID.TID 0000.0001) %MON dynstat_vvel_del2            =   1.0074304080477E-04
(PID.TID 0000.0001) %MON dynstat_wvel_max             =   7.1384185470675E-07
(PID.TID 0000.0001) %MON dynstat_wvel_min             =  -6.2763686383604E-07
(PID.TID 0000.0001) %MON dynstat_wvel_mean            =   8.3228618032113E-10
(PID.TID 0000.0001) %MON dynstat_wvel_sd              =   4.2020209636703E-07
(PID.TID 0000.0001) %MON dynstat_wvel_del2            =   2.5814358227068E-07
(PID.TID 0000.0001) %MON dynstat_theta_max            =   4.0000000000000E+00
(PID.TID 0000.0001) %MON dynstat_theta_min            =   4.0000000000000E+00
(PID.TID 0000.0001) %MON dynstat_theta_mean           =   4.0000000000000E+00
(PID.TID 0000.0001) %MON dynstat_theta_sd             =   0.0000000000000E+00
(PID.TID 0000.0001) %MON dynstat_theta_del2           =   0.0000000000000E+00
(PID.TID 0000.0001) %MON dynstat_salt_max             =   3.5000000000000E+01
(PID.TID 0000.0001) %MON dynstat_salt_min             =   3.5000000000000E+01
(PID.TID 0000.0001) %MON dynstat_salt_mean            =   3.5000000000000E+01
(PID.TID 0000.0001) %MON dynstat_salt_sd              =   0.0000000000000E+00
(PID.TID 0000.0001) %MON dynstat_salt_del2            =   0.0000000000000E+00
(PID.TID 0000.0001) %MON dynstat_sst_max              =   4.0000000000000E+00
(PID.TID 0000.0001) %MON dynstat_sst_min              =   4.0000000000000E+00
(PID.TID 0000.0001) %MON dynstat_sst_mean             =   4.0000000000000E+00
(PID.TID 0000.0001) %MON dynstat_sst_sd               =   0.0000000000000E+00
(PID.TID 0000.0001) %MON dynstat_sst_del2             =   0.0000000000000E+00
(PID.TID 0000.0001) %MON dynstat_sss_max              =   3.5000000000000E+01
(PID.TID 0000.0001) %MON dynstat_sss_min              =   3.5000000000000E+01
(PID.TID 0000.0001) %MON dynstat_sss_mean             =   3.5000000000000E+01
(PID.TID 0000.0001) %MON dynstat_sss_sd               =   0.0000000000000E+00
(PID.TID 0000.0001) %MON dynstat_sss_del2             =   0.0000000000000E+00
(PID.TID 0000.0001) %MON extforcing_qnet_max          =   0.0000000000000E+00
(PID.TID 0000.0001) %MON extforcing_qnet_min          =   0.0000000000000E+00
(PID.TID 0000.0001) %MON extforcing_qnet_mean         =   0.0000000000000E+00
(PID.TID 0000.0001) %MON extforcing_qnet_sd           =   0.0000000000000E+00
(PID.TID 0000.0001) %MON extforcing_qnet_del2         =   0.0000000000000E+00
(PID.TID 0000.0001) %MON extforcing_qsw_max           =   0.0000000000000E+00
(PID.TID 0000.0001) %MON extforcing_qsw_min           =   0.0000000000000E+00
(PID.TID 0000.0001) %MON extforcing_qsw_mean          =   0.0000000000000E+00
(PID.TID 0000.0001) %MON extforcing_qsw_sd            =   0.0000000000000E+00
(PID.TID 0000.0001) %MON extforcing_qsw_del2          =   0.0000000000000E+00
(PID.TID 0000.0001) %MON extforcing_empmr_max         =   0.0000000000000E+00
(PID.TID 0000.0001) %MON extforcing_empmr_min         =   0.0000000000000E+00
(PID.TID 0000.0001) %MON extforcing_empmr_mean        =   0.0000000000000E+00
(PID.TID 0000.0001) %MON extforcing_empmr_sd          =   0.0000000000000E+00
(PID.TID 0000.0001) %MON extforcing_empmr_del2        =   0.0000000000000E+00
(PID.TID 0000.0001) %MON extforcing_fu_max            =   1.0000000000000E-01
(PID.TID 0000.0001) %MON extforcing_fu_min            =   1.0000000000000E-01
(PID.TID 0000.0001) %MON extforcing_fu_mean           =   1.0000000000000E-01
(PID.TID 0000.0001) %MON extforcing_fu_sd             =   0.0000000000000E+00
(PID.TID 0000.0001) %MON extforcing_fu_del2           =   0.0000000000000E+00
(PID.TID 0000.0001) %MON extforcing_fv_max            =   0.0000000000000E+00
(PID.TID 0000.0001) %MON extforcing_fv_min            =   0.0000000000000E+00
(PID.TID 0000.0001) %MON extforcing_fv_mean           =   0.0000000000000E+00
(PID.TID 0000.0001) %MON extforcing_fv_sd             =   0.0000000000000E+00
(PID.TID 0000.0001) %MON extforcing_fv_del2           =   0.0000000000000E+00
(PID.TID 0000.0001) %MON advcfl_uvel_max              =   4.9799283810740E-05
(PID.TID 0000.0001) %MON advcfl_vvel_max              =   1.6594338252104E-04
(PID.TID 0000.0001) %MON advcfl_wvel_max              =   1.0030321183276E-05
(PID.TID 0000.0001) %MON advcfl_W_hf_max              =   2.5075802958191E-05
(PID.TID 0000.0001) %MON pe_b_mean                    =   1.1819069428097E-10
(PID.TID 0000.0001) %MON ke_max                       =   4.2493736829422E-05
(PID.TID 0000.0001) %MON ke_mean                      =   9.0275244429728E-07
(PID.TID 0000.0001) %MON ke_vol                       =   4.4009158039362E+15
(PID.TID 0000.0001) %MON vort_r_min                   =  -2.8933812619878E-09
(PID.TID 0000.0001) %MON vort_r_max                   =   2.1677921202044E-09
(PID.TID 0000.0001) %MON vort_a_mean                  =  -1.1390240000000E-04
(PID.TID 0000.0001) %MON vort_a_sd                    =   3.7032457547719E-06
(PID.TID 0000.0001) %MON vort_p_mean                  =  -1.5528913309106E-04
(PID.TID 0000.0001) %MON vort_p_sd                    =   4.1188163012383E-05
(PID.TID 0000.0001) %MON surfExpan_theta_mean         =   1.0747713502490E-07
(PID.TID 0000.0001) %MON surfExpan_salt_mean          =   9.4042493146785E-07
(PID.TID 0000.0001) // =======================================================
(PID.TID 0000.0001) // End MONITOR dynamic field statistics
(PID.TID 0000.0001) // =======================================================
 cg2d: Sum(rhs),rhsMax =  -2.36415409295801E+00  2.77096212192829E-03
(PID.TID 0000.0001)                    cg2d_init_res =    1.40501452001062E-01
(PID.TID 0000.0001)                       cg2d_iters =    14
(PID.TID 0000.0001)                         cg2d_res =    5.02990204263295E-14
(PID.TID 0000.0001) // =======================================================
(PID.TID 0000.0001) // Begin MONITOR dynamic field statistics
(PID.TID 0000.0001) // =======================================================
(PID.TID 0000.0001) %MON time_tsnumber                =                    60
(PID.TID 0000.0001) %MON time_secondsf                =   2.1600000000000E+05
(PID.TID 0000.0001) %MON dynstat_eta_max              =   5.4597414746446E-04
(PID.TID 0000.0001) %MON dynstat_eta_min              =   3.1889129984897E-04
(PID.TID 0000.0001) %MON dynstat_eta_mean             =   4.2450359744085E-04
(PID.TID 0000.0001) %MON dynstat_eta_sd               =   7.2394391705008E-05
(PID.TID 0000.0001) %MON dynstat_eta_del2             =   2.8843827904680E-05
(PID.TID 0000.0001) %MON dynstat_uvel_max             =   2.7288959561322E-03
(PID.TID 0000.0001) %MON dynstat_uvel_min             =  -1.2151394941084E-04
(PID.TID 0000.0001) %MON dynstat_uvel_mean            =   1.2889482987333E-04
(PID.TID 0000.0001) %MON dynstat_uvel_sd              =   4.0667421161600E-04
(PID.TID 0000.0001) %MON dynstat_uvel_del2            =   5.9441255032576E-05
(PID.TID 0000.0001) %MON dynstat_vvel_max             =   1.0111433049374E-02
(PID.TID 0000.0001) %MON dynstat_vvel_min             =  -6.9878354584856E-05
(PID.TID 0000.0001) %MON dynstat_vvel_mean            =   2.2492321141225E-04
(PID.TID 0000.0001) %MON dynstat_vvel_sd              =   1.4010051719206E-03
(PID.TID 0000.0001) %MON dynstat_vvel_del2            =   9.9525913958468E-05
(PID.TID 0000.0001) %MON dynstat_wvel_max             =   6.5752912870401E-07
(PID.TID 0000.0001) %MON dynstat_wvel_min             =  -4.4367533934012E-07
(PID.TID 0000.0001) %MON dynstat_wvel_mean            =   1.5863149913986E-09
(PID.TID 0000.0001) %MON dynstat_wvel_sd              =   3.6181859037321E-07
(PID.TID 0000.0001) %MON dynstat_wvel_del2            =   2.4425635705462E-07
(PID.TID 0000.0001) %MON dynstat_theta_max            =   4.0000000000000E+00
(PID.TID 0000.0001) %MON dynstat_theta_min            =   4.0000000000000E+00
(PID.TID 0000.0001) %MON dynstat_theta_mean           =   4.0000000000000E+00
(PID.TID 0000.0001) %MON dynstat_theta_sd             =   0.0000000000000E+00
(PID.TID 0000.0001) %MON dynstat_theta_del2           =   0.0000000000000E+00
(PID.TID 0000.0001) %MON dynstat_salt_max             =   3.5000000000000E+01
(PID.TID 0000.0001) %MON dynstat_salt_min             =   3.5000000000000E+01
(PID.TID 0000.0001) %MON dynstat_salt_mean            =   3.5000000000000E+01
(PID.TID 0000.0001) %MON dynstat_salt_sd              =   0.0000000000000E+00
(PID.TID 0000.0001) %MON dynstat_salt_del2            =   0.0000000000000E+00
(PID.TID 0000.0001) %MON dynstat_sst_max              =   4.0000000000000E+00
(PID.TID 0000.0001) %MON dynstat_sst_min              =   4.0000000000000E+00
(PID.TID 0000.0001) %MON dynstat_sst_mean             =   4.0000000000000E+00
(PID.TID 0000.0001) %MON dynstat_sst_sd               =   0.0000000000000E+00
(PID.TID 0000.0001) %MON dynstat_sst_del2             =   0.0000000000000E+00
(PID.TID 0000.0001) %MON dynstat_sss_max              =   3.5000000000000E+01
(PID.TID 0000.0001) %MON dynstat_sss_min              =   3.5000000000000E+01
(PID.TID 0000.0001) %MON dynstat_sss_mean             =   3.5000000000000E+01
(PID.TID 0000.0001) %MON dynstat_sss_sd               =   0.0000000000000E+00
(PID.TID 0000.0001) %MON dynstat_sss_del2             =   0.0000000000000E+00
(PID.TID 0000.0001) %MON extforcing_qnet_max          =   0.0000000000000E+00
(PID.TID 0000.0001) %MON extforcing_qnet_min          =   0.0000000000000E+00
(PID.TID 0000.0001) %MON extforcing_qnet_mean         =   0.0000000000000E+00
(PID.TID 0000.0001) %MON extforcing_qnet_sd           =   0.0000000000000E+00
(PID.TID 0000.0001) %MON extforcing_qnet_del2         =   0.0000000000000E+00
(PID.TID 0000.0001) %MON extforcing_qsw_max           =   0.0000000000000E+00
(PID.TID 0000.0001) %MON extforcing_qsw_min           =   0.0000000000000E+00
(PID.TID 0000.0001) %MON extforcing_qsw_mean          =   0.0000000000000E+00
(PID.TID 0000.0001) %MON extforcing_qsw_sd            =   0.0000000000000E+00
(PID.TID 0000.0001) %MON extforcing_qsw_del2          =   0.0000000000000E+00
(PID.TID 0000.0001) %MON extforcing_empmr_max         =   0.0000000000000E+00
(PID.TID 0000.0001) %MON extforcing_empmr_min         =   0.0000000000000E+00
(PID.TID 0000.0001) %MON extforcing_empmr_mean        =   0.0000000000000E+00
(PID.TID 0000.0001) %MON extforcing_empmr_sd          =   0.0000000000000E+00
(PID.TID 0000.0001) %MON extforcing_empmr_del2        =   0.0000000000000E+00
(PID.TID 0000.0001) %MON extforcing_fu_max            =   1.0000000000000E-01
(PID.TID 0000.0001) %MON extforcing_fu_min            =   1.0000000000000E-01
(PID.TID 0000.0001) %MON extforcing_fu_mean           =   1.0000000000000E-01
(PID.TID 0000.0001) %MON extforcing_fu_sd             =   0.0000000000000E+00
(PID.TID 0000.0001) %MON extforcing_fu_del2           =   0.0000000000000E+00
(PID.TID 0000.0001) %MON extforcing_fv_max            =   0.0000000000000E+00
(PID.TID 0000.0001) %MON extforcing_fv_min            =   0.0000000000000E+00
(PID.TID 0000.0001) %MON extforcing_fv_mean           =   0.0000000000000E+00
(PID.TID 0000.0001) %MON extforcing_fv_sd             =   0.0000000000000E+00
(PID.TID 0000.0001) %MON extforcing_fv_del2           =   0.0000000000000E+00
(PID.TID 0000.0001) %MON advcfl_uvel_max              =   4.9120127210380E-05
(PID.TID 0000.0001) %MON advcfl_vvel_max              =   1.8200579488873E-04
(PID.TID 0000.0001) %MON advcfl_wvel_max              =   1.0000347389244E-05
(PID.TID 0000.0001) %MON advcfl_W_hf_max              =   2.3671048633344E-05
(PID.TID 0000.0001) %MON pe_b_mean                    =   2.0668517588570E-10
(PID.TID 0000.0001) %MON ke_max                       =   5.1396462800041E-05
(PID.TID 0000.0001) %MON ke_mean                      =   1.0977018671709E-06
(PID.TID 0000.0001) %MON ke_vol                       =   4.4009158039362E+15
(PID.TID 0000.0001) %MON vort_r_min                   =  -2.9790343343277E-09
(PID.TID 0000.0001) %MON vort_r_max                   =   2.2917162261454E-09
(PID.TID 0000.0001) %MON vort_a_mean                  =  -1.1390240000000E-04
(PID.TID 0000.0001) %MON vort_a_sd                    =   3.7032467371259E-06
(PID.TID 0000.0001) %MON vort_p_mean                  =  -1.5528913309106E-04
(PID.TID 0000.0001) %MON vort_p_sd                    =   4.1188162591752E-05
(PID.TID 0000.0001) %MON surfExpan_theta_mean         =   1.1932748318941E-07
(PID.TID 0000.0001) %MON surfExpan_salt_mean          =   1.0441154779073E-06
(PID.TID 0000.0001) // =======================================================
(PID.TID 0000.0001) // End MONITOR dynamic field statistics
(PID.TID 0000.0001) // =======================================================
 cg2d: Sum(rhs),rhsMax =  -2.80794779573480E+00  2.86583706110111E-03
(PID.TID 0000.0001)                    cg2d_init_res =    1.12538874355394E-01
(PID.TID 0000.0001)                       cg2d_iters =    14
(PID.TID 0000.0001)                         cg2d_res =    6.56253378654926E-14
(PID.TID 0000.0001) // =======================================================
(PID.TID 0000.0001) // Begin MONITOR dynamic field statistics
(PID.TID 0000.0001) // =======================================================
(PID.TID 0000.0001) %MON time_tsnumber                =                    61
(PID.TID 0000.0001) %MON time_secondsf                =   2.1960000000000E+05
(PID.TID 0000.0001) %MON dynstat_eta_max              =   6.4324612369917E-04
(PID.TID 0000.0001) %MON dynstat_eta_min              =   4.1449374030196E-04
(PID.TID 0000.0001) %MON dynstat_eta_mean             =   5.2145343164078E-04
(PID.TID 0000.0001) %MON dynstat_eta_sd               =   7.2681007489208E-05
(PID.TID 0000.0001) %MON dynstat_eta_del2             =   2.8913549543032E-05
(PID.TID 0000.0001) %MON dynstat_uvel_max             =   2.3044153489008E-03
(PID.TID 0000.0001) %MON dynstat_uvel_min             =  -1.1713411251690E-04
(PID.TID 0000.0001) %MON dynstat_uvel_mean            =   1.0541754413155E-04
(PID.TID 0000.0001) %MON dynstat_uvel_sd              =   3.2597782852452E-04
(PID.TID 0000.0001) %MON dynstat_uvel_del2            =   6.1594318901096E-05
(PID.TID 0000.0001) %MON dynstat_vvel_max             =   1.0885185101820E-02
(PID.TID 0000.0001) %MON dynstat_vvel_min             =  -7.3683656990096E-05
(PID.TID 0000.0001) %MON dynstat_vvel_mean            =   2.7783774200689E-04
(PID.TID 0000.0001) %MON dynstat_vvel_sd              =   1.5269382954250E-03
(PID.TID 0000.0001) %MON dynstat_vvel_del2            =   1.0050946796218E-04
(PID.TID 0000.0001) %MON dynstat_wvel_max             =   6.1741569894038E-07
(PID.TID 0000.0001) %MON dynstat_wvel_min             =  -4.1637962587358E-07
(PID.TID 0000.0001) %MON dynstat_wvel_mean            =   2.0737847802618E-09
(PID.TID 0000.0001) %MON dynstat_wvel_sd              =   3.2816785530203E-07
(PID.TID 0000.0001) %MON dynstat_wvel_del2            =   2.3185458280070E-07
(PID.TID 0000.0001) %MON dynstat_theta_max            =   4.0000000000000E+00
(PID.TID 0000.0001) %MON dynstat_theta_min            =   4.0000000000000E+00
(PID.TID 0000.0001) %MON dynstat_theta_mean           =   4.0000000000000E+00
(PID.TID 0000.0001) %MON dynstat_theta_sd             =   0.0000000000000E+00
(PID.TID 0000.0001) %MON dynstat_theta_del2           =   0.0000000000000E+00
(PID.TID 0000.0001) %MON dynstat_salt_max             =   3.5000000000000E+01
(PID.TID 0000.0001) %MON dynstat_salt_min             =   3.5000000000000E+01
(PID.TID 0000.0001) %MON dynstat_salt_mean            =   3.5000000000000E+01
(PID.TID 0000.0001) %MON dynstat_salt_sd              =   0.0000000000000E+00
(PID.TID 0000.0001) %MON dynstat_salt_del2            =   0.0000000000000E+00
(PID.TID 0000.0001) %MON dynstat_sst_max              =   4.0000000000000E+00
(PID.TID 0000.0001) %MON dynstat_sst_min              =   4.0000000000000E+00
(PID.TID 0000.0001) %MON dynstat_sst_mean             =   4.0000000000000E+00
(PID.TID 0000.0001) %MON dynstat_sst_sd               =   0.0000000000000E+00
(PID.TID 0000.0001) %MON dynstat_sst_del2             =   0.0000000000000E+00
(PID.TID 0000.0001) %MON dynstat_sss_max              =   3.5000000000000E+01
(PID.TID 0000.0001) %MON dynstat_sss_min              =   3.5000000000000E+01
(PID.TID 0000.0001) %MON dynstat_sss_mean             =   3.5000000000000E+01
(PID.TID 0000.0001) %MON dynstat_sss_sd               =   0.0000000000000E+00
(PID.TID 0000.0001) %MON dynstat_sss_del2             =   0.0000000000000E+00
(PID.TID 0000.0001) %MON extforcing_qnet_max          =   0.0000000000000E+00
(PID.TID 0000.0001) %MON extforcing_qnet_min          =   0.0000000000000E+00
(PID.TID 0000.0001) %MON extforcing_qnet_mean         =   0.0000000000000E+00
(PID.TID 0000.0001) %MON extforcing_qnet_sd           =   0.0000000000000E+00
(PID.TID 0000.0001) %MON extforcing_qnet_del2         =   0.0000000000000E+00
(PID.TID 0000.0001) %MON extforcing_qsw_max           =   0.0000000000000E+00
(PID.TID 0000.0001) %MON extforcing_qsw_min           =   0.0000000000000E+00
(PID.TID 0000.0001) %MON extforcing_qsw_mean          =   0.0000000000000E+00
(PID.TID 0000.0001) %MON extforcing_qsw_sd            =   0.0000000000000E+00
(PID.TID 0000.0001) %MON extforcing_qsw_del2          =   0.0000000000000E+00
(PID.TID 0000.0001) %MON extforcing_empmr_max         =   0.0000000000000E+00
(PID.TID 0000.0001) %MON extforcing_empmr_min         =   0.0000000000000E+00
(PID.TID 0000.0001) %MON extforcing_empmr_mean        =   0.0000000000000E+00
(PID.TID 0000.0001) %MON extforcing_empmr_sd          =   0.0000000000000E+00
(PID.TID 0000.0001) %MON extforcing_empmr_del2        =   0.0000000000000E+00
(PID.TID 0000.0001) %MON extforcing_fu_max            =   1.0000000000000E-01
(PID.TID 0000.0001) %MON extforcing_fu_min            =   1.0000000000000E-01
(PID.TID 0000.0001) %MON extforcing_fu_mean           =   1.0000000000000E-01
(PID.TID 0000.0001) %MON extforcing_fu_sd             =   0.0000000000000E+00
(PID.TID 0000.0001) %MON extforcing_fu_del2           =   0.0000000000000E+00
(PID.TID 0000.0001) %MON extforcing_fv_max            =   0.0000000000000E+00
(PID.TID 0000.0001) %MON extforcing_fv_min            =   0.0000000000000E+00
(PID.TID 0000.0001) %MON extforcing_fv_mean           =   0.0000000000000E+00
(PID.TID 0000.0001) %MON extforcing_fv_sd             =   0.0000000000000E+00
(PID.TID 0000.0001) %MON extforcing_fv_del2           =   0.0000000000000E+00
(PID.TID 0000.0001) %MON advcfl_uvel_max              =   4.1479476280215E-05
(PID.TID 0000.0001) %MON advcfl_vvel_max              =   1.9593333183277E-04
(PID.TID 0000.0001) %MON advcfl_wvel_max              =   9.6788120347620E-06
(PID.TID 0000.0001) %MON advcfl_W_hf_max              =   2.2226965161854E-05
(PID.TID 0000.0001) %MON pe_b_mean                    =   3.0894647198454E-10
(PID.TID 0000.0001) %MON ke_max                       =   5.8875163914132E-05
(PID.TID 0000.0001) %MON ke_mean                      =   1.2630543861096E-06
(PID.TID 0000.0001) %MON ke_vol                       =   4.4009158039362E+15
(PID.TID 0000.0001) %MON vort_r_min                   =  -2.9514950297207E-09
(PID.TID 0000.0001) %MON vort_r_max                   =   2.7974182906614E-09
(PID.TID 0000.0001) %MON vort_a_mean                  =  -1.1390240000000E-04
(PID.TID 0000.0001) %MON vort_a_sd                    =   3.7032450395575E-06
(PID.TID 0000.0001) %MON vort_p_mean                  =  -1.5528913309106E-04
(PID.TID 0000.0001) %MON vort_p_sd                    =   4.1188161910334E-05
(PID.TID 0000.0001) %MON surfExpan_theta_mean         =   1.0772203799992E-07
(PID.TID 0000.0001) %MON surfExpan_salt_mean          =   9.4256783249932E-07
(PID.TID 0000.0001) // =======================================================
(PID.TID 0000.0001) // End MONITOR dynamic field statistics
(PID.TID 0000.0001) // =======================================================
 cg2d: Sum(rhs),rhsMax =  -3.09076538041143E+00  2.94225354196761E-03
(PID.TID 0000.0001)                    cg2d_init_res =    1.04384552355022E-01
(PID.TID 0000.0001)                       cg2d_iters =    14
(PID.TID 0000.0001)                         cg2d_res =    6.02865479240293E-14
(PID.TID 0000.0001) // =======================================================
(PID.TID 0000.0001) // Begin MONITOR dynamic field statistics
(PID.TID 0000.0001) // =======================================================
(PID.TID 0000.0001) %MON time_tsnumber                =                    62
(PID.TID 0000.0001) %MON time_secondsf                =   2.2320000000000E+05
(PID.TID 0000.0001) %MON dynstat_eta_max              =   7.1315726080858E-04
(PID.TID 0000.0001) %MON dynstat_eta_min              =   4.7849264986618E-04
(PID.TID 0000.0001) %MON dynstat_eta_mean             =   5.8927923713633E-04
(PID.TID 0000.0001) %MON dynstat_eta_sd               =   7.4839207325764E-05
(PID.TID 0000.0001) %MON dynstat_eta_del2             =   2.9198317729677E-05
(PID.TID 0000.0001) %MON dynstat_uvel_max             =   1.5919661540493E-03
(PID.TID 0000.0001) %MON dynstat_uvel_min             =  -1.1248432392853E-04
(PID.TID 0000.0001) %MON dynstat_uvel_mean            =   6.1835460671507E-05
(PID.TID 0000.0001) %MON dynstat_uvel_sd              =   1.9733355389933E-04
(PID.TID 0000.0001) %MON dynstat_uvel_del2            =   6.4957063044971E-05
(PID.TID 0000.0001) %MON dynstat_vvel_max             =   1.1399411171997E-02
(PID.TID 0000.0001) %MON dynstat_vvel_min             =  -7.2506519076443E-05
(PID.TID 0000.0001) %MON dynstat_vvel_mean            =   3.1491964271310E-04
(PID.TID 0000.0001) %MON dynstat_vvel_sd              =   1.6101341080343E-03
(PID.TID 0000.0001) %MON dynstat_vvel_del2            =   1.0166202635083E-04
(PID.TID 0000.0001) %MON dynstat_wvel_max             =   5.8878898797203E-07
(PID.TID 0000.0001) %MON dynstat_wvel_min             =  -4.6254333042747E-07
(PID.TID 0000.0001) %MON dynstat_wvel_mean            =   2.1816329590174E-09
(PID.TID 0000.0001) %MON dynstat_wvel_sd              =   3.2194429509642E-07
(PID.TID 0000.0001) %MON dynstat_wvel_del2            =   2.2586429287345E-07
(PID.TID 0000.0001) %MON dynstat_theta_max            =   4.0000000000000E+00
(PID.TID 0000.0001) %MON dynstat_theta_min            =   4.0000000000000E+00
(PID.TID 0000.0001) %MON dynstat_theta_mean           =   4.0000000000000E+00
(PID.TID 0000.0001) %MON dynstat_theta_sd             =   0.0000000000000E+00
(PID.TID 0000.0001) %MON dynstat_theta_del2           =   0.0000000000000E+00
(PID.TID 0000.0001) %MON dynstat_salt_max             =   3.5000000000000E+01
(PID.TID 0000.0001) %MON dynstat_salt_min             =   3.5000000000000E+01
(PID.TID 0000.0001) %MON dynstat_salt_mean            =   3.5000000000000E+01
(PID.TID 0000.0001) %MON dynstat_salt_sd              =   0.0000000000000E+00
(PID.TID 0000.0001) %MON dynstat_salt_del2            =   0.0000000000000E+00
(PID.TID 0000.0001) %MON dynstat_sst_max              =   4.0000000000000E+00
(PID.TID 0000.0001) %MON dynstat_sst_min              =   4.0000000000000E+00
(PID.TID 0000.0001) %MON dynstat_sst_mean             =   4.0000000000000E+00
(PID.TID 0000.0001) %MON dynstat_sst_sd               =   0.0000000000000E+00
(PID.TID 0000.0001) %MON dynstat_sst_del2             =   0.0000000000000E+00
(PID.TID 0000.0001) %MON dynstat_sss_max              =   3.5000000000000E+01
(PID.TID 0000.0001) %MON dynstat_sss_min              =   3.5000000000000E+01
(PID.TID 0000.0001) %MON dynstat_sss_mean             =   3.5000000000000E+01
(PID.TID 0000.0001) %MON dynstat_sss_sd               =   0.0000000000000E+00
(PID.TID 0000.0001) %MON dynstat_sss_del2             =   0.0000000000000E+00
(PID.TID 0000.0001) %MON extforcing_qnet_max          =   0.0000000000000E+00
(PID.TID 0000.0001) %MON extforcing_qnet_min          =   0.0000000000000E+00
(PID.TID 0000.0001) %MON extforcing_qnet_mean         =   0.0000000000000E+00
(PID.TID 0000.0001) %MON extforcing_qnet_sd           =   0.0000000000000E+00
(PID.TID 0000.0001) %MON extforcing_qnet_del2         =   0.0000000000000E+00
(PID.TID 0000.0001) %MON extforcing_qsw_max           =   0.0000000000000E+00
(PID.TID 0000.0001) %MON extforcing_qsw_min           =   0.0000000000000E+00
(PID.TID 0000.0001) %MON extforcing_qsw_mean          =   0.0000000000000E+00
(PID.TID 0000.0001) %MON extforcing_qsw_sd            =   0.0000000000000E+00
(PID.TID 0000.0001) %MON extforcing_qsw_del2          =   0.0000000000000E+00
(PID.TID 0000.0001) %MON extforcing_empmr_max         =   0.0000000000000E+00
(PID.TID 0000.0001) %MON extforcing_empmr_min         =   0.0000000000000E+00
(PID.TID 0000.0001) %MON extforcing_empmr_mean        =   0.0000000000000E+00
(PID.TID 0000.0001) %MON extforcing_empmr_sd          =   0.0000000000000E+00
(PID.TID 0000.0001) %MON extforcing_empmr_del2        =   0.0000000000000E+00
(PID.TID 0000.0001) %MON extforcing_fu_max            =   1.0000000000000E-01
(PID.TID 0000.0001) %MON extforcing_fu_min            =   1.0000000000000E-01
(PID.TID 0000.0001) %MON extforcing_fu_mean           =   1.0000000000000E-01
(PID.TID 0000.0001) %MON extforcing_fu_sd             =   0.0000000000000E+00
(PID.TID 0000.0001) %MON extforcing_fu_del2           =   0.0000000000000E+00
(PID.TID 0000.0001) %MON extforcing_fv_max            =   0.0000000000000E+00
(PID.TID 0000.0001) %MON extforcing_fv_min            =   0.0000000000000E+00
(PID.TID 0000.0001) %MON extforcing_fv_mean           =   0.0000000000000E+00
(PID.TID 0000.0001) %MON extforcing_fv_sd             =   0.0000000000000E+00
(PID.TID 0000.0001) %MON extforcing_fv_del2           =   0.0000000000000E+00
(PID.TID 0000.0001) %MON advcfl_uvel_max              =   2.8655390772888E-05
(PID.TID 0000.0001) %MON advcfl_vvel_max              =   2.0518940109594E-04
(PID.TID 0000.0001) %MON advcfl_wvel_max              =   8.9054614911194E-06
(PID.TID 0000.0001) %MON advcfl_W_hf_max              =   2.1196403566993E-05
(PID.TID 0000.0001) %MON pe_b_mean                    =   3.9326673594203E-10
(PID.TID 0000.0001) %MON ke_max                       =   6.3484645388938E-05
(PID.TID 0000.0001) %MON ke_mean                      =   1.3672351914564E-06
(PID.TID 0000.0001) %MON ke_vol                       =   4.4009158039362E+15
(PID.TID 0000.0001) %MON vort_r_min                   =  -2.8391797372367E-09
(PID.TID 0000.0001) %MON vort_r_max                   =   3.5545032281333E-09
(PID.TID 0000.0001) %MON vort_a_mean                  =  -1.1390240000000E-04
(PID.TID 0000.0001) %MON vort_a_sd                    =   3.7032410373260E-06
(PID.TID 0000.0001) %MON vort_p_mean                  =  -1.5528913309106E-04
(PID.TID 0000.0001) %MON vort_p_sd                    =   4.1188160946204E-05
(PID.TID 0000.0001) %MON surfExpan_theta_mean         =   7.5362006106175E-08
(PID.TID 0000.0001) %MON surfExpan_salt_mean          =   6.5941755342903E-07
(PID.TID 0000.0001) // =======================================================
(PID.TID 0000.0001) // End MONITOR dynamic field statistics
(PID.TID 0000.0001) // =======================================================
 cg2d: Sum(rhs),rhsMax =  -3.17911023925362E+00  2.98708407054007E-03
(PID.TID 0000.0001)                    cg2d_init_res =    1.18027990101060E-01
(PID.TID 0000.0001)                       cg2d_iters =    14
(PID.TID 0000.0001)                         cg2d_res =    4.58749894537072E-14
(PID.TID 0000.0001) // =======================================================
(PID.TID 0000.0001) // Begin MONITOR dynamic field statistics
(PID.TID 0000.0001) // =======================================================
(PID.TID 0000.0001) %MON time_tsnumber                =                    63
(PID.TID 0000.0001) %MON time_secondsf                =   2.2680000000000E+05
(PID.TID 0000.0001) %MON dynstat_eta_max              =   7.4210257692437E-04
(PID.TID 0000.0001) %MON dynstat_eta_min              =   4.9898225916469E-04
(PID.TID 0000.0001) %MON dynstat_eta_mean             =   6.1535826710991E-04
(PID.TID 0000.0001) %MON dynstat_eta_sd               =   7.8517315623332E-05
(PID.TID 0000.0001) %MON dynstat_eta_del2             =   3.0166977723522E-05
(PID.TID 0000.0001) %MON dynstat_uvel_max             =   7.4139270009514E-04
(PID.TID 0000.0001) %MON dynstat_uvel_min             =  -2.2604884297373E-04
(PID.TID 0000.0001) %MON dynstat_uvel_mean            =   7.0746067421490E-06
(PID.TID 0000.0001) %MON dynstat_uvel_sd              =   9.1115430948544E-05
(PID.TID 0000.0001) %MON dynstat_uvel_del2            =   6.9021889867830E-05
(PID.TID 0000.0001) %MON dynstat_vvel_max             =   1.1568389743438E-02
(PID.TID 0000.0001) %MON dynstat_vvel_min             =  -6.6403064333570E-05
(PID.TID 0000.0001) %MON dynstat_vvel_mean            =   3.2917035901127E-04
(PID.TID 0000.0001) %MON dynstat_vvel_sd              =   1.6331056880820E-03
(PID.TID 0000.0001) %MON dynstat_vvel_del2            =   1.0279958015281E-04
(PID.TID 0000.0001) %MON dynstat_wvel_max             =   5.8911796547326E-07
(PID.TID 0000.0001) %MON dynstat_wvel_min             =  -4.7241498019448E-07
(PID.TID 0000.0001) %MON dynstat_wvel_mean            =   1.8711028732025E-09
(PID.TID 0000.0001) %MON dynstat_wvel_sd              =   3.2943562498848E-07
(PID.TID 0000.0001) %MON dynstat_wvel_del2            =   2.2677125601309E-07
(PID.TID 0000.0001) %MON dynstat_theta_max            =   4.0000000000000E+00
(PID.TID 0000.0001) %MON dynstat_theta_min            =   4.0000000000000E+00
(PID.TID 0000.0001) %MON dynstat_theta_mean           =   4.0000000000000E+00
(PID.TID 0000.0001) %MON dynstat_theta_sd             =   0.0000000000000E+00
(PID.TID 0000.0001) %MON dynstat_theta_del2           =   0.0000000000000E+00
(PID.TID 0000.0001) %MON dynstat_salt_max             =   3.5000000000000E+01
(PID.TID 0000.0001) %MON dynstat_salt_min             =   3.5000000000000E+01
(PID.TID 0000.0001) %MON dynstat_salt_mean            =   3.5000000000000E+01
(PID.TID 0000.0001) %MON dynstat_salt_sd              =   0.0000000000000E+00
(PID.TID 0000.0001) %MON dynstat_salt_del2            =   0.0000000000000E+00
(PID.TID 0000.0001) %MON dynstat_sst_max              =   4.0000000000000E+00
(PID.TID 0000.0001) %MON dynstat_sst_min              =   4.0000000000000E+00
(PID.TID 0000.0001) %MON dynstat_sst_mean             =   4.0000000000000E+00
(PID.TID 0000.0001) %MON dynstat_sst_sd               =   0.0000000000000E+00
(PID.TID 0000.0001) %MON dynstat_sst_del2             =   0.0000000000000E+00
(PID.TID 0000.0001) %MON dynstat_sss_max              =   3.5000000000000E+01
(PID.TID 0000.0001) %MON dynstat_sss_min              =   3.5000000000000E+01
(PID.TID 0000.0001) %MON dynstat_sss_mean             =   3.5000000000000E+01
(PID.TID 0000.0001) %MON dynstat_sss_sd               =   0.0000000000000E+00
(PID.TID 0000.0001) %MON dynstat_sss_del2             =   0.0000000000000E+00
(PID.TID 0000.0001) %MON extforcing_qnet_max          =   0.0000000000000E+00
(PID.TID 0000.0001) %MON extforcing_qnet_min          =   0.0000000000000E+00
(PID.TID 0000.0001) %MON extforcing_qnet_mean         =   0.0000000000000E+00
(PID.TID 0000.0001) %MON extforcing_qnet_sd           =   0.0000000000000E+00
(PID.TID 0000.0001) %MON extforcing_qnet_del2         =   0.0000000000000E+00
(PID.TID 0000.0001) %MON extforcing_qsw_max           =   0.0000000000000E+00
(PID.TID 0000.0001) %MON extforcing_qsw_min           =   0.0000000000000E+00
(PID.TID 0000.0001) %MON extforcing_qsw_mean          =   0.0000000000000E+00
(PID.TID 0000.0001) %MON extforcing_qsw_sd            =   0.0000000000000E+00
(PID.TID 0000.0001) %MON extforcing_qsw_del2          =   0.0000000000000E+00
(PID.TID 0000.0001) %MON extforcing_empmr_max         =   0.0000000000000E+00
(PID.TID 0000.0001) %MON extforcing_empmr_min         =   0.0000000000000E+00
(PID.TID 0000.0001) %MON extforcing_empmr_mean        =   0.0000000000000E+00
(PID.TID 0000.0001) %MON extforcing_empmr_sd          =   0.0000000000000E+00
(PID.TID 0000.0001) %MON extforcing_empmr_del2        =   0.0000000000000E+00
(PID.TID 0000.0001) %MON extforcing_fu_max            =   1.0000000000000E-01
(PID.TID 0000.0001) %MON extforcing_fu_min            =   1.0000000000000E-01
(PID.TID 0000.0001) %MON extforcing_fu_mean           =   1.0000000000000E-01
(PID.TID 0000.0001) %MON extforcing_fu_sd             =   0.0000000000000E+00
(PID.TID 0000.0001) %MON extforcing_fu_del2           =   0.0000000000000E+00
(PID.TID 0000.0001) %MON extforcing_fv_max            =   0.0000000000000E+00
(PID.TID 0000.0001) %MON extforcing_fv_min            =   0.0000000000000E+00
(PID.TID 0000.0001) %MON extforcing_fv_mean           =   0.0000000000000E+00
(PID.TID 0000.0001) %MON extforcing_fv_sd             =   0.0000000000000E+00
(PID.TID 0000.0001) %MON extforcing_fv_del2           =   0.0000000000000E+00
(PID.TID 0000.0001) %MON advcfl_uvel_max              =   1.3345068601713E-05
(PID.TID 0000.0001) %MON advcfl_vvel_max              =   2.0823101538188E-04
(PID.TID 0000.0001) %MON advcfl_wvel_max              =   8.4832987028149E-06
(PID.TID 0000.0001) %MON advcfl_W_hf_max              =   2.1208246757037E-05
(PID.TID 0000.0001) %MON pe_b_mean                    =   4.2890957021519E-10
(PID.TID 0000.0001) %MON ke_max                       =   6.4398329476713E-05
(PID.TID 0000.0001) %MON ke_mean                      =   1.3918696927574E-06
(PID.TID 0000.0001) %MON ke_vol                       =   4.4009158039362E+15
(PID.TID 0000.0001) %MON vort_r_min                   =  -2.9092307174675E-09
(PID.TID 0000.0001) %MON vort_r_max                   =   4.3806730436964E-09
(PID.TID 0000.0001) %MON vort_a_mean                  =  -1.1390240000000E-04
(PID.TID 0000.0001) %MON vort_a_sd                    =   3.7032355004475E-06
(PID.TID 0000.0001) %MON vort_p_mean                  =  -1.5528913309106E-04
(PID.TID 0000.0001) %MON vort_p_sd                    =   4.1188159712754E-05
(PID.TID 0000.0001) %MON surfExpan_theta_mean         =   2.8976699970642E-08
(PID.TID 0000.0001) %MON surfExpan_salt_mean          =   2.5354612474312E-07
(PID.TID 0000.0001) // =======================================================
(PID.TID 0000.0001) // End MONITOR dynamic field statistics
(PID.TID 0000.0001) // =======================================================
 cg2d: Sum(rhs),rhsMax =  -3.06968980756676E+00  2.99369701908629E-03
(PID.TID 0000.0001)                    cg2d_init_res =    1.36440629871463E-01
(PID.TID 0000.0001)                       cg2d_iters =    14
(PID.TID 0000.0001)                         cg2d_res =    3.59438222075634E-14
(PID.TID 0000.0001) // =======================================================
(PID.TID 0000.0001) // Begin MONITOR dynamic field statistics
(PID.TID 0000.0001) // =======================================================
(PID.TID 0000.0001) %MON time_tsnumber                =                    64
(PID.TID 0000.0001) %MON time_secondsf                =   2.3040000000000E+05
(PID.TID 0000.0001) %MON dynstat_eta_max              =   7.2530006234236E-04
(PID.TID 0000.0001) %MON dynstat_eta_min              =   4.7281673083979E-04
(PID.TID 0000.0001) %MON dynstat_eta_mean             =   5.9549393547281E-04
(PID.TID 0000.0001) %MON dynstat_eta_sd               =   8.3032595697663E-05
(PID.TID 0000.0001) %MON dynstat_eta_del2             =   3.1478311712102E-05
(PID.TID 0000.0001) %MON dynstat_uvel_max             =   1.1963586133248E-04
(PID.TID 0000.0001) %MON dynstat_uvel_min             =  -1.1381473994257E-03
(PID.TID 0000.0001) %MON dynstat_uvel_mean            =  -4.7904833939996E-05
(PID.TID 0000.0001) %MON dynstat_uvel_sd              =   1.7052696934886E-04
(PID.TID 0000.0001) %MON dynstat_uvel_del2            =   7.2938225652053E-05
(PID.TID 0000.0001) %MON dynstat_vvel_max             =   1.1375717819424E-02
(PID.TID 0000.0001) %MON dynstat_vvel_min             =  -5.6579729163066E-05
(PID.TID 0000.0001) %MON dynstat_vvel_mean            =   3.1820352269679E-04
(PID.TID 0000.0001) %MON dynstat_vvel_sd              =   1.5928855703156E-03
(PID.TID 0000.0001) %MON dynstat_vvel_del2            =   1.0384647196579E-04
(PID.TID 0000.0001) %MON dynstat_wvel_max             =   5.9494655736875E-07
(PID.TID 0000.0001) %MON dynstat_wvel_min             =  -4.6865049193125E-07
(PID.TID 0000.0001) %MON dynstat_wvel_mean            =   1.1879166616421E-09
(PID.TID 0000.0001) %MON dynstat_wvel_sd              =   3.4351546760338E-07
(PID.TID 0000.0001) %MON dynstat_wvel_del2            =   2.3363105678115E-07
(PID.TID 0000.0001) %MON dynstat_theta_max            =   4.0000000000000E+00
(PID.TID 0000.0001) %MON dynstat_theta_min            =   4.0000000000000E+00
(PID.TID 0000.0001) %MON dynstat_theta_mean           =   4.0000000000000E+00
(PID.TID 0000.0001) %MON dynstat_theta_sd             =   0.0000000000000E+00
(PID.TID 0000.0001) %MON dynstat_theta_del2           =   0.0000000000000E+00
(PID.TID 0000.0001) %MON dynstat_salt_max             =   3.5000000000000E+01
(PID.TID 0000.0001) %MON dynstat_salt_min             =   3.5000000000000E+01
(PID.TID 0000.0001) %MON dynstat_salt_mean            =   3.5000000000000E+01
(PID.TID 0000.0001) %MON dynstat_salt_sd              =   0.0000000000000E+00
(PID.TID 0000.0001) %MON dynstat_salt_del2            =   0.0000000000000E+00
(PID.TID 0000.0001) %MON dynstat_sst_max              =   4.0000000000000E+00
(PID.TID 0000.0001) %MON dynstat_sst_min              =   4.0000000000000E+00
(PID.TID 0000.0001) %MON dynstat_sst_mean             =   4.0000000000000E+00
(PID.TID 0000.0001) %MON dynstat_sst_sd               =   0.0000000000000E+00
(PID.TID 0000.0001) %MON dynstat_sst_del2             =   0.0000000000000E+00
(PID.TID 0000.0001) %MON dynstat_sss_max              =   3.5000000000000E+01
(PID.TID 0000.0001) %MON dynstat_sss_min              =   3.5000000000000E+01
(PID.TID 0000.0001) %MON dynstat_sss_mean             =   3.5000000000000E+01
(PID.TID 0000.0001) %MON dynstat_sss_sd               =   0.0000000000000E+00
(PID.TID 0000.0001) %MON dynstat_sss_del2             =   0.0000000000000E+00
(PID.TID 0000.0001) %MON extforcing_qnet_max          =   0.0000000000000E+00
(PID.TID 0000.0001) %MON extforcing_qnet_min          =   0.0000000000000E+00
(PID.TID 0000.0001) %MON extforcing_qnet_mean         =   0.0000000000000E+00
(PID.TID 0000.0001) %MON extforcing_qnet_sd           =   0.0000000000000E+00
(PID.TID 0000.0001) %MON extforcing_qnet_del2         =   0.0000000000000E+00
(PID.TID 0000.0001) %MON extforcing_qsw_max           =   0.0000000000000E+00
(PID.TID 0000.0001) %MON extforcing_qsw_min           =   0.0000000000000E+00
(PID.TID 0000.0001) %MON extforcing_qsw_mean          =   0.0000000000000E+00
(PID.TID 0000.0001) %MON extforcing_qsw_sd            =   0.0000000000000E+00
(PID.TID 0000.0001) %MON extforcing_qsw_del2          =   0.0000000000000E+00
(PID.TID 0000.0001) %MON extforcing_empmr_max         =   0.0000000000000E+00
(PID.TID 0000.0001) %MON extforcing_empmr_min         =   0.0000000000000E+00
(PID.TID 0000.0001) %MON extforcing_empmr_mean        =   0.0000000000000E+00
(PID.TID 0000.0001) %MON extforcing_empmr_sd          =   0.0000000000000E+00
(PID.TID 0000.0001) %MON extforcing_empmr_del2        =   0.0000000000000E+00
(PID.TID 0000.0001) %MON extforcing_fu_max            =   1.0000000000000E-01
(PID.TID 0000.0001) %MON extforcing_fu_min            =   1.0000000000000E-01
(PID.TID 0000.0001) %MON extforcing_fu_mean           =   1.0000000000000E-01
(PID.TID 0000.0001) %MON extforcing_fu_sd             =   0.0000000000000E+00
(PID.TID 0000.0001) %MON extforcing_fu_del2           =   0.0000000000000E+00
(PID.TID 0000.0001) %MON extforcing_fv_max            =   0.0000000000000E+00
(PID.TID 0000.0001) %MON extforcing_fv_min            =   0.0000000000000E+00
(PID.TID 0000.0001) %MON extforcing_fv_mean           =   0.0000000000000E+00
(PID.TID 0000.0001) %MON extforcing_fv_sd             =   0.0000000000000E+00
(PID.TID 0000.0001) %MON extforcing_fv_del2           =   0.0000000000000E+00
(PID.TID 0000.0001) %MON advcfl_uvel_max              =   2.0486653189662E-05
(PID.TID 0000.0001) %MON advcfl_vvel_max              =   2.0476292074963E-04
(PID.TID 0000.0001) %MON advcfl_wvel_max              =   8.5672304261100E-06
(PID.TID 0000.0001) %MON advcfl_W_hf_max              =   2.1418076065275E-05
(PID.TID 0000.0001) %MON pe_b_mean                    =   4.0291477227588E-10
(PID.TID 0000.0001) %MON ke_max                       =   6.1576571218771E-05
(PID.TID 0000.0001) %MON ke_mean                      =   1.3349561211832E-06
(PID.TID 0000.0001) %MON ke_vol                       =   4.4009158039362E+15
(PID.TID 0000.0001) %MON vort_r_min                   =  -3.1506687052909E-09
(PID.TID 0000.0001) %MON vort_r_max                   =   5.0830436616659E-09
(PID.TID 0000.0001) %MON vort_a_mean                  =  -1.1390240000000E-04
(PID.TID 0000.0001) %MON vort_a_sd                    =   3.7032294462847E-06
(PID.TID 0000.0001) %MON vort_p_mean                  =  -1.5528913309106E-04
(PID.TID 0000.0001) %MON vort_p_sd                    =   4.1188158259398E-05
(PID.TID 0000.0001) %MON surfExpan_theta_mean         =  -2.2071479596784E-08
(PID.TID 0000.0001) %MON surfExpan_salt_mean          =  -1.9312544647186E-07
(PID.TID 0000.0001) // =======================================================
(PID.TID 0000.0001) // End MONITOR dynamic field statistics
(PID.TID 0000.0001) // =======================================================
 cg2d: Sum(rhs),rhsMax =  -2.74200030638382E+00  3.00868116540025E-03
(PID.TID 0000.0001)                    cg2d_init_res =    1.43802477918458E-01
(PID.TID 0000.0001)                       cg2d_iters =    14
(PID.TID 0000.0001)                         cg2d_res =    5.45160040559463E-14
(PID.TID 0000.0001) // =======================================================
(PID.TID 0000.0001) // Begin MONITOR dynamic field statistics
(PID.TID 0000.0001) // =======================================================
(PID.TID 0000.0001) %MON time_tsnumber                =                    65
(PID.TID 0000.0001) %MON time_secondsf                =   2.3400000000000E+05
(PID.TID 0000.0001) %MON dynstat_eta_max              =   6.6840259870489E-04
(PID.TID 0000.0001) %MON dynstat_eta_min              =   4.0607037823291E-04
(PID.TID 0000.0001) %MON dynstat_eta_mean             =   5.3458734309155E-04
(PID.TID 0000.0001) %MON dynstat_eta_sd               =   8.7435004695827E-05
(PID.TID 0000.0001) %MON dynstat_eta_del2             =   3.2760684362103E-05
(PID.TID 0000.0001) %MON dynstat_uvel_max             =   1.1713317903106E-04
(PID.TID 0000.0001) %MON dynstat_uvel_min             =  -1.8520528431841E-03
(PID.TID 0000.0001) %MON dynstat_uvel_mean            =  -9.2298572003513E-05
(PID.TID 0000.0001) %MON dynstat_uvel_sd              =   2.7866080740027E-04
(PID.TID 0000.0001) %MON dynstat_uvel_del2            =   7.5798568492973E-05
(PID.TID 0000.0001) %MON dynstat_vvel_max             =   1.0874552371713E-02
(PID.TID 0000.0001) %MON dynstat_vvel_min             =  -4.5136316076211E-05
(PID.TID 0000.0001) %MON dynstat_vvel_mean            =   2.8463007708469E-04
(PID.TID 0000.0001) %MON dynstat_vvel_sd              =   1.5013540719948E-03
(PID.TID 0000.0001) %MON dynstat_vvel_del2            =   1.0487310394891E-04
(PID.TID 0000.0001) %MON dynstat_wvel_max             =   6.2028669682009E-07
(PID.TID 0000.0001) %MON dynstat_wvel_min             =  -5.0311432571738E-07
(PID.TID 0000.0001) %MON dynstat_wvel_mean            =   2.5534536496616E-10
(PID.TID 0000.0001) %MON dynstat_wvel_sd              =   3.7127035195565E-07
(PID.TID 0000.0001) %MON dynstat_wvel_del2            =   2.4651538830192E-07
(PID.TID 0000.0001) %MON dynstat_theta_max            =   4.0000000000000E+00
(PID.TID 0000.0001) %MON dynstat_theta_min            =   4.0000000000000E+00
(PID.TID 0000.0001) %MON dynstat_theta_mean           =   4.0000000000000E+00
(PID.TID 0000.0001) %MON dynstat_theta_sd             =   0.0000000000000E+00
(PID.TID 0000.0001) %MON dynstat_theta_del2           =   0.0000000000000E+00
(PID.TID 0000.0001) %MON dynstat_salt_max             =   3.5000000000000E+01
(PID.TID 0000.0001) %MON dynstat_salt_min             =   3.5000000000000E+01
(PID.TID 0000.0001) %MON dynstat_salt_mean            =   3.5000000000000E+01
(PID.TID 0000.0001) %MON dynstat_salt_sd              =   0.0000000000000E+00
(PID.TID 0000.0001) %MON dynstat_salt_del2            =   0.0000000000000E+00
(PID.TID 0000.0001) %MON dynstat_sst_max              =   4.0000000000000E+00
(PID.TID 0000.0001) %MON dynstat_sst_min              =   4.0000000000000E+00
(PID.TID 0000.0001) %MON dynstat_sst_mean             =   4.0000000000000E+00
(PID.TID 0000.0001) %MON dynstat_sst_sd               =   0.0000000000000E+00
(PID.TID 0000.0001) %MON dynstat_sst_del2             =   0.0000000000000E+00
(PID.TID 0000.0001) %MON dynstat_sss_max              =   3.5000000000000E+01
(PID.TID 0000.0001) %MON dynstat_sss_min              =   3.5000000000000E+01
(PID.TID 0000.0001) %MON dynstat_sss_mean             =   3.5000000000000E+01
(PID.TID 0000.0001) %MON dynstat_sss_sd               =   0.0000000000000E+00
(PID.TID 0000.0001) %MON dynstat_sss_del2             =   0.0000000000000E+00
(PID.TID 0000.0001) %MON extforcing_qnet_max          =   0.0000000000000E+00
(PID.TID 0000.0001) %MON extforcing_qnet_min          =   0.0000000000000E+00
(PID.TID 0000.0001) %MON extforcing_qnet_mean         =   0.0000000000000E+00
(PID.TID 0000.0001) %MON extforcing_qnet_sd           =   0.0000000000000E+00
(PID.TID 0000.0001) %MON extforcing_qnet_del2         =   0.0000000000000E+00
(PID.TID 0000.0001) %MON extforcing_qsw_max           =   0.0000000000000E+00
(PID.TID 0000.0001) %MON extforcing_qsw_min           =   0.0000000000000E+00
(PID.TID 0000.0001) %MON extforcing_qsw_mean          =   0.0000000000000E+00
(PID.TID 0000.0001) %MON extforcing_qsw_sd            =   0.0000000000000E+00
(PID.TID 0000.0001) %MON extforcing_qsw_del2          =   0.0000000000000E+00
(PID.TID 0000.0001) %MON extforcing_empmr_max         =   0.0000000000000E+00
(PID.TID 0000.0001) %MON extforcing_empmr_min         =   0.0000000000000E+00
(PID.TID 0000.0001) %MON extforcing_empmr_mean        =   0.0000000000000E+00
(PID.TID 0000.0001) %MON extforcing_empmr_sd          =   0.0000000000000E+00
(PID.TID 0000.0001) %MON extforcing_empmr_del2        =   0.0000000000000E+00
(PID.TID 0000.0001) %MON extforcing_fu_max            =   1.0000000000000E-01
(PID.TID 0000.0001) %MON extforcing_fu_min            =   1.0000000000000E-01
(PID.TID 0000.0001) %MON extforcing_fu_mean           =   1.0000000000000E-01
(PID.TID 0000.0001) %MON extforcing_fu_sd             =   0.0000000000000E+00
(PID.TID 0000.0001) %MON extforcing_fu_del2           =   0.0000000000000E+00
(PID.TID 0000.0001) %MON extforcing_fv_max            =   0.0000000000000E+00
(PID.TID 0000.0001) %MON extforcing_fv_min            =   0.0000000000000E+00
(PID.TID 0000.0001) %MON extforcing_fv_mean           =   0.0000000000000E+00
(PID.TID 0000.0001) %MON extforcing_fv_sd             =   0.0000000000000E+00
(PID.TID 0000.0001) %MON extforcing_fv_del2           =   0.0000000000000E+00
(PID.TID 0000.0001) %MON advcfl_uvel_max              =   3.3336951177315E-05
(PID.TID 0000.0001) %MON advcfl_vvel_max              =   1.9574194269083E-04
(PID.TID 0000.0001) %MON advcfl_wvel_max              =   8.7342371956493E-06
(PID.TID 0000.0001) %MON advcfl_W_hf_max              =   2.1835592989123E-05
(PID.TID 0000.0001) %MON pe_b_mean                    =   3.2703802869965E-10
(PID.TID 0000.0001) %MON ke_max                       =   5.5745281501893E-05
(PID.TID 0000.0001) %MON ke_mean                      =   1.2106246011257E-06
(PID.TID 0000.0001) %MON ke_vol                       =   4.4009158039362E+15
(PID.TID 0000.0001) %MON vort_r_min                   =  -3.3441471942892E-09
(PID.TID 0000.0001) %MON vort_r_max                   =   5.4999647106734E-09
(PID.TID 0000.0001) %MON vort_a_mean                  =  -1.1390240000000E-04
(PID.TID 0000.0001) %MON vort_a_sd                    =   3.7032239509185E-06
(PID.TID 0000.0001) %MON vort_p_mean                  =  -1.5528913309106E-04
(PID.TID 0000.0001) %MON vort_p_sd                    =   4.1188156666783E-05
(PID.TID 0000.0001) %MON surfExpan_theta_mean         =  -6.7673991534731E-08
(PID.TID 0000.0001) %MON surfExpan_salt_mean          =  -5.9214742592890E-07
(PID.TID 0000.0001) // =======================================================
(PID.TID 0000.0001) // End MONITOR dynamic field statistics
(PID.TID 0000.0001) // =======================================================
 cg2d: Sum(rhs),rhsMax =  -2.22987018400976E+00  3.08320497040955E-03
(PID.TID 0000.0001)                    cg2d_init_res =    1.33341633478117E-01
(PID.TID 0000.0001)                       cg2d_iters =    14
(PID.TID 0000.0001)                         cg2d_res =    7.33783108140329E-14
(PID.TID 0000.0001) // =======================================================
(PID.TID 0000.0001) // Begin MONITOR dynamic field statistics
(PID.TID 0000.0001) // =======================================================
(PID.TID 0000.0001) %MON time_tsnumber                =                    66
(PID.TID 0000.0001) %MON time_secondsf                =   2.3760000000000E+05
(PID.TID 0000.0001) %MON dynstat_eta_max              =   5.8564175462424E-04
(PID.TID 0000.0001) %MON dynstat_eta_min              =   3.1267799345022E-04
(PID.TID 0000.0001) %MON dynstat_eta_mean             =   4.4550951488901E-04
(PID.TID 0000.0001) %MON dynstat_eta_sd               =   9.0733542236126E-05
(PID.TID 0000.0001) %MON dynstat_eta_del2             =   3.3980088254371E-05
(PID.TID 0000.0001) %MON dynstat_uvel_max             =   1.1452889134395E-04
(PID.TID 0000.0001) %MON dynstat_uvel_min             =  -2.1888743874356E-03
(PID.TID 0000.0001) %MON dynstat_uvel_mean            =  -1.1757792199713E-04
(PID.TID 0000.0001) %MON dynstat_uvel_sd              =   3.3523428039500E-04
(PID.TID 0000.0001) %MON dynstat_uvel_del2            =   7.6940318148999E-05
(PID.TID 0000.0001) %MON dynstat_vvel_max             =   1.0174500656842E-02
(PID.TID 0000.0001) %MON dynstat_vvel_min             =  -4.8698454835214E-05
(PID.TID 0000.0001) %MON dynstat_vvel_mean            =   2.3545470125629E-04
(PID.TID 0000.0001) %MON dynstat_vvel_sd              =   1.3818959048221E-03
(PID.TID 0000.0001) %MON dynstat_vvel_del2            =   1.0665720747129E-04
(PID.TID 0000.0001) %MON dynstat_wvel_max             =   6.7159503776428E-07
(PID.TID 0000.0001) %MON dynstat_wvel_min             =  -5.3811481987777E-07
(PID.TID 0000.0001) %MON dynstat_wvel_mean            =  -7.4876871821523E-10
(PID.TID 0000.0001) %MON dynstat_wvel_sd              =   4.1969520598041E-07
(PID.TID 0000.0001) %MON dynstat_wvel_del2            =   2.6414512747645E-07
(PID.TID 0000.0001) %MON dynstat_theta_max            =   4.0000000000000E+00
(PID.TID 0000.0001) %MON dynstat_theta_min            =   4.0000000000000E+00
(PID.TID 0000.0001) %MON dynstat_theta_mean           =   4.0000000000000E+00
(PID.TID 0000.0001) %MON dynstat_theta_sd             =   0.0000000000000E+00
(PID.TID 0000.0001) %MON dynstat_theta_del2           =   0.0000000000000E+00
(PID.TID 0000.0001) %MON dynstat_salt_max             =   3.5000000000000E+01
(PID.TID 0000.0001) %MON dynstat_salt_min             =   3.5000000000000E+01
(PID.TID 0000.0001) %MON dynstat_salt_mean            =   3.5000000000000E+01
(PID.TID 0000.0001) %MON dynstat_salt_sd              =   0.0000000000000E+00
(PID.TID 0000.0001) %MON dynstat_salt_del2            =   0.0000000000000E+00
(PID.TID 0000.0001) %MON dynstat_sst_max              =   4.0000000000000E+00
(PID.TID 0000.0001) %MON dynstat_sst_min              =   4.0000000000000E+00
(PID.TID 0000.0001) %MON dynstat_sst_mean             =   4.0000000000000E+00
(PID.TID 0000.0001) %MON dynstat_sst_sd               =   0.0000000000000E+00
(PID.TID 0000.0001) %MON dynstat_sst_del2             =   0.0000000000000E+00
(PID.TID 0000.0001) %MON dynstat_sss_max              =   3.5000000000000E+01
(PID.TID 0000.0001) %MON dynstat_sss_min              =   3.5000000000000E+01
(PID.TID 0000.0001) %MON dynstat_sss_mean             =   3.5000000000000E+01
(PID.TID 0000.0001) %MON dynstat_sss_sd               =   0.0000000000000E+00
(PID.TID 0000.0001) %MON dynstat_sss_del2             =   0.0000000000000E+00
(PID.TID 0000.0001) %MON extforcing_qnet_max          =   0.0000000000000E+00
(PID.TID 0000.0001) %MON extforcing_qnet_min          =   0.0000000000000E+00
(PID.TID 0000.0001) %MON extforcing_qnet_mean         =   0.0000000000000E+00
(PID.TID 0000.0001) %MON extforcing_qnet_sd           =   0.0000000000000E+00
(PID.TID 0000.0001) %MON extforcing_qnet_del2         =   0.0000000000000E+00
(PID.TID 0000.0001) %MON extforcing_qsw_max           =   0.0000000000000E+00
(PID.TID 0000.0001) %MON extforcing_qsw_min           =   0.0000000000000E+00
(PID.TID 0000.0001) %MON extforcing_qsw_mean          =   0.0000000000000E+00
(PID.TID 0000.0001) %MON extforcing_qsw_sd            =   0.0000000000000E+00
(PID.TID 0000.0001) %MON extforcing_qsw_del2          =   0.0000000000000E+00
(PID.TID 0000.0001) %MON extforcing_empmr_max         =   0.0000000000000E+00
(PID.TID 0000.0001) %MON extforcing_empmr_min         =   0.0000000000000E+00
(PID.TID 0000.0001) %MON extforcing_empmr_mean        =   0.0000000000000E+00
(PID.TID 0000.0001) %MON extforcing_empmr_sd          =   0.0000000000000E+00
(PID.TID 0000.0001) %MON extforcing_empmr_del2        =   0.0000000000000E+00
(PID.TID 0000.0001) %MON extforcing_fu_max            =   1.0000000000000E-01
(PID.TID 0000.0001) %MON extforcing_fu_min            =   1.0000000000000E-01
(PID.TID 0000.0001) %MON extforcing_fu_mean           =   1.0000000000000E-01
(PID.TID 0000.0001) %MON extforcing_fu_sd             =   0.0000000000000E+00
(PID.TID 0000.0001) %MON extforcing_fu_del2           =   0.0000000000000E+00
(PID.TID 0000.0001) %MON extforcing_fv_max            =   0.0000000000000E+00
(PID.TID 0000.0001) %MON extforcing_fv_min            =   0.0000000000000E+00
(PID.TID 0000.0001) %MON extforcing_fv_mean           =   0.0000000000000E+00
(PID.TID 0000.0001) %MON extforcing_fv_sd             =   0.0000000000000E+00
(PID.TID 0000.0001) %MON extforcing_fv_del2           =   0.0000000000000E+00
(PID.TID 0000.0001) %MON advcfl_uvel_max              =   3.9399738973842E-05
(PID.TID 0000.0001) %MON advcfl_vvel_max              =   1.8314101182316E-04
(PID.TID 0000.0001) %MON advcfl_wvel_max              =   8.9743768738882E-06
(PID.TID 0000.0001) %MON advcfl_W_hf_max              =   2.2435942184720E-05
(PID.TID 0000.0001) %MON pe_b_mean                    =   2.3038817124684E-10
(PID.TID 0000.0001) %MON ke_max                       =   4.8195841110571E-05
(PID.TID 0000.0001) %MON ke_mean                      =   1.0456408993005E-06
(PID.TID 0000.0001) %MON ke_vol                       =   4.4009158039362E+15
(PID.TID 0000.0001) %MON vort_r_min                   =  -3.4574962146491E-09
(PID.TID 0000.0001) %MON vort_r_max                   =   5.5347527942126E-09
(PID.TID 0000.0001) %MON vort_a_mean                  =  -1.1390240000000E-04
(PID.TID 0000.0001) %MON vort_a_sd                    =   3.7032199548758E-06
(PID.TID 0000.0001) %MON vort_p_mean                  =  -1.5528913309106E-04
(PID.TID 0000.0001) %MON vort_p_sd                    =   4.1188155036802E-05
(PID.TID 0000.0001) %MON surfExpan_theta_mean         =  -9.8975364669485E-08
(PID.TID 0000.0001) %MON surfExpan_salt_mean          =  -8.6603444085800E-07
(PID.TID 0000.0001) // =======================================================
(PID.TID 0000.0001) // End MONITOR dynamic field statistics
(PID.TID 0000.0001) // =======================================================
 cg2d: Sum(rhs),rhsMax =  -1.72892384261745E+00  3.09216603140173E-03
(PID.TID 0000.0001)                    cg2d_init_res =    1.14764690383248E-01
(PID.TID 0000.0001)                       cg2d_iters =    14
(PID.TID 0000.0001)                         cg2d_res =    6.42592786139099E-14
(PID.TID 0000.0001) // =======================================================
(PID.TID 0000.0001) // Begin MONITOR dynamic field statistics
(PID.TID 0000.0001) // =======================================================
(PID.TID 0000.0001) %MON time_tsnumber                =                    67
(PID.TID 0000.0001) %MON time_secondsf                =   2.4120000000000E+05
(PID.TID 0000.0001) %MON dynstat_eta_max              =   4.8975170725405E-04
(PID.TID 0000.0001) %MON dynstat_eta_min              =   2.1155533003463E-04
(PID.TID 0000.0001) %MON dynstat_eta_mean             =   3.4642854859104E-04
(PID.TID 0000.0001) %MON dynstat_eta_sd               =   9.2170677139339E-05
(PID.TID 0000.0001) %MON dynstat_eta_del2             =   3.4700664052290E-05
(PID.TID 0000.0001) %MON dynstat_uvel_max             =   1.1247940579138E-04
(PID.TID 0000.0001) %MON dynstat_uvel_min             =  -2.0962662636521E-03
(PID.TID 0000.0001) %MON dynstat_uvel_mean            =  -1.1912404196792E-04
(PID.TID 0000.0001) %MON dynstat_uvel_sd              =   3.2520243687093E-04
(PID.TID 0000.0001) %MON dynstat_uvel_del2            =   7.6180125384441E-05
(PID.TID 0000.0001) %MON dynstat_vvel_max             =   9.4182313807194E-03
(PID.TID 0000.0001) %MON dynstat_vvel_min             =  -3.0451500592807E-04
(PID.TID 0000.0001) %MON dynstat_vvel_mean            =   1.8062002753916E-04
(PID.TID 0000.0001) %MON dynstat_vvel_sd              =   1.2627363048140E-03
(PID.TID 0000.0001) %MON dynstat_vvel_del2            =   1.1002909233637E-04
(PID.TID 0000.0001) %MON dynstat_wvel_max             =   7.2168920384294E-07
(PID.TID 0000.0001) %MON dynstat_wvel_min             =  -5.9130329262635E-07
(PID.TID 0000.0001) %MON dynstat_wvel_mean            =  -1.6266658213772E-09
(PID.TID 0000.0001) %MON dynstat_wvel_sd              =   4.8078867254019E-07
(PID.TID 0000.0001) %MON dynstat_wvel_del2            =   2.8324364365395E-07
(PID.TID 0000.0001) %MON dynstat_theta_max            =   4.0000000000000E+00
(PID.TID 0000.0001) %MON dynstat_theta_min            =   4.0000000000000E+00
(PID.TID 0000.0001) %MON dynstat_theta_mean           =   4.0000000000000E+00
(PID.TID 0000.0001) %MON dynstat_theta_sd             =   0.0000000000000E+00
(PID.TID 0000.0001) %MON dynstat_theta_del2           =   0.0000000000000E+00
(PID.TID 0000.0001) %MON dynstat_salt_max             =   3.5000000000000E+01
(PID.TID 0000.0001) %MON dynstat_salt_min             =   3.5000000000000E+01
(PID.TID 0000.0001) %MON dynstat_salt_mean            =   3.5000000000000E+01
(PID.TID 0000.0001) %MON dynstat_salt_sd              =   0.0000000000000E+00
(PID.TID 0000.0001) %MON dynstat_salt_del2            =   0.0000000000000E+00
(PID.TID 0000.0001) %MON dynstat_sst_max              =   4.0000000000000E+00
(PID.TID 0000.0001) %MON dynstat_sst_min              =   4.0000000000000E+00
(PID.TID 0000.0001) %MON dynstat_sst_mean             =   4.0000000000000E+00
(PID.TID 0000.0001) %MON dynstat_sst_sd               =   0.0000000000000E+00
(PID.TID 0000.0001) %MON dynstat_sst_del2             =   0.0000000000000E+00
(PID.TID 0000.0001) %MON dynstat_sss_max              =   3.5000000000000E+01
(PID.TID 0000.0001) %MON dynstat_sss_min              =   3.5000000000000E+01
(PID.TID 0000.0001) %MON dynstat_sss_mean             =   3.5000000000000E+01
(PID.TID 0000.0001) %MON dynstat_sss_sd               =   0.0000000000000E+00
(PID.TID 0000.0001) %MON dynstat_sss_del2             =   0.0000000000000E+00
(PID.TID 0000.0001) %MON extforcing_qnet_max          =   0.0000000000000E+00
(PID.TID 0000.0001) %MON extforcing_qnet_min          =   0.0000000000000E+00
(PID.TID 0000.0001) %MON extforcing_qnet_mean         =   0.0000000000000E+00
(PID.TID 0000.0001) %MON extforcing_qnet_sd           =   0.0000000000000E+00
(PID.TID 0000.0001) %MON extforcing_qnet_del2         =   0.0000000000000E+00
(PID.TID 0000.0001) %MON extforcing_qsw_max           =   0.0000000000000E+00
(PID.TID 0000.0001) %MON extforcing_qsw_min           =   0.0000000000000E+00
(PID.TID 0000.0001) %MON extforcing_qsw_mean          =   0.0000000000000E+00
(PID.TID 0000.0001) %MON extforcing_qsw_sd            =   0.0000000000000E+00
(PID.TID 0000.0001) %MON extforcing_qsw_del2          =   0.0000000000000E+00
(PID.TID 0000.0001) %MON extforcing_empmr_max         =   0.0000000000000E+00
(PID.TID 0000.0001) %MON extforcing_empmr_min         =   0.0000000000000E+00
(PID.TID 0000.0001) %MON extforcing_empmr_mean        =   0.0000000000000E+00
(PID.TID 0000.0001) %MON extforcing_empmr_sd          =   0.0000000000000E+00
(PID.TID 0000.0001) %MON extforcing_empmr_del2        =   0.0000000000000E+00
(PID.TID 0000.0001) %MON extforcing_fu_max            =   1.0000000000000E-01
(PID.TID 0000.0001) %MON extforcing_fu_min            =   1.0000000000000E-01
(PID.TID 0000.0001) %MON extforcing_fu_mean           =   1.0000000000000E-01
(PID.TID 0000.0001) %MON extforcing_fu_sd             =   0.0000000000000E+00
(PID.TID 0000.0001) %MON extforcing_fu_del2           =   0.0000000000000E+00
(PID.TID 0000.0001) %MON extforcing_fv_max            =   0.0000000000000E+00
(PID.TID 0000.0001) %MON extforcing_fv_min            =   0.0000000000000E+00
(PID.TID 0000.0001) %MON extforcing_fv_mean           =   0.0000000000000E+00
(PID.TID 0000.0001) %MON extforcing_fv_sd             =   0.0000000000000E+00
(PID.TID 0000.0001) %MON extforcing_fv_del2           =   0.0000000000000E+00
(PID.TID 0000.0001) %MON advcfl_uvel_max              =   3.7732792745738E-05
(PID.TID 0000.0001) %MON advcfl_vvel_max              =   1.6952816485295E-04
(PID.TID 0000.0001) %MON advcfl_wvel_max              =   9.4915255301238E-06
(PID.TID 0000.0001) %MON advcfl_W_hf_max              =   2.3728813825310E-05
(PID.TID 0000.0001) %MON pe_b_mean                    =   1.4322759549660E-10
(PID.TID 0000.0001) %MON ke_max                       =   4.0474847624613E-05
(PID.TID 0000.0001) %MON ke_mean                      =   8.7353686608259E-07
(PID.TID 0000.0001) %MON ke_vol                       =   4.4009158039362E+15
(PID.TID 0000.0001) %MON vort_r_min                   =  -3.4763616643369E-09
(PID.TID 0000.0001) %MON vort_r_max                   =   5.1747320653817E-09
(PID.TID 0000.0001) %MON vort_a_mean                  =  -1.1390240000000E-04
(PID.TID 0000.0001) %MON vort_a_sd                    =   3.7032180988575E-06
(PID.TID 0000.0001) %MON vort_p_mean                  =  -1.5528913309106E-04
(PID.TID 0000.0001) %MON vort_p_sd                    =   4.1188153478614E-05
(PID.TID 0000.0001) %MON surfExpan_theta_mean         =  -1.1008996255330E-07
(PID.TID 0000.0001) %MON surfExpan_salt_mean          =  -9.6328717234138E-07
(PID.TID 0000.0001) // =======================================================
(PID.TID 0000.0001) // End MONITOR dynamic field statistics
(PID.TID 0000.0001) // =======================================================
 cg2d: Sum(rhs),rhsMax =  -1.30661126211157E+00  3.03707924765660E-03
(PID.TID 0000.0001)                    cg2d_init_res =    9.89645564742764E-02
(PID.TID 0000.0001)                       cg2d_iters =    14
(PID.TID 0000.0001)                         cg2d_res =    8.76702491002058E-14
(PID.TID 0000.0001) // =======================================================
(PID.TID 0000.0001) // Begin MONITOR dynamic field statistics
(PID.TID 0000.0001) // =======================================================
(PID.TID 0000.0001) %MON time_tsnumber                =                    68
(PID.TID 0000.0001) %MON time_secondsf                =   2.4480000000000E+05
(PID.TID 0000.0001) %MON dynstat_eta_max              =   3.9997854464187E-04
(PID.TID 0000.0001) %MON dynstat_eta_min              =   1.2279305263271E-04
(PID.TID 0000.0001) %MON dynstat_eta_mean             =   2.5714467028959E-04
(PID.TID 0000.0001) %MON dynstat_eta_sd               =   9.1426296071695E-05
(PID.TID 0000.0001) %MON dynstat_eta_del2             =   3.4730711234574E-05
(PID.TID 0000.0001) %MON dynstat_uvel_max             =   1.1151627600633E-04
(PID.TID 0000.0001) %MON dynstat_uvel_min             =  -1.6088712360615E-03
(PID.TID 0000.0001) %MON dynstat_uvel_mean            =  -9.7064455791489E-05
(PID.TID 0000.0001) %MON dynstat_uvel_sd              =   2.5291121440085E-04
(PID.TID 0000.0001) %MON dynstat_uvel_del2            =   7.3933579656600E-05
(PID.TID 0000.0001) %MON dynstat_vvel_max             =   8.7527280311927E-03
(PID.TID 0000.0001) %MON dynstat_vvel_min             =  -6.3040094076272E-04
(PID.TID 0000.0001) %MON dynstat_vvel_mean            =   1.3100007574858E-04
(PID.TID 0000.0001) %MON dynstat_vvel_sd              =   1.1682831166374E-03
(PID.TID 0000.0001) %MON dynstat_vvel_del2            =   1.1434593662645E-04
(PID.TID 0000.0001) %MON dynstat_wvel_max             =   7.9382025667927E-07
(PID.TID 0000.0001) %MON dynstat_wvel_min             =  -7.2920610601387E-07
(PID.TID 0000.0001) %MON dynstat_wvel_mean            =  -2.2001573721785E-09
(PID.TID 0000.0001) %MON dynstat_wvel_sd              =   5.3501105810932E-07
(PID.TID 0000.0001) %MON dynstat_wvel_del2            =   2.9950353133853E-07
(PID.TID 0000.0001) %MON dynstat_theta_max            =   4.0000000000000E+00
(PID.TID 0000.0001) %MON dynstat_theta_min            =   4.0000000000000E+00
(PID.TID 0000.0001) %MON dynstat_theta_mean           =   4.0000000000000E+00
(PID.TID 0000.0001) %MON dynstat_theta_sd             =   0.0000000000000E+00
(PID.TID 0000.0001) %MON dynstat_theta_del2           =   0.0000000000000E+00
(PID.TID 0000.0001) %MON dynstat_salt_max             =   3.5000000000000E+01
(PID.TID 0000.0001) %MON dynstat_salt_min             =   3.5000000000000E+01
(PID.TID 0000.0001) %MON dynstat_salt_mean            =   3.5000000000000E+01
(PID.TID 0000.0001) %MON dynstat_salt_sd              =   0.0000000000000E+00
(PID.TID 0000.0001) %MON dynstat_salt_del2            =   0.0000000000000E+00
(PID.TID 0000.0001) %MON dynstat_sst_max              =   4.0000000000000E+00
(PID.TID 0000.0001) %MON dynstat_sst_min              =   4.0000000000000E+00
(PID.TID 0000.0001) %MON dynstat_sst_mean             =   4.0000000000000E+00
(PID.TID 0000.0001) %MON dynstat_sst_sd               =   0.0000000000000E+00
(PID.TID 0000.0001) %MON dynstat_sst_del2             =   0.0000000000000E+00
(PID.TID 0000.0001) %MON dynstat_sss_max              =   3.5000000000000E+01
(PID.TID 0000.0001) %MON dynstat_sss_min              =   3.5000000000000E+01
(PID.TID 0000.0001) %MON dynstat_sss_mean             =   3.5000000000000E+01
(PID.TID 0000.0001) %MON dynstat_sss_sd               =   0.0000000000000E+00
(PID.TID 0000.0001) %MON dynstat_sss_del2             =   0.0000000000000E+00
(PID.TID 0000.0001) %MON extforcing_qnet_max          =   0.0000000000000E+00
(PID.TID 0000.0001) %MON extforcing_qnet_min          =   0.0000000000000E+00
(PID.TID 0000.0001) %MON extforcing_qnet_mean         =   0.0000000000000E+00
(PID.TID 0000.0001) %MON extforcing_qnet_sd           =   0.0000000000000E+00
(PID.TID 0000.0001) %MON extforcing_qnet_del2         =   0.0000000000000E+00
(PID.TID 0000.0001) %MON extforcing_qsw_max           =   0.0000000000000E+00
(PID.TID 0000.0001) %MON extforcing_qsw_min           =   0.0000000000000E+00
(PID.TID 0000.0001) %MON extforcing_qsw_mean          =   0.0000000000000E+00
(PID.TID 0000.0001) %MON extforcing_qsw_sd            =   0.0000000000000E+00
(PID.TID 0000.0001) %MON extforcing_qsw_del2          =   0.0000000000000E+00
(PID.TID 0000.0001) %MON extforcing_empmr_max         =   0.0000000000000E+00
(PID.TID 0000.0001) %MON extforcing_empmr_min         =   0.0000000000000E+00
(PID.TID 0000.0001) %MON extforcing_empmr_mean        =   0.0000000000000E+00
(PID.TID 0000.0001) %MON extforcing_empmr_sd          =   0.0000000000000E+00
(PID.TID 0000.0001) %MON extforcing_empmr_del2        =   0.0000000000000E+00
(PID.TID 0000.0001) %MON extforcing_fu_max            =   1.0000000000000E-01
(PID.TID 0000.0001) %MON extforcing_fu_min            =   1.0000000000000E-01
(PID.TID 0000.0001) %MON extforcing_fu_mean           =   1.0000000000000E-01
(PID.TID 0000.0001) %MON extforcing_fu_sd             =   0.0000000000000E+00
(PID.TID 0000.0001) %MON extforcing_fu_del2           =   0.0000000000000E+00
(PID.TID 0000.0001) %MON extforcing_fv_max            =   0.0000000000000E+00
(PID.TID 0000.0001) %MON extforcing_fv_min            =   0.0000000000000E+00
(PID.TID 0000.0001) %MON extforcing_fv_mean           =   0.0000000000000E+00
(PID.TID 0000.0001) %MON extforcing_fv_sd             =   0.0000000000000E+00
(PID.TID 0000.0001) %MON extforcing_fv_del2           =   0.0000000000000E+00
(PID.TID 0000.0001) %MON advcfl_uvel_max              =   2.8959682249108E-05
(PID.TID 0000.0001) %MON advcfl_vvel_max              =   1.5754910456147E-04
(PID.TID 0000.0001) %MON advcfl_wvel_max              =   9.9551767171431E-06
(PID.TID 0000.0001) %MON advcfl_W_hf_max              =   2.4887941792858E-05
(PID.TID 0000.0001) %MON pe_b_mean                    =   8.3013390274381E-11
(PID.TID 0000.0001) %MON ke_max                       =   3.4055895682408E-05
(PID.TID 0000.0001) %MON ke_mean                      =   7.2771602570692E-07
(PID.TID 0000.0001) %MON ke_vol                       =   4.4009158039362E+15
(PID.TID 0000.0001) %MON vort_r_min                   =  -3.4054495016492E-09
(PID.TID 0000.0001) %MON vort_r_max                   =   4.4922043311081E-09
(PID.TID 0000.0001) %MON vort_a_mean                  =  -1.1390240000000E-04
(PID.TID 0000.0001) %MON vort_a_sd                    =   3.7032186186006E-06
(PID.TID 0000.0001) %MON vort_p_mean                  =  -1.5528913309106E-04
(PID.TID 0000.0001) %MON vort_p_sd                    =   4.1188152092648E-05
(PID.TID 0000.0001) %MON surfExpan_theta_mean         =  -9.9204309223832E-08
(PID.TID 0000.0001) %MON surfExpan_salt_mean          =  -8.6803770570853E-07
(PID.TID 0000.0001) // =======================================================
(PID.TID 0000.0001) // End MONITOR dynamic field statistics
(PID.TID 0000.0001) // =======================================================
 cg2d: Sum(rhs),rhsMax =  -1.02724587665588E+00  2.93201255430206E-03
(PID.TID 0000.0001)                    cg2d_init_res =    1.01543622787008E-01
(PID.TID 0000.0001)                       cg2d_iters =    14
(PID.TID 0000.0001)                         cg2d_res =    8.28895354171307E-14
(PID.TID 0000.0001) // =======================================================
(PID.TID 0000.0001) // Begin MONITOR dynamic field statistics
(PID.TID 0000.0001) // =======================================================
(PID.TID 0000.0001) %MON time_tsnumber                =                    69
(PID.TID 0000.0001) %MON time_secondsf                =   2.4840000000000E+05
(PID.TID 0000.0001) %MON dynstat_eta_max              =   3.3400938488702E-04
(PID.TID 0000.0001) %MON dynstat_eta_min              =   6.3688679775665E-05
(PID.TID 0000.0001) %MON dynstat_eta_mean             =   1.9517097787481E-04
(PID.TID 0000.0001) %MON dynstat_eta_sd               =   8.8691765850783E-05
(PID.TID 0000.0001) %MON dynstat_eta_del2             =   3.4067203986542E-05
(PID.TID 0000.0001) %MON dynstat_uvel_max             =   1.1193194361784E-04
(PID.TID 0000.0001) %MON dynstat_uvel_min             =  -8.3802709696652E-04
(PID.TID 0000.0001) %MON dynstat_uvel_mean            =  -5.6161964138747E-05
(PID.TID 0000.0001) %MON dynstat_uvel_sd              =   1.4229471153241E-04
(PID.TID 0000.0001) %MON dynstat_uvel_del2            =   7.0657797496639E-05
(PID.TID 0000.0001) %MON dynstat_vvel_max             =   8.3009326006463E-03
(PID.TID 0000.0001) %MON dynstat_vvel_min             =  -8.3934082931111E-04
(PID.TID 0000.0001) %MON dynstat_vvel_mean            =   9.6247069861159E-05
(PID.TID 0000.0001) %MON dynstat_vvel_sd              =   1.1123412784674E-03
(PID.TID 0000.0001) %MON dynstat_vvel_del2            =   1.1691596717390E-04
(PID.TID 0000.0001) %MON dynstat_wvel_max             =   8.3077781804535E-07
(PID.TID 0000.0001) %MON dynstat_wvel_min             =  -8.2358389023835E-07
(PID.TID 0000.0001) %MON dynstat_wvel_mean            =  -2.3470105453120E-09
(PID.TID 0000.0001) %MON dynstat_wvel_sd              =   5.6357846838476E-07
(PID.TID 0000.0001) %MON dynstat_wvel_del2            =   3.0991560536457E-07
(PID.TID 0000.0001) %MON dynstat_theta_max            =   4.0000000000000E+00
(PID.TID 0000.0001) %MON dynstat_theta_min            =   4.0000000000000E+00
(PID.TID 0000.0001) %MON dynstat_theta_mean           =   4.0000000000000E+00
(PID.TID 0000.0001) %MON dynstat_theta_sd             =   0.0000000000000E+00
(PID.TID 0000.0001) %MON dynstat_theta_del2           =   0.0000000000000E+00
(PID.TID 0000.0001) %MON dynstat_salt_max             =   3.5000000000000E+01
(PID.TID 0000.0001) %MON dynstat_salt_min             =   3.5000000000000E+01
(PID.TID 0000.0001) %MON dynstat_salt_mean            =   3.5000000000000E+01
(PID.TID 0000.0001) %MON dynstat_salt_sd              =   0.0000000000000E+00
(PID.TID 0000.0001) %MON dynstat_salt_del2            =   0.0000000000000E+00
(PID.TID 0000.0001) %MON dynstat_sst_max              =   4.0000000000000E+00
(PID.TID 0000.0001) %MON dynstat_sst_min              =   4.0000000000000E+00
(PID.TID 0000.0001) %MON dynstat_sst_mean             =   4.0000000000000E+00
(PID.TID 0000.0001) %MON dynstat_sst_sd               =   0.0000000000000E+00
(PID.TID 0000.0001) %MON dynstat_sst_del2             =   0.0000000000000E+00
(PID.TID 0000.0001) %MON dynstat_sss_max              =   3.5000000000000E+01
(PID.TID 0000.0001) %MON dynstat_sss_min              =   3.5000000000000E+01
(PID.TID 0000.0001) %MON dynstat_sss_mean             =   3.5000000000000E+01
(PID.TID 0000.0001) %MON dynstat_sss_sd               =   0.0000000000000E+00
(PID.TID 0000.0001) %MON dynstat_sss_del2             =   0.0000000000000E+00
(PID.TID 0000.0001) %MON extforcing_qnet_max          =   0.0000000000000E+00
(PID.TID 0000.0001) %MON extforcing_qnet_min          =   0.0000000000000E+00
(PID.TID 0000.0001) %MON extforcing_qnet_mean         =   0.0000000000000E+00
(PID.TID 0000.0001) %MON extforcing_qnet_sd           =   0.0000000000000E+00
(PID.TID 0000.0001) %MON extforcing_qnet_del2         =   0.0000000000000E+00
(PID.TID 0000.0001) %MON extforcing_qsw_max           =   0.0000000000000E+00
(PID.TID 0000.0001) %MON extforcing_qsw_min           =   0.0000000000000E+00
(PID.TID 0000.0001) %MON extforcing_qsw_mean          =   0.0000000000000E+00
(PID.TID 0000.0001) %MON extforcing_qsw_sd            =   0.0000000000000E+00
(PID.TID 0000.0001) %MON extforcing_qsw_del2          =   0.0000000000000E+00
(PID.TID 0000.0001) %MON extforcing_empmr_max         =   0.0000000000000E+00
(PID.TID 0000.0001) %MON extforcing_empmr_min         =   0.0000000000000E+00
(PID.TID 0000.0001) %MON extforcing_empmr_mean        =   0.0000000000000E+00
(PID.TID 0000.0001) %MON extforcing_empmr_sd          =   0.0000000000000E+00
(PID.TID 0000.0001) %MON extforcing_empmr_del2        =   0.0000000000000E+00
(PID.TID 0000.0001) %MON extforcing_fu_max            =   1.0000000000000E-01
(PID.TID 0000.0001) %MON extforcing_fu_min            =   1.0000000000000E-01
(PID.TID 0000.0001) %MON extforcing_fu_mean           =   1.0000000000000E-01
(PID.TID 0000.0001) %MON extforcing_fu_sd             =   0.0000000000000E+00
(PID.TID 0000.0001) %MON extforcing_fu_del2           =   0.0000000000000E+00
(PID.TID 0000.0001) %MON extforcing_fv_max            =   0.0000000000000E+00
(PID.TID 0000.0001) %MON extforcing_fv_min            =   0.0000000000000E+00
(PID.TID 0000.0001) %MON extforcing_fv_mean           =   0.0000000000000E+00
(PID.TID 0000.0001) %MON extforcing_fv_sd             =   0.0000000000000E+00
(PID.TID 0000.0001) %MON extforcing_fv_del2           =   0.0000000000000E+00
(PID.TID 0000.0001) %MON advcfl_uvel_max              =   1.5084487745397E-05
(PID.TID 0000.0001) %MON advcfl_vvel_max              =   1.4941678681163E-04
(PID.TID 0000.0001) %MON advcfl_wvel_max              =   1.0263886228259E-05
(PID.TID 0000.0001) %MON advcfl_W_hf_max              =   2.5659715570647E-05
(PID.TID 0000.0001) %MON pe_b_mean                    =   5.1221996834459E-11
(PID.TID 0000.0001) %MON ke_max                       =   3.0069727296787E-05
(PID.TID 0000.0001) %MON ke_mean                      =   6.3498428469270E-07
(PID.TID 0000.0001) %MON ke_vol                       =   4.4009158039362E+15
(PID.TID 0000.0001) %MON vort_r_min                   =  -3.2659865404652E-09
(PID.TID 0000.0001) %MON vort_r_max                   =   3.6277534210960E-09
(PID.TID 0000.0001) %MON vort_a_mean                  =  -1.1390240000000E-04
(PID.TID 0000.0001) %MON vort_a_sd                    =   3.7032213167705E-06
(PID.TID 0000.0001) %MON vort_p_mean                  =  -1.5528913309106E-04
(PID.TID 0000.0001) %MON vort_p_sd                    =   4.1188150955135E-05
(PID.TID 0000.0001) %MON surfExpan_theta_mean         =  -6.8859658238642E-08
(PID.TID 0000.0001) %MON surfExpan_salt_mean          =  -6.0252200958812E-07
(PID.TID 0000.0001) // =======================================================
(PID.TID 0000.0001) // End MONITOR dynamic field statistics
(PID.TID 0000.0001) // =======================================================
 cg2d: Sum(rhs),rhsMax =  -9.49612083397459E-01  2.80059569221643E-03
(PID.TID 0000.0001)                    cg2d_init_res =    1.24525126238680E-01
(PID.TID 0000.0001)                       cg2d_iters =    14
(PID.TID 0000.0001)                         cg2d_res =    5.26259973007568E-14
(PID.TID 0000.0001) // =======================================================
(PID.TID 0000.0001) // Begin MONITOR dynamic field statistics
(PID.TID 0000.0001) // =======================================================
(PID.TID 0000.0001) %MON time_tsnumber                =                    70
(PID.TID 0000.0001) %MON time_secondsf                =   2.5200000000000E+05
(PID.TID 0000.0001) %MON dynstat_eta_max              =   3.0452629753747E-04
(PID.TID 0000.0001) %MON dynstat_eta_min              =   4.5398876566446E-05
(PID.TID 0000.0001) %MON dynstat_eta_mean             =   1.7233427225057E-04
(PID.TID 0000.0001) %MON dynstat_eta_sd               =   8.4601857584700E-05
(PID.TID 0000.0001) %MON dynstat_eta_del2             =   3.2917943496468E-05
(PID.TID 0000.0001) %MON dynstat_uvel_max             =   6.4679203297735E-04
(PID.TID 0000.0001) %MON dynstat_uvel_min             =  -1.3515466633586E-04
(PID.TID 0000.0001) %MON dynstat_uvel_mean            =  -4.7949185628584E-06
(PID.TID 0000.0001) %MON dynstat_uvel_sd              =   9.2060691187024E-05
(PID.TID 0000.0001) %MON dynstat_uvel_del2            =   6.7123790419376E-05
(PID.TID 0000.0001) %MON dynstat_vvel_max             =   8.1392161227097E-03
(PID.TID 0000.0001) %MON dynstat_vvel_min             =  -8.8985444263486E-04
(PID.TID 0000.0001) %MON dynstat_vvel_mean            =   8.2917299198802E-05
(PID.TID 0000.0001) %MON dynstat_vvel_sd              =   1.0982135135806E-03
(PID.TID 0000.0001) %MON dynstat_vvel_del2            =   1.1681690225772E-04
(PID.TID 0000.0001) %MON dynstat_wvel_max             =   8.2422789057418E-07
(PID.TID 0000.0001) %MON dynstat_wvel_min             =  -8.3689954728164E-07
(PID.TID 0000.0001) %MON dynstat_wvel_mean            =  -2.0268038203263E-09
(PID.TID 0000.0001) %MON dynstat_wvel_sd              =   5.5669580609901E-07
(PID.TID 0000.0001) %MON dynstat_wvel_del2            =   3.1265537237007E-07
(PID.TID 0000.0001) %MON dynstat_theta_max            =   4.0000000000000E+00
(PID.TID 0000.0001) %MON dynstat_theta_min            =   4.0000000000000E+00
(PID.TID 0000.0001) %MON dynstat_theta_mean           =   4.0000000000000E+00
(PID.TID 0000.0001) %MON dynstat_theta_sd             =   0.0000000000000E+00
(PID.TID 0000.0001) %MON dynstat_theta_del2           =   0.0000000000000E+00
(PID.TID 0000.0001) %MON dynstat_salt_max             =   3.5000000000000E+01
(PID.TID 0000.0001) %MON dynstat_salt_min             =   3.5000000000000E+01
(PID.TID 0000.0001) %MON dynstat_salt_mean            =   3.5000000000000E+01
(PID.TID 0000.0001) %MON dynstat_salt_sd              =   0.0000000000000E+00
(PID.TID 0000.0001) %MON dynstat_salt_del2            =   0.0000000000000E+00
(PID.TID 0000.0001) %MON dynstat_sst_max              =   4.0000000000000E+00
(PID.TID 0000.0001) %MON dynstat_sst_min              =   4.0000000000000E+00
(PID.TID 0000.0001) %MON dynstat_sst_mean             =   4.0000000000000E+00
(PID.TID 0000.0001) %MON dynstat_sst_sd               =   0.0000000000000E+00
(PID.TID 0000.0001) %MON dynstat_sst_del2             =   0.0000000000000E+00
(PID.TID 0000.0001) %MON dynstat_sss_max              =   3.5000000000000E+01
(PID.TID 0000.0001) %MON dynstat_sss_min              =   3.5000000000000E+01
(PID.TID 0000.0001) %MON dynstat_sss_mean             =   3.5000000000000E+01
(PID.TID 0000.0001) %MON dynstat_sss_sd               =   0.0000000000000E+00
(PID.TID 0000.0001) %MON dynstat_sss_del2             =   0.0000000000000E+00
(PID.TID 0000.0001) %MON extforcing_qnet_max          =   0.0000000000000E+00
(PID.TID 0000.0001) %MON extforcing_qnet_min          =   0.0000000000000E+00
(PID.TID 0000.0001) %MON extforcing_qnet_mean         =   0.0000000000000E+00
(PID.TID 0000.0001) %MON extforcing_qnet_sd           =   0.0000000000000E+00
(PID.TID 0000.0001) %MON extforcing_qnet_del2         =   0.0000000000000E+00
(PID.TID 0000.0001) %MON extforcing_qsw_max           =   0.0000000000000E+00
(PID.TID 0000.0001) %MON extforcing_qsw_min           =   0.0000000000000E+00
(PID.TID 0000.0001) %MON extforcing_qsw_mean          =   0.0000000000000E+00
(PID.TID 0000.0001) %MON extforcing_qsw_sd            =   0.0000000000000E+00
(PID.TID 0000.0001) %MON extforcing_qsw_del2          =   0.0000000000000E+00
(PID.TID 0000.0001) %MON extforcing_empmr_max         =   0.0000000000000E+00
(PID.TID 0000.0001) %MON extforcing_empmr_min         =   0.0000000000000E+00
(PID.TID 0000.0001) %MON extforcing_empmr_mean        =   0.0000000000000E+00
(PID.TID 0000.0001) %MON extforcing_empmr_sd          =   0.0000000000000E+00
(PID.TID 0000.0001) %MON extforcing_empmr_del2        =   0.0000000000000E+00
(PID.TID 0000.0001) %MON extforcing_fu_max            =   1.0000000000000E-01
(PID.TID 0000.0001) %MON extforcing_fu_min            =   1.0000000000000E-01
(PID.TID 0000.0001) %MON extforcing_fu_mean           =   1.0000000000000E-01
(PID.TID 0000.0001) %MON extforcing_fu_sd             =   0.0000000000000E+00
(PID.TID 0000.0001) %MON extforcing_fu_del2           =   0.0000000000000E+00
(PID.TID 0000.0001) %MON extforcing_fv_max            =   0.0000000000000E+00
(PID.TID 0000.0001) %MON extforcing_fv_min            =   0.0000000000000E+00
(PID.TID 0000.0001) %MON extforcing_fv_mean           =   0.0000000000000E+00
(PID.TID 0000.0001) %MON extforcing_fv_sd             =   0.0000000000000E+00
(PID.TID 0000.0001) %MON extforcing_fv_del2           =   0.0000000000000E+00
(PID.TID 0000.0001) %MON advcfl_uvel_max              =   1.1642256593592E-05
(PID.TID 0000.0001) %MON advcfl_vvel_max              =   1.4650589020878E-04
(PID.TID 0000.0001) %MON advcfl_wvel_max              =   1.0353687188890E-05
(PID.TID 0000.0001) %MON advcfl_W_hf_max              =   2.5884217972224E-05
(PID.TID 0000.0001) %MON pe_b_mean                    =   4.1078155515150E-11
(PID.TID 0000.0001) %MON ke_max                       =   2.9131355674403E-05
(PID.TID 0000.0001) %MON ke_mean                      =   6.1072318101162E-07
(PID.TID 0000.0001) %MON ke_vol                       =   4.4009158039362E+15
(PID.TID 0000.0001) %MON vort_r_min                   =  -3.0901511073321E-09
(PID.TID 0000.0001) %MON vort_r_max                   =   2.7598469830604E-09
(PID.TID 0000.0001) %MON vort_a_mean                  =  -1.1390240000000E-04
(PID.TID 0000.0001) %MON vort_a_sd                    =   3.7032256152197E-06
(PID.TID 0000.0001) %MON vort_p_mean                  =  -1.5528913309106E-04
(PID.TID 0000.0001) %MON vort_p_sd                    =   4.1188150105865E-05
(PID.TID 0000.0001) %MON surfExpan_theta_mean         =  -2.5374117360275E-08
(PID.TID 0000.0001) %MON surfExpan_salt_mean          =  -2.2202352690241E-07
(PID.TID 0000.0001) // =======================================================
(PID.TID 0000.0001) // End MONITOR dynamic field statistics
(PID.TID 0000.0001) // =======================================================
 cg2d: Sum(rhs),rhsMax =  -1.10546681688713E+00  2.68802011902946E-03
(PID.TID 0000.0001)                    cg2d_init_res =    1.50814434100061E-01
(PID.TID 0000.0001)                       cg2d_iters =    14
(PID.TID 0000.0001)                         cg2d_res =    3.49103667949121E-14
(PID.TID 0000.0001) // =======================================================
(PID.TID 0000.0001) // Begin MONITOR dynamic field statistics
(PID.TID 0000.0001) // =======================================================
(PID.TID 0000.0001) %MON time_tsnumber                =                    71
(PID.TID 0000.0001) %MON time_secondsf                =   2.5560000000000E+05
(PID.TID 0000.0001) %MON dynstat_eta_max              =   3.1791957063003E-04
(PID.TID 0000.0001) %MON dynstat_eta_min              =   7.0858339675317E-05
(PID.TID 0000.0001) %MON dynstat_eta_mean             =   1.9255430449734E-04
(PID.TID 0000.0001) %MON dynstat_eta_sd               =   8.0044930445365E-05
(PID.TID 0000.0001) %MON dynstat_eta_del2             =   3.1600760048363E-05
(PID.TID 0000.0001) %MON dynstat_uvel_max             =   1.4286939147854E-03
(PID.TID 0000.0001) %MON dynstat_uvel_min             =  -1.3729545760909E-04
(PID.TID 0000.0001) %MON dynstat_uvel_mean            =   4.6754358301192E-05
(PID.TID 0000.0001) %MON dynstat_uvel_sd              =   1.9384052529029E-04
(PID.TID 0000.0001) %MON dynstat_uvel_del2            =   6.4340528909490E-05
(PID.TID 0000.0001) %MON dynstat_vvel_max             =   8.2847678213880E-03
(PID.TID 0000.0001) %MON dynstat_vvel_min             =  -7.7259520882773E-04
(PID.TID 0000.0001) %MON dynstat_vvel_mean            =   9.3239172410006E-05
(PID.TID 0000.0001) %MON dynstat_vvel_sd              =   1.1245067274724E-03
(PID.TID 0000.0001) %MON dynstat_vvel_del2            =   1.1423216805210E-04
(PID.TID 0000.0001) %MON dynstat_wvel_max             =   7.7559372522425E-07
(PID.TID 0000.0001) %MON dynstat_wvel_min             =  -7.6480970245043E-07
(PID.TID 0000.0001) %MON dynstat_wvel_mean            =  -1.2908586699606E-09
(PID.TID 0000.0001) %MON dynstat_wvel_sd              =   5.1701978337212E-07
(PID.TID 0000.0001) %MON dynstat_wvel_del2            =   3.0744455351938E-07
(PID.TID 0000.0001) %MON dynstat_theta_max            =   4.0000000000000E+00
(PID.TID 0000.0001) %MON dynstat_theta_min            =   4.0000000000000E+00
(PID.TID 0000.0001) %MON dynstat_theta_mean           =   4.0000000000000E+00
(PID.TID 0000.0001) %MON dynstat_theta_sd             =   0.0000000000000E+00
(PID.TID 0000.0001) %MON dynstat_theta_del2           =   0.0000000000000E+00
(PID.TID 0000.0001) %MON dynstat_salt_max             =   3.5000000000000E+01
(PID.TID 0000.0001) %MON dynstat_salt_min             =   3.5000000000000E+01
(PID.TID 0000.0001) %MON dynstat_salt_mean            =   3.5000000000000E+01
(PID.TID 0000.0001) %MON dynstat_salt_sd              =   0.0000000000000E+00
(PID.TID 0000.0001) %MON dynstat_salt_del2            =   0.0000000000000E+00
(PID.TID 0000.0001) %MON dynstat_sst_max              =   4.0000000000000E+00
(PID.TID 0000.0001) %MON dynstat_sst_min              =   4.0000000000000E+00
(PID.TID 0000.0001) %MON dynstat_sst_mean             =   4.0000000000000E+00
(PID.TID 0000.0001) %MON dynstat_sst_sd               =   0.0000000000000E+00
(PID.TID 0000.0001) %MON dynstat_sst_del2             =   0.0000000000000E+00
(PID.TID 0000.0001) %MON dynstat_sss_max              =   3.5000000000000E+01
(PID.TID 0000.0001) %MON dynstat_sss_min              =   3.5000000000000E+01
(PID.TID 0000.0001) %MON dynstat_sss_mean             =   3.5000000000000E+01
(PID.TID 0000.0001) %MON dynstat_sss_sd               =   0.0000000000000E+00
(PID.TID 0000.0001) %MON dynstat_sss_del2             =   0.0000000000000E+00
(PID.TID 0000.0001) %MON extforcing_qnet_max          =   0.0000000000000E+00
(PID.TID 0000.0001) %MON extforcing_qnet_min          =   0.0000000000000E+00
(PID.TID 0000.0001) %MON extforcing_qnet_mean         =   0.0000000000000E+00
(PID.TID 0000.0001) %MON extforcing_qnet_sd           =   0.0000000000000E+00
(PID.TID 0000.0001) %MON extforcing_qnet_del2         =   0.0000000000000E+00
(PID.TID 0000.0001) %MON extforcing_qsw_max           =   0.0000000000000E+00
(PID.TID 0000.0001) %MON extforcing_qsw_min           =   0.0000000000000E+00
(PID.TID 0000.0001) %MON extforcing_qsw_mean          =   0.0000000000000E+00
(PID.TID 0000.0001) %MON extforcing_qsw_sd            =   0.0000000000000E+00
(PID.TID 0000.0001) %MON extforcing_qsw_del2          =   0.0000000000000E+00
(PID.TID 0000.0001) %MON extforcing_empmr_max         =   0.0000000000000E+00
(PID.TID 0000.0001) %MON extforcing_empmr_min         =   0.0000000000000E+00
(PID.TID 0000.0001) %MON extforcing_empmr_mean        =   0.0000000000000E+00
(PID.TID 0000.0001) %MON extforcing_empmr_sd          =   0.0000000000000E+00
(PID.TID 0000.0001) %MON extforcing_empmr_del2        =   0.0000000000000E+00
(PID.TID 0000.0001) %MON extforcing_fu_max            =   1.0000000000000E-01
(PID.TID 0000.0001) %MON extforcing_fu_min            =   1.0000000000000E-01
(PID.TID 0000.0001) %MON extforcing_fu_mean           =   1.0000000000000E-01
(PID.TID 0000.0001) %MON extforcing_fu_sd             =   0.0000000000000E+00
(PID.TID 0000.0001) %MON extforcing_fu_del2           =   0.0000000000000E+00
(PID.TID 0000.0001) %MON extforcing_fv_max            =   0.0000000000000E+00
(PID.TID 0000.0001) %MON extforcing_fv_min            =   0.0000000000000E+00
(PID.TID 0000.0001) %MON extforcing_fv_mean           =   0.0000000000000E+00
(PID.TID 0000.0001) %MON extforcing_fv_sd             =   0.0000000000000E+00
(PID.TID 0000.0001) %MON extforcing_fv_del2           =   0.0000000000000E+00
(PID.TID 0000.0001) %MON advcfl_uvel_max              =   2.5716490466137E-05
(PID.TID 0000.0001) %MON advcfl_vvel_max              =   1.4912582078498E-04
(PID.TID 0000.0001) %MON advcfl_wvel_max              =   1.0210584906227E-05
(PID.TID 0000.0001) %MON advcfl_W_hf_max              =   2.5526462265568E-05
(PID.TID 0000.0001) %MON pe_b_mean                    =   4.8465081247369E-11
(PID.TID 0000.0001) %MON ke_max                       =   3.1269045476049E-05
(PID.TID 0000.0001) %MON ke_mean                      =   6.5648452133365E-07
(PID.TID 0000.0001) %MON ke_vol                       =   4.4009158039362E+15
(PID.TID 0000.0001) %MON vort_r_min                   =  -3.0226976244722E-09
(PID.TID 0000.0001) %MON vort_r_max                   =   2.2596824479305E-09
(PID.TID 0000.0001) %MON vort_a_mean                  =  -1.1390240000000E-04
(PID.TID 0000.0001) %MON vort_a_sd                    =   3.7032306759521E-06
(PID.TID 0000.0001) %MON vort_p_mean                  =  -1.5528913309106E-04
(PID.TID 0000.0001) %MON vort_p_sd                    =   4.1188149541426E-05
(PID.TID 0000.0001) %MON surfExpan_theta_mean         =   2.2466702496419E-08
(PID.TID 0000.0001) %MON surfExpan_salt_mean          =   1.9658364684367E-07
(PID.TID 0000.0001) // =======================================================
(PID.TID 0000.0001) // End MONITOR dynamic field statistics
(PID.TID 0000.0001) // =======================================================
 cg2d: Sum(rhs),rhsMax =  -1.41911846031704E+00  2.73183503865474E-03
(PID.TID 0000.0001)                    cg2d_init_res =    1.57477350793974E-01
(PID.TID 0000.0001)                       cg2d_iters =    14
(PID.TID 0000.0001)                         cg2d_res =    3.98041371728218E-15
(PID.TID 0000.0001) // =======================================================
(PID.TID 0000.0001) // Begin MONITOR dynamic field statistics
(PID.TID 0000.0001) // =======================================================
(PID.TID 0000.0001) %MON time_tsnumber                =                    72
(PID.TID 0000.0001) %MON time_secondsf                =   2.5920000000000E+05
(PID.TID 0000.0001) %MON dynstat_eta_max              =   3.7377077836290E-04
(PID.TID 0000.0001) %MON dynstat_eta_min              =   1.3435108009897E-04
(PID.TID 0000.0001) %MON dynstat_eta_mean             =   2.5121648019645E-04
(PID.TID 0000.0001) %MON dynstat_eta_sd               =   7.5910019577097E-05
(PID.TID 0000.0001) %MON dynstat_eta_del2             =   3.0513639420890E-05
(PID.TID 0000.0001) %MON dynstat_uvel_max             =   2.0066301964522E-03
(PID.TID 0000.0001) %MON dynstat_uvel_min             =  -1.3628870188011E-04
(PID.TID 0000.0001) %MON dynstat_uvel_mean            =   8.8354210865248E-05
(PID.TID 0000.0001) %MON dynstat_uvel_sd              =   2.9275992474829E-04
(PID.TID 0000.0001) %MON dynstat_uvel_del2            =   6.2155598380612E-05
(PID.TID 0000.0001) %MON dynstat_vvel_max             =   8.6949164248194E-03
(PID.TID 0000.0001) %MON dynstat_vvel_min             =  -5.1198133241082E-04
(PID.TID 0000.0001) %MON dynstat_vvel_mean            =   1.2475387629289E-04
(PID.TID 0000.0001) %MON dynstat_vvel_sd              =   1.1880617020090E-03
(PID.TID 0000.0001) %MON dynstat_vvel_del2            =   1.1071206871042E-04
(PID.TID 0000.0001) %MON dynstat_wvel_max             =   7.2125205216692E-07
(PID.TID 0000.0001) %MON dynstat_wvel_min             =  -6.2121320296667E-07
(PID.TID 0000.0001) %MON dynstat_wvel_mean            =  -2.7399198787950E-10
(PID.TID 0000.0001) %MON dynstat_wvel_sd              =   4.5989094488568E-07
(PID.TID 0000.0001) %MON dynstat_wvel_del2            =   2.9572730418626E-07
(PID.TID 0000.0001) %MON dynstat_theta_max            =   4.0000000000000E+00
(PID.TID 0000.0001) %MON dynstat_theta_min            =   4.0000000000000E+00
(PID.TID 0000.0001) %MON dynstat_theta_mean           =   4.0000000000000E+00
(PID.TID 0000.0001) %MON dynstat_theta_sd             =   0.0000000000000E+00
(PID.TID 0000.0001) %MON dynstat_theta_del2           =   0.0000000000000E+00
(PID.TID 0000.0001) %MON dynstat_salt_max             =   3.5000000000000E+01
(PID.TID 0000.0001) %MON dynstat_salt_min             =   3.5000000000000E+01
(PID.TID 0000.0001) %MON dynstat_salt_mean            =   3.5000000000000E+01
(PID.TID 0000.0001) %MON dynstat_salt_sd              =   0.0000000000000E+00
(PID.TID 0000.0001) %MON dynstat_salt_del2            =   0.0000000000000E+00
(PID.TID 0000.0001) %MON dynstat_sst_max              =   4.0000000000000E+00
(PID.TID 0000.0001) %MON dynstat_sst_min              =   4.0000000000000E+00
(PID.TID 0000.0001) %MON dynstat_sst_mean             =   4.0000000000000E+00
(PID.TID 0000.0001) %MON dynstat_sst_sd               =   0.0000000000000E+00
(PID.TID 0000.0001) %MON dynstat_sst_del2             =   0.0000000000000E+00
(PID.TID 0000.0001) %MON dynstat_sss_max              =   3.5000000000000E+01
(PID.TID 0000.0001) %MON dynstat_sss_min              =   3.5000000000000E+01
(PID.TID 0000.0001) %MON dynstat_sss_mean             =   3.5000000000000E+01
(PID.TID 0000.0001) %MON dynstat_sss_sd               =   0.0000000000000E+00
(PID.TID 0000.0001) %MON dynstat_sss_del2             =   0.0000000000000E+00
(PID.TID 0000.0001) %MON extforcing_qnet_max          =   0.0000000000000E+00
(PID.TID 0000.0001) %MON extforcing_qnet_min          =   0.0000000000000E+00
(PID.TID 0000.0001) %MON extforcing_qnet_mean         =   0.0000000000000E+00
(PID.TID 0000.0001) %MON extforcing_qnet_sd           =   0.0000000000000E+00
(PID.TID 0000.0001) %MON extforcing_qnet_del2         =   0.0000000000000E+00
(PID.TID 0000.0001) %MON extforcing_qsw_max           =   0.0000000000000E+00
(PID.TID 0000.0001) %MON extforcing_qsw_min           =   0.0000000000000E+00
(PID.TID 0000.0001) %MON extforcing_qsw_mean          =   0.0000000000000E+00
(PID.TID 0000.0001) %MON extforcing_qsw_sd            =   0.0000000000000E+00
(PID.TID 0000.0001) %MON extforcing_qsw_del2          =   0.0000000000000E+00
(PID.TID 0000.0001) %MON extforcing_empmr_max         =   0.0000000000000E+00
(PID.TID 0000.0001) %MON extforcing_empmr_min         =   0.0000000000000E+00
(PID.TID 0000.0001) %MON extforcing_empmr_mean        =   0.0000000000000E+00
(PID.TID 0000.0001) %MON extforcing_empmr_sd          =   0.0000000000000E+00
(PID.TID 0000.0001) %MON extforcing_empmr_del2        =   0.0000000000000E+00
(PID.TID 0000.0001) %MON extforcing_fu_max            =   1.0000000000000E-01
(PID.TID 0000.0001) %MON extforcing_fu_min            =   1.0000000000000E-01
(PID.TID 0000.0001) %MON extforcing_fu_mean           =   1.0000000000000E-01
(PID.TID 0000.0001) %MON extforcing_fu_sd             =   0.0000000000000E+00
(PID.TID 0000.0001) %MON extforcing_fu_del2           =   0.0000000000000E+00
(PID.TID 0000.0001) %MON extforcing_fv_max            =   0.0000000000000E+00
(PID.TID 0000.0001) %MON extforcing_fv_min            =   0.0000000000000E+00
(PID.TID 0000.0001) %MON extforcing_fv_mean           =   0.0000000000000E+00
(PID.TID 0000.0001) %MON extforcing_fv_sd             =   0.0000000000000E+00
(PID.TID 0000.0001) %MON extforcing_fv_del2           =   0.0000000000000E+00
(PID.TID 0000.0001) %MON advcfl_uvel_max              =   3.6119343536140E-05
(PID.TID 0000.0001) %MON advcfl_vvel_max              =   1.5650849564675E-04
(PID.TID 0000.0001) %MON advcfl_wvel_max              =   9.8721178438355E-06
(PID.TID 0000.0001) %MON advcfl_W_hf_max              =   2.4680294609589E-05
(PID.TID 0000.0001) %MON pe_b_mean                    =   7.6760707356824E-11
(PID.TID 0000.0001) %MON ke_max                       =   3.5945766562656E-05
(PID.TID 0000.0001) %MON ke_mean                      =   7.6028448877342E-07
(PID.TID 0000.0001) %MON ke_vol                       =   4.4009158039362E+15
(PID.TID 0000.0001) %MON vort_r_min                   =  -3.0259887715747E-09
(PID.TID 0000.0001) %MON vort_r_max                   =   2.3760837507481E-09
(PID.TID 0000.0001) %MON vort_a_mean                  =  -1.1390240000000E-04
(PID.TID 0000.0001) %MON vort_a_sd                    =   3.7032355661471E-06
(PID.TID 0000.0001) %MON vort_p_mean                  =  -1.5528913309106E-04
(PID.TID 0000.0001) %MON vort_p_sd                    =   4.1188149215260E-05
(PID.TID 0000.0001) %MON surfExpan_theta_mean         =   6.5180195221232E-08
(PID.TID 0000.0001) %MON surfExpan_salt_mean          =   5.7032670818578E-07
(PID.TID 0000.0001) // =======================================================
(PID.TID 0000.0001) // End MONITOR dynamic field statistics
(PID.TID 0000.0001) // =======================================================
 cg2d: Sum(rhs),rhsMax =  -1.85263652552146E+00  2.80075124009607E-03
(PID.TID 0000.0001)                    cg2d_init_res =    1.46644116324293E-01
(PID.TID 0000.0001)                       cg2d_iters =    14
(PID.TID 0000.0001)                         cg2d_res =    3.31967688100990E-14
(PID.TID 0000.0001) // =======================================================
(PID.TID 0000.0001) // Begin MONITOR dynamic field statistics
(PID.TID 0000.0001) // =======================================================
(PID.TID 0000.0001) %MON time_tsnumber                =                    73
(PID.TID 0000.0001) %MON time_secondsf                =   2.6280000000000E+05
(PID.TID 0000.0001) %MON dynstat_eta_max              =   4.5680857406405E-04
(PID.TID 0000.0001) %MON dynstat_eta_min              =   2.2278851689134E-04
(PID.TID 0000.0001) %MON dynstat_eta_mean             =   3.3623255820034E-04
(PID.TID 0000.0001) %MON dynstat_eta_sd               =   7.2873113546346E-05
(PID.TID 0000.0001) %MON dynstat_eta_del2             =   2.9926586206641E-05
(PID.TID 0000.0001) %MON dynstat_uvel_max             =   2.2621079147399E-03
(PID.TID 0000.0001) %MON dynstat_uvel_min             =  -1.3225907915969E-04
(PID.TID 0000.0001) %MON dynstat_uvel_mean            =   1.1201145466496E-04
(PID.TID 0000.0001) %MON dynstat_uvel_sd              =   3.4277933054068E-04
(PID.TID 0000.0001) %MON dynstat_uvel_del2            =   6.0421105450972E-05
(PID.TID 0000.0001) %MON dynstat_vvel_max             =   9.2780139948747E-03
(PID.TID 0000.0001) %MON dynstat_vvel_min             =  -2.1372601845104E-04
(PID.TID 0000.0001) %MON dynstat_vvel_mean            =   1.7088343561637E-04
(PID.TID 0000.0001) %MON dynstat_vvel_sd              =   1.2804568875927E-03
(PID.TID 0000.0001) %MON dynstat_vvel_del2            =   1.0823496700374E-04
(PID.TID 0000.0001) %MON dynstat_wvel_max             =   6.7635888501347E-07
(PID.TID 0000.0001) %MON dynstat_wvel_min             =  -5.2979782436461E-07
(PID.TID 0000.0001) %MON dynstat_wvel_mean            =   8.3054481803599E-10
(PID.TID 0000.0001) %MON dynstat_wvel_sd              =   4.0900129074550E-07
(PID.TID 0000.0001) %MON dynstat_wvel_del2            =   2.7997929608979E-07
(PID.TID 0000.0001) %MON dynstat_theta_max            =   4.0000000000000E+00
(PID.TID 0000.0001) %MON dynstat_theta_min            =   4.0000000000000E+00
(PID.TID 0000.0001) %MON dynstat_theta_mean           =   4.0000000000000E+00
(PID.TID 0000.0001) %MON dynstat_theta_sd             =   0.0000000000000E+00
(PID.TID 0000.0001) %MON dynstat_theta_del2           =   0.0000000000000E+00
(PID.TID 0000.0001) %MON dynstat_salt_max             =   3.5000000000000E+01
(PID.TID 0000.0001) %MON dynstat_salt_min             =   3.5000000000000E+01
(PID.TID 0000.0001) %MON dynstat_salt_mean            =   3.5000000000000E+01
(PID.TID 0000.0001) %MON dynstat_salt_sd              =   0.0000000000000E+00
(PID.TID 0000.0001) %MON dynstat_salt_del2            =   0.0000000000000E+00
(PID.TID 0000.0001) %MON dynstat_sst_max              =   4.0000000000000E+00
(PID.TID 0000.0001) %MON dynstat_sst_min              =   4.0000000000000E+00
(PID.TID 0000.0001) %MON dynstat_sst_mean             =   4.0000000000000E+00
(PID.TID 0000.0001) %MON dynstat_sst_sd               =   0.0000000000000E+00
(PID.TID 0000.0001) %MON dynstat_sst_del2             =   0.0000000000000E+00
(PID.TID 0000.0001) %MON dynstat_sss_max              =   3.5000000000000E+01
(PID.TID 0000.0001) %MON dynstat_sss_min              =   3.5000000000000E+01
(PID.TID 0000.0001) %MON dynstat_sss_mean             =   3.5000000000000E+01
(PID.TID 0000.0001) %MON dynstat_sss_sd               =   0.0000000000000E+00
(PID.TID 0000.0001) %MON dynstat_sss_del2             =   0.0000000000000E+00
(PID.TID 0000.0001) %MON extforcing_qnet_max          =   0.0000000000000E+00
(PID.TID 0000.0001) %MON extforcing_qnet_min          =   0.0000000000000E+00
(PID.TID 0000.0001) %MON extforcing_qnet_mean         =   0.0000000000000E+00
(PID.TID 0000.0001) %MON extforcing_qnet_sd           =   0.0000000000000E+00
(PID.TID 0000.0001) %MON extforcing_qnet_del2         =   0.0000000000000E+00
(PID.TID 0000.0001) %MON extforcing_qsw_max           =   0.0000000000000E+00
(PID.TID 0000.0001) %MON extforcing_qsw_min           =   0.0000000000000E+00
(PID.TID 0000.0001) %MON extforcing_qsw_mean          =   0.0000000000000E+00
(PID.TID 0000.0001) %MON extforcing_qsw_sd            =   0.0000000000000E+00
(PID.TID 0000.0001) %MON extforcing_qsw_del2          =   0.0000000000000E+00
(PID.TID 0000.0001) %MON extforcing_empmr_max         =   0.0000000000000E+00
(PID.TID 0000.0001) %MON extforcing_empmr_min         =   0.0000000000000E+00
(PID.TID 0000.0001) %MON extforcing_empmr_mean        =   0.0000000000000E+00
(PID.TID 0000.0001) %MON extforcing_empmr_sd          =   0.0000000000000E+00
(PID.TID 0000.0001) %MON extforcing_empmr_del2        =   0.0000000000000E+00
(PID.TID 0000.0001) %MON extforcing_fu_max            =   1.0000000000000E-01
(PID.TID 0000.0001) %MON extforcing_fu_min            =   1.0000000000000E-01
(PID.TID 0000.0001) %MON extforcing_fu_mean           =   1.0000000000000E-01
(PID.TID 0000.0001) %MON extforcing_fu_sd             =   0.0000000000000E+00
(PID.TID 0000.0001) %MON extforcing_fu_del2           =   0.0000000000000E+00
(PID.TID 0000.0001) %MON extforcing_fv_max            =   0.0000000000000E+00
(PID.TID 0000.0001) %MON extforcing_fv_min            =   0.0000000000000E+00
(PID.TID 0000.0001) %MON extforcing_fv_mean           =   0.0000000000000E+00
(PID.TID 0000.0001) %MON extforcing_fv_sd             =   0.0000000000000E+00
(PID.TID 0000.0001) %MON extforcing_fv_del2           =   0.0000000000000E+00
(PID.TID 0000.0001) %MON advcfl_uvel_max              =   4.0717942465319E-05
(PID.TID 0000.0001) %MON advcfl_vvel_max              =   1.6700425190774E-04
(PID.TID 0000.0001) %MON advcfl_wvel_max              =   1.0017565765289E-05
(PID.TID 0000.0001) %MON advcfl_W_hf_max              =   2.4184250611630E-05
(PID.TID 0000.0001) %MON pe_b_mean                    =   1.3192019046861E-10
(PID.TID 0000.0001) %MON ke_max                       =   4.2165358095209E-05
(PID.TID 0000.0001) %MON ke_mean                      =   8.9940761248682E-07
(PID.TID 0000.0001) %MON ke_vol                       =   4.4009158039362E+15
(PID.TID 0000.0001) %MON vort_r_min                   =  -2.9313123612853E-09
(PID.TID 0000.0001) %MON vort_r_max                   =   2.2493907344274E-09
(PID.TID 0000.0001) %MON vort_a_mean                  =  -1.1390240000000E-04
(PID.TID 0000.0001) %MON vort_a_sd                    =   3.7032394346082E-06
(PID.TID 0000.0001) %MON vort_p_mean                  =  -1.5528913309106E-04
(PID.TID 0000.0001) %MON vort_p_sd                    =   4.1188149044661E-05
(PID.TID 0000.0001) %MON surfExpan_theta_mean         =   9.4462308893207E-08
(PID.TID 0000.0001) %MON surfExpan_salt_mean          =   8.2654520281556E-07
(PID.TID 0000.0001) // =======================================================
(PID.TID 0000.0001) // End MONITOR dynamic field statistics
(PID.TID 0000.0001) // =======================================================
 cg2d: Sum(rhs),rhsMax =  -2.30607105577735E+00  2.88121984326693E-03
(PID.TID 0000.0001)                    cg2d_init_res =    1.23744767954262E-01
(PID.TID 0000.0001)                       cg2d_iters =    14
(PID.TID 0000.0001)                         cg2d_res =    4.04951671088886E-14
(PID.TID 0000.0001) // =======================================================
(PID.TID 0000.0001) // Begin MONITOR dynamic field statistics
(PID.TID 0000.0001) // =======================================================
(PID.TID 0000.0001) %MON time_tsnumber                =                    74
(PID.TID 0000.0001) %MON time_secondsf                =   2.6640000000000E+05
(PID.TID 0000.0001) %MON dynstat_eta_max              =   5.5029547253014E-04
(PID.TID 0000.0001) %MON dynstat_eta_min              =   3.1841268603391E-04
(PID.TID 0000.0001) %MON dynstat_eta_mean             =   4.3055049004562E-04
(PID.TID 0000.0001) %MON dynstat_eta_sd               =   7.1322550852603E-05
(PID.TID 0000.0001) %MON dynstat_eta_del2             =   2.9497132343130E-05
(PID.TID 0000.0001) %MON dynstat_uvel_max             =   2.1547089479062E-03
(PID.TID 0000.0001) %MON dynstat_uvel_min             =  -1.2595687280905E-04
(PID.TID 0000.0001) %MON dynstat_uvel_mean            =   1.1340300513839E-04
(PID.TID 0000.0001) %MON dynstat_uvel_sd              =   3.3232530221022E-04
(PID.TID 0000.0001) %MON dynstat_uvel_del2            =   5.9524244787888E-05
(PID.TID 0000.0001) %MON dynstat_vvel_max             =   9.9132961066652E-03
(PID.TID 0000.0001) %MON dynstat_vvel_min             =  -8.5297736722770E-05
(PID.TID 0000.0001) %MON dynstat_vvel_mean            =   2.2229775946127E-04
(PID.TID 0000.0001) %MON dynstat_vvel_sd              =   1.3847558648691E-03
(PID.TID 0000.0001) %MON dynstat_vvel_del2            =   1.0777669617798E-04
(PID.TID 0000.0001) %MON dynstat_wvel_max             =   6.5519518456872E-07
(PID.TID 0000.0001) %MON dynstat_wvel_min             =  -6.5364636159421E-07
(PID.TID 0000.0001) %MON dynstat_wvel_mean            =   1.8081912188827E-09
(PID.TID 0000.0001) %MON dynstat_wvel_sd              =   3.8304232300499E-07
(PID.TID 0000.0001) %MON dynstat_wvel_del2            =   2.6349540032069E-07
(PID.TID 0000.0001) %MON dynstat_theta_max            =   4.0000000000000E+00
(PID.TID 0000.0001) %MON dynstat_theta_min            =   4.0000000000000E+00
(PID.TID 0000.0001) %MON dynstat_theta_mean           =   4.0000000000000E+00
(PID.TID 0000.0001) %MON dynstat_theta_sd             =   0.0000000000000E+00
(PID.TID 0000.0001) %MON dynstat_theta_del2           =   0.0000000000000E+00
(PID.TID 0000.0001) %MON dynstat_salt_max             =   3.5000000000000E+01
(PID.TID 0000.0001) %MON dynstat_salt_min             =   3.5000000000000E+01
(PID.TID 0000.0001) %MON dynstat_salt_mean            =   3.5000000000000E+01
(PID.TID 0000.0001) %MON dynstat_salt_sd              =   0.0000000000000E+00
(PID.TID 0000.0001) %MON dynstat_salt_del2            =   0.0000000000000E+00
(PID.TID 0000.0001) %MON dynstat_sst_max              =   4.0000000000000E+00
(PID.TID 0000.0001) %MON dynstat_sst_min              =   4.0000000000000E+00
(PID.TID 0000.0001) %MON dynstat_sst_mean             =   4.0000000000000E+00
(PID.TID 0000.0001) %MON dynstat_sst_sd               =   0.0000000000000E+00
(PID.TID 0000.0001) %MON dynstat_sst_del2             =   0.0000000000000E+00
(PID.TID 0000.0001) %MON dynstat_sss_max              =   3.5000000000000E+01
(PID.TID 0000.0001) %MON dynstat_sss_min              =   3.5000000000000E+01
(PID.TID 0000.0001) %MON dynstat_sss_mean             =   3.5000000000000E+01
(PID.TID 0000.0001) %MON dynstat_sss_sd               =   0.0000000000000E+00
(PID.TID 0000.0001) %MON dynstat_sss_del2             =   0.0000000000000E+00
(PID.TID 0000.0001) %MON extforcing_qnet_max          =   0.0000000000000E+00
(PID.TID 0000.0001) %MON extforcing_qnet_min          =   0.0000000000000E+00
(PID.TID 0000.0001) %MON extforcing_qnet_mean         =   0.0000000000000E+00
(PID.TID 0000.0001) %MON extforcing_qnet_sd           =   0.0000000000000E+00
(PID.TID 0000.0001) %MON extforcing_qnet_del2         =   0.0000000000000E+00
(PID.TID 0000.0001) %MON extforcing_qsw_max           =   0.0000000000000E+00
(PID.TID 0000.0001) %MON extforcing_qsw_min           =   0.0000000000000E+00
(PID.TID 0000.0001) %MON extforcing_qsw_mean          =   0.0000000000000E+00
(PID.TID 0000.0001) %MON extforcing_qsw_sd            =   0.0000000000000E+00
(PID.TID 0000.0001) %MON extforcing_qsw_del2          =   0.0000000000000E+00
(PID.TID 0000.0001) %MON extforcing_empmr_max         =   0.0000000000000E+00
(PID.TID 0000.0001) %MON extforcing_empmr_min         =   0.0000000000000E+00
(PID.TID 0000.0001) %MON extforcing_empmr_mean        =   0.0000000000000E+00
(PID.TID 0000.0001) %MON extforcing_empmr_sd          =   0.0000000000000E+00
(PID.TID 0000.0001) %MON extforcing_empmr_del2        =   0.0000000000000E+00
(PID.TID 0000.0001) %MON extforcing_fu_max            =   1.0000000000000E-01
(PID.TID 0000.0001) %MON extforcing_fu_min            =   1.0000000000000E-01
(PID.TID 0000.0001) %MON extforcing_fu_mean           =   1.0000000000000E-01
(PID.TID 0000.0001) %MON extforcing_fu_sd             =   0.0000000000000E+00
(PID.TID 0000.0001) %MON extforcing_fu_del2           =   0.0000000000000E+00
(PID.TID 0000.0001) %MON extforcing_fv_max            =   0.0000000000000E+00
(PID.TID 0000.0001) %MON extforcing_fv_min            =   0.0000000000000E+00
(PID.TID 0000.0001) %MON extforcing_fv_mean           =   0.0000000000000E+00
(PID.TID 0000.0001) %MON extforcing_fv_sd             =   0.0000000000000E+00
(PID.TID 0000.0001) %MON extforcing_fv_del2           =   0.0000000000000E+00
(PID.TID 0000.0001) %MON advcfl_uvel_max              =   3.8784761062311E-05
(PID.TID 0000.0001) %MON advcfl_vvel_max              =   1.7843932991997E-04
(PID.TID 0000.0001) %MON advcfl_wvel_max              =   1.0013549264476E-05
(PID.TID 0000.0001) %MON advcfl_W_hf_max              =   2.3587026644474E-05
(PID.TID 0000.0001) %MON pe_b_mean                    =   2.1227613419405E-10
(PID.TID 0000.0001) %MON ke_max                       =   4.8657174315097E-05
(PID.TID 0000.0001) %MON ke_mean                      =   1.0451327236072E-06
(PID.TID 0000.0001) %MON ke_vol                       =   4.4009158039362E+15
(PID.TID 0000.0001) %MON vort_r_min                   =  -2.7478783759322E-09
(PID.TID 0000.0001) %MON vort_r_max                   =   2.1255602534752E-09
(PID.TID 0000.0001) %MON vort_a_mean                  =  -1.1390240000000E-04
(PID.TID 0000.0001) %MON vort_a_sd                    =   3.7032416654534E-06
(PID.TID 0000.0001) %MON vort_p_mean                  =  -1.5528913309106E-04
(PID.TID 0000.0001) %MON vort_p_sd                    =   4.1188148923525E-05
(PID.TID 0000.0001) %MON surfExpan_theta_mean         =   1.0479770205032E-07
(PID.TID 0000.0001) %MON surfExpan_salt_mean          =   9.1697989294028E-07
(PID.TID 0000.0001) // =======================================================
(PID.TID 0000.0001) // End MONITOR dynamic field statistics
(PID.TID 0000.0001) // =======================================================
 cg2d: Sum(rhs),rhsMax =  -2.69038333389264E+00  2.95745898573297E-03
(PID.TID 0000.0001)                    cg2d_init_res =    1.01256321687925E-01
(PID.TID 0000.0001)                       cg2d_iters =    14
(PID.TID 0000.0001)                         cg2d_res =    5.46661132360890E-14
(PID.TID 0000.0001) // =======================================================
(PID.TID 0000.0001) // Begin MONITOR dynamic field statistics
(PID.TID 0000.0001) // =======================================================
(PID.TID 0000.0001) %MON time_tsnumber                =                    75
(PID.TID 0000.0001) %MON time_secondsf                =   2.7000000000000E+05
(PID.TID 0000.0001) %MON dynstat_eta_max              =   6.3573710816379E-04
(PID.TID 0000.0001) %MON dynstat_eta_min              =   4.0236802470062E-04
(PID.TID 0000.0001) %MON dynstat_eta_mean             =   5.1559405410948E-04
(PID.TID 0000.0001) %MON dynstat_eta_sd               =   7.1416222088335E-05
(PID.TID 0000.0001) %MON dynstat_eta_del2             =   2.9324140522336E-05
(PID.TID 0000.0001) %MON dynstat_uvel_max             =   1.8228078160020E-03
(PID.TID 0000.0001) %MON dynstat_uvel_min             =  -1.1861817095854E-04
(PID.TID 0000.0001) %MON dynstat_uvel_mean            =   9.2658676009341E-05
(PID.TID 0000.0001) %MON dynstat_uvel_sd              =   2.6579584832875E-04
(PID.TID 0000.0001) %MON dynstat_uvel_del2            =   5.9789467345046E-05
(PID.TID 0000.0001) %MON dynstat_vvel_max             =   1.0475504498782E-02
(PID.TID 0000.0001) %MON dynstat_vvel_min             =  -8.7178386660837E-05
(PID.TID 0000.0001) %MON dynstat_vvel_mean            =   2.6879759981983E-04
(PID.TID 0000.0001) %MON dynstat_vvel_sd              =   1.4783340393486E-03
(PID.TID 0000.0001) %MON dynstat_vvel_del2            =   1.0787859901267E-04
(PID.TID 0000.0001) %MON dynstat_wvel_max             =   6.3700061145257E-07
(PID.TID 0000.0001) %MON dynstat_wvel_min             =  -7.3307714351697E-07
(PID.TID 0000.0001) %MON dynstat_wvel_mean            =   2.4650470114966E-09
(PID.TID 0000.0001) %MON dynstat_wvel_sd              =   3.7919353206113E-07
(PID.TID 0000.0001) %MON dynstat_wvel_del2            =   2.5063058261682E-07
(PID.TID 0000.0001) %MON dynstat_theta_max            =   4.0000000000000E+00
(PID.TID 0000.0001) %MON dynstat_theta_min            =   4.0000000000000E+00
(PID.TID 0000.0001) %MON dynstat_theta_mean           =   4.0000000000000E+00
(PID.TID 0000.0001) %MON dynstat_theta_sd             =   0.0000000000000E+00
(PID.TID 0000.0001) %MON dynstat_theta_del2           =   0.0000000000000E+00
(PID.TID 0000.0001) %MON dynstat_salt_max             =   3.5000000000000E+01
(PID.TID 0000.0001) %MON dynstat_salt_min             =   3.5000000000000E+01
(PID.TID 0000.0001) %MON dynstat_salt_mean            =   3.5000000000000E+01
(PID.TID 0000.0001) %MON dynstat_salt_sd              =   0.0000000000000E+00
(PID.TID 0000.0001) %MON dynstat_salt_del2            =   0.0000000000000E+00
(PID.TID 0000.0001) %MON dynstat_sst_max              =   4.0000000000000E+00
(PID.TID 0000.0001) %MON dynstat_sst_min              =   4.0000000000000E+00
(PID.TID 0000.0001) %MON dynstat_sst_mean             =   4.0000000000000E+00
(PID.TID 0000.0001) %MON dynstat_sst_sd               =   0.0000000000000E+00
(PID.TID 0000.0001) %MON dynstat_sst_del2             =   0.0000000000000E+00
(PID.TID 0000.0001) %MON dynstat_sss_max              =   3.5000000000000E+01
(PID.TID 0000.0001) %MON dynstat_sss_min              =   3.5000000000000E+01
(PID.TID 0000.0001) %MON dynstat_sss_mean             =   3.5000000000000E+01
(PID.TID 0000.0001) %MON dynstat_sss_sd               =   0.0000000000000E+00
(PID.TID 0000.0001) %MON dynstat_sss_del2             =   0.0000000000000E+00
(PID.TID 0000.0001) %MON extforcing_qnet_max          =   0.0000000000000E+00
(PID.TID 0000.0001) %MON extforcing_qnet_min          =   0.0000000000000E+00
(PID.TID 0000.0001) %MON extforcing_qnet_mean         =   0.0000000000000E+00
(PID.TID 0000.0001) %MON extforcing_qnet_sd           =   0.0000000000000E+00
(PID.TID 0000.0001) %MON extforcing_qnet_del2         =   0.0000000000000E+00
(PID.TID 0000.0001) %MON extforcing_qsw_max           =   0.0000000000000E+00
(PID.TID 0000.0001) %MON extforcing_qsw_min           =   0.0000000000000E+00
(PID.TID 0000.0001) %MON extforcing_qsw_mean          =   0.0000000000000E+00
(PID.TID 0000.0001) %MON extforcing_qsw_sd            =   0.0000000000000E+00
(PID.TID 0000.0001) %MON extforcing_qsw_del2          =   0.0000000000000E+00
(PID.TID 0000.0001) %MON extforcing_empmr_max         =   0.0000000000000E+00
(PID.TID 0000.0001) %MON extforcing_empmr_min         =   0.0000000000000E+00
(PID.TID 0000.0001) %MON extforcing_empmr_mean        =   0.0000000000000E+00
(PID.TID 0000.0001) %MON extforcing_empmr_sd          =   0.0000000000000E+00
(PID.TID 0000.0001) %MON extforcing_empmr_del2        =   0.0000000000000E+00
(PID.TID 0000.0001) %MON extforcing_fu_max            =   1.0000000000000E-01
(PID.TID 0000.0001) %MON extforcing_fu_min            =   1.0000000000000E-01
(PID.TID 0000.0001) %MON extforcing_fu_mean           =   1.0000000000000E-01
(PID.TID 0000.0001) %MON extforcing_fu_sd             =   0.0000000000000E+00
(PID.TID 0000.0001) %MON extforcing_fu_del2           =   0.0000000000000E+00
(PID.TID 0000.0001) %MON extforcing_fv_max            =   0.0000000000000E+00
(PID.TID 0000.0001) %MON extforcing_fv_min            =   0.0000000000000E+00
(PID.TID 0000.0001) %MON extforcing_fv_mean           =   0.0000000000000E+00
(PID.TID 0000.0001) %MON extforcing_fv_sd             =   0.0000000000000E+00
(PID.TID 0000.0001) %MON extforcing_fv_del2           =   0.0000000000000E+00
(PID.TID 0000.0001) %MON advcfl_uvel_max              =   3.2810540688036E-05
(PID.TID 0000.0001) %MON advcfl_vvel_max              =   1.8855908097807E-04
(PID.TID 0000.0001) %MON advcfl_wvel_max              =   9.5508092197020E-06
(PID.TID 0000.0001) %MON advcfl_W_hf_max              =   2.2932022012292E-05
(PID.TID 0000.0001) %MON pe_b_mean                    =   3.0197089043364E-10
(PID.TID 0000.0001) %MON ke_max                       =   5.4121332788994E-05
(PID.TID 0000.0001) %MON ke_mean                      =   1.1684783723971E-06
(PID.TID 0000.0001) %MON ke_vol                       =   4.4009158039362E+15
(PID.TID 0000.0001) %MON vort_r_min                   =  -2.6717590336126E-09
(PID.TID 0000.0001) %MON vort_r_max                   =   2.8487255789370E-09
(PID.TID 0000.0001) %MON vort_a_mean                  =  -1.1390240000000E-04
(PID.TID 0000.0001) %MON vort_a_sd                    =   3.7032419805196E-06
(PID.TID 0000.0001) %MON vort_p_mean                  =  -1.5528913309106E-04
(PID.TID 0000.0001) %MON vort_p_sd                    =   4.1188148738754E-05
(PID.TID 0000.0001) %MON surfExpan_theta_mean         =   9.4492848959839E-08
(PID.TID 0000.0001) %MON surfExpan_salt_mean          =   8.2681242839859E-07
(PID.TID 0000.0001) // =======================================================
(PID.TID 0000.0001) // End MONITOR dynamic field statistics
(PID.TID 0000.0001) // =======================================================
 cg2d: Sum(rhs),rhsMax =  -2.94313285401577E+00  3.01465309603792E-03
(PID.TID 0000.0001)                    cg2d_init_res =    9.44195349852401E-02
(PID.TID 0000.0001)                       cg2d_iters =    14
(PID.TID 0000.0001)                         cg2d_res =    5.17837544669137E-14
(PID.TID 0000.0001) // =======================================================
(PID.TID 0000.0001) // Begin MONITOR dynamic field statistics
(PID.TID 0000.0001) // =======================================================
(PID.TID 0000.0001) %MON time_tsnumber                =                    76
(PID.TID 0000.0001) %MON time_secondsf                =   2.7360000000000E+05
(PID.TID 0000.0001) %MON dynstat_eta_max              =   6.9654846054928E-04
(PID.TID 0000.0001) %MON dynstat_eta_min              =   4.5842448265428E-04
(PID.TID 0000.0001) %MON dynstat_eta_mean             =   5.7493959216254E-04
(PID.TID 0000.0001) %MON dynstat_eta_sd               =   7.3133326579673E-05
(PID.TID 0000.0001) %MON dynstat_eta_del2             =   2.9373713095801E-05
(PID.TID 0000.0001) %MON dynstat_uvel_max             =   1.3093582164868E-03
(PID.TID 0000.0001) %MON dynstat_uvel_min             =  -1.1172249753443E-04
(PID.TID 0000.0001) %MON dynstat_uvel_mean            =   5.4254930764534E-05
(PID.TID 0000.0001) %MON dynstat_uvel_sd              =   1.6402720765268E-04
(PID.TID 0000.0001) %MON dynstat_uvel_del2            =   6.1760874553424E-05
(PID.TID 0000.0001) %MON dynstat_vvel_max             =   1.0859311550758E-02
(PID.TID 0000.0001) %MON dynstat_vvel_min             =  -8.2293371896829E-05
(PID.TID 0000.0001) %MON dynstat_vvel_mean            =   3.0133411808121E-04
(PID.TID 0000.0001) %MON dynstat_vvel_sd              =   1.5398333846612E-03
(PID.TID 0000.0001) %MON dynstat_vvel_del2            =   1.0788967369631E-04
(PID.TID 0000.0001) %MON dynstat_wvel_max             =   6.2049254509711E-07
(PID.TID 0000.0001) %MON dynstat_wvel_min             =  -7.5014252089249E-07
(PID.TID 0000.0001) %MON dynstat_wvel_mean            =   2.6664036321229E-09
(PID.TID 0000.0001) %MON dynstat_wvel_sd              =   3.7856220954230E-07
(PID.TID 0000.0001) %MON dynstat_wvel_del2            =   2.4386635828426E-07
(PID.TID 0000.0001) %MON dynstat_theta_max            =   4.0000000000000E+00
(PID.TID 0000.0001) %MON dynstat_theta_min            =   4.0000000000000E+00
(PID.TID 0000.0001) %MON dynstat_theta_mean           =   4.0000000000000E+00
(PID.TID 0000.0001) %MON dynstat_theta_sd             =   0.0000000000000E+00
(PID.TID 0000.0001) %MON dynstat_theta_del2           =   0.0000000000000E+00
(PID.TID 0000.0001) %MON dynstat_salt_max             =   3.5000000000000E+01
(PID.TID 0000.0001) %MON dynstat_salt_min             =   3.5000000000000E+01
(PID.TID 0000.0001) %MON dynstat_salt_mean            =   3.5000000000000E+01
(PID.TID 0000.0001) %MON dynstat_salt_sd              =   0.0000000000000E+00
(PID.TID 0000.0001) %MON dynstat_salt_del2            =   0.0000000000000E+00
(PID.TID 0000.0001) %MON dynstat_sst_max              =   4.0000000000000E+00
(PID.TID 0000.0001) %MON dynstat_sst_min              =   4.0000000000000E+00
(PID.TID 0000.0001) %MON dynstat_sst_mean             =   4.0000000000000E+00
(PID.TID 0000.0001) %MON dynstat_sst_sd               =   0.0000000000000E+00
(PID.TID 0000.0001) %MON dynstat_sst_del2             =   0.0000000000000E+00
(PID.TID 0000.0001) %MON dynstat_sss_max              =   3.5000000000000E+01
(PID.TID 0000.0001) %MON dynstat_sss_min              =   3.5000000000000E+01
(PID.TID 0000.0001) %MON dynstat_sss_mean             =   3.5000000000000E+01
(PID.TID 0000.0001) %MON dynstat_sss_sd               =   0.0000000000000E+00
(PID.TID 0000.0001) %MON dynstat_sss_del2             =   0.0000000000000E+00
(PID.TID 0000.0001) %MON extforcing_qnet_max          =   0.0000000000000E+00
(PID.TID 0000.0001) %MON extforcing_qnet_min          =   0.0000000000000E+00
(PID.TID 0000.0001) %MON extforcing_qnet_mean         =   0.0000000000000E+00
(PID.TID 0000.0001) %MON extforcing_qnet_sd           =   0.0000000000000E+00
(PID.TID 0000.0001) %MON extforcing_qnet_del2         =   0.0000000000000E+00
(PID.TID 0000.0001) %MON extforcing_qsw_max           =   0.0000000000000E+00
(PID.TID 0000.0001) %MON extforcing_qsw_min           =   0.0000000000000E+00
(PID.TID 0000.0001) %MON extforcing_qsw_mean          =   0.0000000000000E+00
(PID.TID 0000.0001) %MON extforcing_qsw_sd            =   0.0000000000000E+00
(PID.TID 0000.0001) %MON extforcing_qsw_del2          =   0.0000000000000E+00
(PID.TID 0000.0001) %MON extforcing_empmr_max         =   0.0000000000000E+00
(PID.TID 0000.0001) %MON extforcing_empmr_min         =   0.0000000000000E+00
(PID.TID 0000.0001) %MON extforcing_empmr_mean        =   0.0000000000000E+00
(PID.TID 0000.0001) %MON extforcing_empmr_sd          =   0.0000000000000E+00
(PID.TID 0000.0001) %MON extforcing_empmr_del2        =   0.0000000000000E+00
(PID.TID 0000.0001) %MON extforcing_fu_max            =   1.0000000000000E-01
(PID.TID 0000.0001) %MON extforcing_fu_min            =   1.0000000000000E-01
(PID.TID 0000.0001) %MON extforcing_fu_mean           =   1.0000000000000E-01
(PID.TID 0000.0001) %MON extforcing_fu_sd             =   0.0000000000000E+00
(PID.TID 0000.0001) %MON extforcing_fu_del2           =   0.0000000000000E+00
(PID.TID 0000.0001) %MON extforcing_fv_max            =   0.0000000000000E+00
(PID.TID 0000.0001) %MON extforcing_fv_min            =   0.0000000000000E+00
(PID.TID 0000.0001) %MON extforcing_fv_mean           =   0.0000000000000E+00
(PID.TID 0000.0001) %MON extforcing_fv_sd             =   0.0000000000000E+00
(PID.TID 0000.0001) %MON extforcing_fv_del2           =   0.0000000000000E+00
(PID.TID 0000.0001) %MON advcfl_uvel_max              =   2.3568447896762E-05
(PID.TID 0000.0001) %MON advcfl_vvel_max              =   1.9546760791364E-04
(PID.TID 0000.0001) %MON advcfl_wvel_max              =   9.2122628227361E-06
(PID.TID 0000.0001) %MON advcfl_W_hf_max              =   2.2337731623496E-05
(PID.TID 0000.0001) %MON pe_b_mean                    =   3.7437871619147E-10
(PID.TID 0000.0001) %MON ke_max                       =   5.7493232625548E-05
(PID.TID 0000.0001) %MON ke_mean                      =   1.2458688127998E-06
(PID.TID 0000.0001) %MON ke_vol                       =   4.4009158039362E+15
(PID.TID 0000.0001) %MON vort_r_min                   =  -2.7341954301556E-09
(PID.TID 0000.0001) %MON vort_r_max                   =   3.7391091683345E-09
(PID.TID 0000.0001) %MON vort_a_mean                  =  -1.1390240000000E-04
(PID.TID 0000.0001) %MON vort_a_sd                    =   3.7032404730435E-06
(PID.TID 0000.0001) %MON vort_p_mean                  =  -1.5528913309106E-04
(PID.TID 0000.0001) %MON vort_p_sd                    =   4.1188148387606E-05
(PID.TID 0000.0001) %MON surfExpan_theta_mean         =   6.5939486725625E-08
(PID.TID 0000.0001) %MON surfExpan_salt_mean          =   5.7697050884922E-07
(PID.TID 0000.0001) // =======================================================
(PID.TID 0000.0001) // End MONITOR dynamic field statistics
(PID.TID 0000.0001) // =======================================================
 cg2d: Sum(rhs),rhsMax =  -3.03123924248593E+00  3.04190025811532E-03
(PID.TID 0000.0001)                    cg2d_init_res =    1.05741000604370E-01
(PID.TID 0000.0001)                       cg2d_iters =    14
(PID.TID 0000.0001)                         cg2d_res =    2.83413133697625E-14
(PID.TID 0000.0001) // =======================================================
(PID.TID 0000.0001) // Begin MONITOR dynamic field statistics
(PID.TID 0000.0001) // =======================================================
(PID.TID 0000.0001) %MON time_tsnumber                =                    77
(PID.TID 0000.0001) %MON time_secondsf                =   2.7720000000000E+05
(PID.TID 0000.0001) %MON dynstat_eta_max              =   7.2127763719143E-04
(PID.TID 0000.0001) %MON dynstat_eta_min              =   4.7611775844208E-04
(PID.TID 0000.0001) %MON dynstat_eta_mean             =   5.9750313773145E-04
(PID.TID 0000.0001) %MON dynstat_eta_sd               =   7.6220554106095E-05
(PID.TID 0000.0001) %MON dynstat_eta_del2             =   2.9882832674329E-05
(PID.TID 0000.0001) %MON dynstat_uvel_max             =   6.9529111264495E-04
(PID.TID 0000.0001) %MON dynstat_uvel_min             =  -2.6927903683642E-04
(PID.TID 0000.0001) %MON dynstat_uvel_mean            =   6.0565900402925E-06
(PID.TID 0000.0001) %MON dynstat_uvel_sd              =   9.2542006227980E-05
(PID.TID 0000.0001) %MON dynstat_uvel_del2            =   6.5025223538616E-05
(PID.TID 0000.0001) %MON dynstat_vvel_max             =   1.0998829767612E-02
(PID.TID 0000.0001) %MON dynstat_vvel_min             =  -7.1306773157232E-05
(PID.TID 0000.0001) %MON dynstat_vvel_mean            =   3.1376580223725E-04
(PID.TID 0000.0001) %MON dynstat_vvel_sd              =   1.5556870680285E-03
(PID.TID 0000.0001) %MON dynstat_vvel_del2            =   1.0772546224369E-04
(PID.TID 0000.0001) %MON dynstat_wvel_max             =   6.0865444431034E-07
(PID.TID 0000.0001) %MON dynstat_wvel_min             =  -6.9851075561647E-07
(PID.TID 0000.0001) %MON dynstat_wvel_mean            =   2.3641315119171E-09
(PID.TID 0000.0001) %MON dynstat_wvel_sd              =   3.6981360613211E-07
(PID.TID 0000.0001) %MON dynstat_wvel_del2            =   2.4344947955538E-07
(PID.TID 0000.0001) %MON dynstat_theta_max            =   4.0000000000000E+00
(PID.TID 0000.0001) %MON dynstat_theta_min            =   4.0000000000000E+00
(PID.TID 0000.0001) %MON dynstat_theta_mean           =   4.0000000000000E+00
(PID.TID 0000.0001) %MON dynstat_theta_sd             =   0.0000000000000E+00
(PID.TID 0000.0001) %MON dynstat_theta_del2           =   0.0000000000000E+00
(PID.TID 0000.0001) %MON dynstat_salt_max             =   3.5000000000000E+01
(PID.TID 0000.0001) %MON dynstat_salt_min             =   3.5000000000000E+01
(PID.TID 0000.0001) %MON dynstat_salt_mean            =   3.5000000000000E+01
(PID.TID 0000.0001) %MON dynstat_salt_sd              =   0.0000000000000E+00
(PID.TID 0000.0001) %MON dynstat_salt_del2            =   0.0000000000000E+00
(PID.TID 0000.0001) %MON dynstat_sst_max              =   4.0000000000000E+00
(PID.TID 0000.0001) %MON dynstat_sst_min              =   4.0000000000000E+00
(PID.TID 0000.0001) %MON dynstat_sst_mean             =   4.0000000000000E+00
(PID.TID 0000.0001) %MON dynstat_sst_sd               =   0.0000000000000E+00
(PID.TID 0000.0001) %MON dynstat_sst_del2             =   0.0000000000000E+00
(PID.TID 0000.0001) %MON dynstat_sss_max              =   3.5000000000000E+01
(PID.TID 0000.0001) %MON dynstat_sss_min              =   3.5000000000000E+01
(PID.TID 0000.0001) %MON dynstat_sss_mean             =   3.5000000000000E+01
(PID.TID 0000.0001) %MON dynstat_sss_sd               =   0.0000000000000E+00
(PID.TID 0000.0001) %MON dynstat_sss_del2             =   0.0000000000000E+00
(PID.TID 0000.0001) %MON extforcing_qnet_max          =   0.0000000000000E+00
(PID.TID 0000.0001) %MON extforcing_qnet_min          =   0.0000000000000E+00
(PID.TID 0000.0001) %MON extforcing_qnet_mean         =   0.0000000000000E+00
(PID.TID 0000.0001) %MON extforcing_qnet_sd           =   0.0000000000000E+00
(PID.TID 0000.0001) %MON extforcing_qnet_del2         =   0.0000000000000E+00
(PID.TID 0000.0001) %MON extforcing_qsw_max           =   0.0000000000000E+00
(PID.TID 0000.0001) %MON extforcing_qsw_min           =   0.0000000000000E+00
(PID.TID 0000.0001) %MON extforcing_qsw_mean          =   0.0000000000000E+00
(PID.TID 0000.0001) %MON extforcing_qsw_sd            =   0.0000000000000E+00
(PID.TID 0000.0001) %MON extforcing_qsw_del2          =   0.0000000000000E+00
(PID.TID 0000.0001) %MON extforcing_empmr_max         =   0.0000000000000E+00
(PID.TID 0000.0001) %MON extforcing_empmr_min         =   0.0000000000000E+00
(PID.TID 0000.0001) %MON extforcing_empmr_mean        =   0.0000000000000E+00
(PID.TID 0000.0001) %MON extforcing_empmr_sd          =   0.0000000000000E+00
(PID.TID 0000.0001) %MON extforcing_empmr_del2        =   0.0000000000000E+00
(PID.TID 0000.0001) %MON extforcing_fu_max            =   1.0000000000000E-01
(PID.TID 0000.0001) %MON extforcing_fu_min            =   1.0000000000000E-01
(PID.TID 0000.0001) %MON extforcing_fu_mean           =   1.0000000000000E-01
(PID.TID 0000.0001) %MON extforcing_fu_sd             =   0.0000000000000E+00
(PID.TID 0000.0001) %MON extforcing_fu_del2           =   0.0000000000000E+00
(PID.TID 0000.0001) %MON extforcing_fv_max            =   0.0000000000000E+00
(PID.TID 0000.0001) %MON extforcing_fv_min            =   0.0000000000000E+00
(PID.TID 0000.0001) %MON extforcing_fv_mean           =   0.0000000000000E+00
(PID.TID 0000.0001) %MON extforcing_fv_sd             =   0.0000000000000E+00
(PID.TID 0000.0001) %MON extforcing_fv_del2           =   0.0000000000000E+00
(PID.TID 0000.0001) %MON advcfl_uvel_max              =   1.2515240027609E-05
(PID.TID 0000.0001) %MON advcfl_vvel_max              =   1.9797893581701E-04
(PID.TID 0000.0001) %MON advcfl_wvel_max              =   9.2080920985950E-06
(PID.TID 0000.0001) %MON advcfl_W_hf_max              =   2.1911559995172E-05
(PID.TID 0000.0001) %MON pe_b_mean                    =   4.0437719834579E-10
(PID.TID 0000.0001) %MON ke_max                       =   5.8165965089700E-05
(PID.TID 0000.0001) %MON ke_mean                      =   1.2636059687422E-06
(PID.TID 0000.0001) %MON ke_vol                       =   4.4009158039362E+15
(PID.TID 0000.0001) %MON vort_r_min                   =  -2.8091467793859E-09
(PID.TID 0000.0001) %MON vort_r_max                   =   4.6206952234788E-09
(PID.TID 0000.0001) %MON vort_a_mean                  =  -1.1390240000000E-04
(PID.TID 0000.0001) %MON vort_a_sd                    =   3.7032375693699E-06
(PID.TID 0000.0001) %MON vort_p_mean                  =  -1.5528913309106E-04
(PID.TID 0000.0001) %MON vort_p_sd                    =   4.1188147793244E-05
(PID.TID 0000.0001) %MON surfExpan_theta_mean         =   2.5070606187674E-08
(PID.TID 0000.0001) %MON surfExpan_salt_mean          =   2.1936780414215E-07
(PID.TID 0000.0001) // =======================================================
(PID.TID 0000.0001) // End MONITOR dynamic field statistics
(PID.TID 0000.0001) // =======================================================
 cg2d: Sum(rhs),rhsMax =  -2.94785322566254E+00  3.03433140059537E-03
(PID.TID 0000.0001)                    cg2d_init_res =    1.21716980320459E-01
(PID.TID 0000.0001)                       cg2d_iters =    14
(PID.TID 0000.0001)                         cg2d_res =    3.01378450246610E-14
(PID.TID 0000.0001) // =======================================================
(PID.TID 0000.0001) // Begin MONITOR dynamic field statistics
(PID.TID 0000.0001) // =======================================================
(PID.TID 0000.0001) %MON time_tsnumber                =                    78
(PID.TID 0000.0001) %MON time_secondsf                =   2.8080000000000E+05
(PID.TID 0000.0001) %MON dynstat_eta_max              =   7.0576233006419E-04
(PID.TID 0000.0001) %MON dynstat_eta_min              =   4.5270013969387E-04
(PID.TID 0000.0001) %MON dynstat_eta_mean             =   5.7962068173193E-04
(PID.TID 0000.0001) %MON dynstat_eta_sd               =   8.0115692204590E-05
(PID.TID 0000.0001) %MON dynstat_eta_del2             =   3.1084334453376E-05
(PID.TID 0000.0001) %MON dynstat_uvel_max             =   1.1937772664231E-04
(PID.TID 0000.0001) %MON dynstat_uvel_min             =  -9.9387742780540E-04
(PID.TID 0000.0001) %MON dynstat_uvel_mean            =  -4.2289776556977E-05
(PID.TID 0000.0001) %MON dynstat_uvel_sd              =   1.5601537463774E-04
(PID.TID 0000.0001) %MON dynstat_uvel_del2            =   6.8705895014627E-05
(PID.TID 0000.0001) %MON dynstat_vvel_max             =   1.0878636443938E-02
(PID.TID 0000.0001) %MON dynstat_vvel_min             =  -6.2561128954082E-05
(PID.TID 0000.0001) %MON dynstat_vvel_mean            =   3.0401233060070E-04
(PID.TID 0000.0001) %MON dynstat_vvel_sd              =   1.5237940875782E-03
(PID.TID 0000.0001) %MON dynstat_vvel_del2            =   1.0740914747989E-04
(PID.TID 0000.0001) %MON dynstat_wvel_max             =   6.0361804574306E-07
(PID.TID 0000.0001) %MON dynstat_wvel_min             =  -5.8501589677188E-07
(PID.TID 0000.0001) %MON dynstat_wvel_mean            =   1.6073408626600E-09
(PID.TID 0000.0001) %MON dynstat_wvel_sd              =   3.6314653439400E-07
(PID.TID 0000.0001) %MON dynstat_wvel_del2            =   2.4905297447147E-07
(PID.TID 0000.0001) %MON dynstat_theta_max            =   4.0000000000000E+00
(PID.TID 0000.0001) %MON dynstat_theta_min            =   4.0000000000000E+00
(PID.TID 0000.0001) %MON dynstat_theta_mean           =   4.0000000000000E+00
(PID.TID 0000.0001) %MON dynstat_theta_sd             =   0.0000000000000E+00
(PID.TID 0000.0001) %MON dynstat_theta_del2           =   0.0000000000000E+00
(PID.TID 0000.0001) %MON dynstat_salt_max             =   3.5000000000000E+01
(PID.TID 0000.0001) %MON dynstat_salt_min             =   3.5000000000000E+01
(PID.TID 0000.0001) %MON dynstat_salt_mean            =   3.5000000000000E+01
(PID.TID 0000.0001) %MON dynstat_salt_sd              =   0.0000000000000E+00
(PID.TID 0000.0001) %MON dynstat_salt_del2            =   0.0000000000000E+00
(PID.TID 0000.0001) %MON dynstat_sst_max              =   4.0000000000000E+00
(PID.TID 0000.0001) %MON dynstat_sst_min              =   4.0000000000000E+00
(PID.TID 0000.0001) %MON dynstat_sst_mean             =   4.0000000000000E+00
(PID.TID 0000.0001) %MON dynstat_sst_sd               =   0.0000000000000E+00
(PID.TID 0000.0001) %MON dynstat_sst_del2             =   0.0000000000000E+00
(PID.TID 0000.0001) %MON dynstat_sss_max              =   3.5000000000000E+01
(PID.TID 0000.0001) %MON dynstat_sss_min              =   3.5000000000000E+01
(PID.TID 0000.0001) %MON dynstat_sss_mean             =   3.5000000000000E+01
(PID.TID 0000.0001) %MON dynstat_sss_sd               =   0.0000000000000E+00
(PID.TID 0000.0001) %MON dynstat_sss_del2             =   0.0000000000000E+00
(PID.TID 0000.0001) %MON extforcing_qnet_max          =   0.0000000000000E+00
(PID.TID 0000.0001) %MON extforcing_qnet_min          =   0.0000000000000E+00
(PID.TID 0000.0001) %MON extforcing_qnet_mean         =   0.0000000000000E+00
(PID.TID 0000.0001) %MON extforcing_qnet_sd           =   0.0000000000000E+00
(PID.TID 0000.0001) %MON extforcing_qnet_del2         =   0.0000000000000E+00
(PID.TID 0000.0001) %MON extforcing_qsw_max           =   0.0000000000000E+00
(PID.TID 0000.0001) %MON extforcing_qsw_min           =   0.0000000000000E+00
(PID.TID 0000.0001) %MON extforcing_qsw_mean          =   0.0000000000000E+00
(PID.TID 0000.0001) %MON extforcing_qsw_sd            =   0.0000000000000E+00
(PID.TID 0000.0001) %MON extforcing_qsw_del2          =   0.0000000000000E+00
(PID.TID 0000.0001) %MON extforcing_empmr_max         =   0.0000000000000E+00
(PID.TID 0000.0001) %MON extforcing_empmr_min         =   0.0000000000000E+00
(PID.TID 0000.0001) %MON extforcing_empmr_mean        =   0.0000000000000E+00
(PID.TID 0000.0001) %MON extforcing_empmr_sd          =   0.0000000000000E+00
(PID.TID 0000.0001) %MON extforcing_empmr_del2        =   0.0000000000000E+00
(PID.TID 0000.0001) %MON extforcing_fu_max            =   1.0000000000000E-01
(PID.TID 0000.0001) %MON extforcing_fu_min            =   1.0000000000000E-01
(PID.TID 0000.0001) %MON extforcing_fu_mean           =   1.0000000000000E-01
(PID.TID 0000.0001) %MON extforcing_fu_sd             =   0.0000000000000E+00
(PID.TID 0000.0001) %MON extforcing_fu_del2           =   0.0000000000000E+00
(PID.TID 0000.0001) %MON extforcing_fv_max            =   0.0000000000000E+00
(PID.TID 0000.0001) %MON extforcing_fv_min            =   0.0000000000000E+00
(PID.TID 0000.0001) %MON extforcing_fv_mean           =   0.0000000000000E+00
(PID.TID 0000.0001) %MON extforcing_fv_sd             =   0.0000000000000E+00
(PID.TID 0000.0001) %MON extforcing_fv_del2           =   0.0000000000000E+00
(PID.TID 0000.0001) %MON advcfl_uvel_max              =   1.7889793700497E-05
(PID.TID 0000.0001) %MON advcfl_vvel_max              =   1.9581545599089E-04
(PID.TID 0000.0001) %MON advcfl_wvel_max              =   9.3028621393962E-06
(PID.TID 0000.0001) %MON advcfl_W_hf_max              =   2.1730249646750E-05
(PID.TID 0000.0001) %MON pe_b_mean                    =   3.8159496713235E-10
(PID.TID 0000.0001) %MON ke_max                       =   5.6109878282152E-05
(PID.TID 0000.0001) %MON ke_mean                      =   1.2202505704100E-06
(PID.TID 0000.0001) %MON ke_vol                       =   4.4009158039362E+15
(PID.TID 0000.0001) %MON vort_r_min                   =  -2.8707599560227E-09
(PID.TID 0000.0001) %MON vort_r_max                   =   5.3198552156330E-09
(PID.TID 0000.0001) %MON vort_a_mean                  =  -1.1390240000000E-04
(PID.TID 0000.0001) %MON vort_a_sd                    =   3.7032339293582E-06
(PID.TID 0000.0001) %MON vort_p_mean                  =  -1.5528913309106E-04
(PID.TID 0000.0001) %MON vort_p_sd                    =   4.1188146916020E-05
(PID.TID 0000.0001) %MON surfExpan_theta_mean         =  -1.9869395555021E-08
(PID.TID 0000.0001) %MON surfExpan_salt_mean          =  -1.7385721110643E-07
(PID.TID 0000.0001) // =======================================================
(PID.TID 0000.0001) // End MONITOR dynamic field statistics
(PID.TID 0000.0001) // =======================================================
 cg2d: Sum(rhs),rhsMax =  -2.61356655263080E+00  3.10365978565920E-03
(PID.TID 0000.0001)                    cg2d_init_res =    1.25879302160451E-01
(PID.TID 0000.0001)                       cg2d_iters =    14
(PID.TID 0000.0001)                         cg2d_res =    4.15980051440552E-14
(PID.TID 0000.0001) // =======================================================
(PID.TID 0000.0001) // Begin MONITOR dynamic field statistics
(PID.TID 0000.0001) // =======================================================
(PID.TID 0000.0001) %MON time_tsnumber                =                    79
(PID.TID 0000.0001) %MON time_secondsf                =   2.8440000000000E+05
(PID.TID 0000.0001) %MON dynstat_eta_max              =   6.5841490359852E-04
(PID.TID 0000.0001) %MON dynstat_eta_min              =   3.9354011754995E-04
(PID.TID 0000.0001) %MON dynstat_eta_mean             =   5.2563306714406E-04
(PID.TID 0000.0001) %MON dynstat_eta_sd               =   8.4000456061488E-05
(PID.TID 0000.0001) %MON dynstat_eta_del2             =   3.2326123946608E-05
(PID.TID 0000.0001) %MON dynstat_uvel_max             =   1.1534137049363E-04
(PID.TID 0000.0001) %MON dynstat_uvel_min             =  -1.5208380178221E-03
(PID.TID 0000.0001) %MON dynstat_uvel_mean            =  -8.1283377014336E-05
(PID.TID 0000.0001) %MON dynstat_uvel_sd              =   2.3977550051692E-04
(PID.TID 0000.0001) %MON dynstat_uvel_del2            =   7.1425523607807E-05
(PID.TID 0000.0001) %MON dynstat_vvel_max             =   1.0534534528830E-02
(PID.TID 0000.0001) %MON dynstat_vvel_min             =  -5.7077928276982E-05
(PID.TID 0000.0001) %MON dynstat_vvel_mean            =   2.7438963433231E-04
(PID.TID 0000.0001) %MON dynstat_vvel_sd              =   1.4537967433017E-03
(PID.TID 0000.0001) %MON dynstat_vvel_del2            =   1.0734837549887E-04
(PID.TID 0000.0001) %MON dynstat_wvel_max             =   6.5109061814508E-07
(PID.TID 0000.0001) %MON dynstat_wvel_min             =  -4.6702745180835E-07
(PID.TID 0000.0001) %MON dynstat_wvel_mean            =   5.3400118825089E-10
(PID.TID 0000.0001) %MON dynstat_wvel_sd              =   3.8432320157921E-07
(PID.TID 0000.0001) %MON dynstat_wvel_del2            =   2.6040724925599E-07
(PID.TID 0000.0001) %MON dynstat_theta_max            =   4.0000000000000E+00
(PID.TID 0000.0001) %MON dynstat_theta_min            =   4.0000000000000E+00
(PID.TID 0000.0001) %MON dynstat_theta_mean           =   4.0000000000000E+00
(PID.TID 0000.0001) %MON dynstat_theta_sd             =   0.0000000000000E+00
(PID.TID 0000.0001) %MON dynstat_theta_del2           =   0.0000000000000E+00
(PID.TID 0000.0001) %MON dynstat_salt_max             =   3.5000000000000E+01
(PID.TID 0000.0001) %MON dynstat_salt_min             =   3.5000000000000E+01
(PID.TID 0000.0001) %MON dynstat_salt_mean            =   3.5000000000000E+01
(PID.TID 0000.0001) %MON dynstat_salt_sd              =   0.0000000000000E+00
(PID.TID 0000.0001) %MON dynstat_salt_del2            =   0.0000000000000E+00
(PID.TID 0000.0001) %MON dynstat_sst_max              =   4.0000000000000E+00
(PID.TID 0000.0001) %MON dynstat_sst_min              =   4.0000000000000E+00
(PID.TID 0000.0001) %MON dynstat_sst_mean             =   4.0000000000000E+00
(PID.TID 0000.0001) %MON dynstat_sst_sd               =   0.0000000000000E+00
(PID.TID 0000.0001) %MON dynstat_sst_del2             =   0.0000000000000E+00
(PID.TID 0000.0001) %MON dynstat_sss_max              =   3.5000000000000E+01
(PID.TID 0000.0001) %MON dynstat_sss_min              =   3.5000000000000E+01
(PID.TID 0000.0001) %MON dynstat_sss_mean             =   3.5000000000000E+01
(PID.TID 0000.0001) %MON dynstat_sss_sd               =   0.0000000000000E+00
(PID.TID 0000.0001) %MON dynstat_sss_del2             =   0.0000000000000E+00
(PID.TID 0000.0001) %MON extforcing_qnet_max          =   0.0000000000000E+00
(PID.TID 0000.0001) %MON extforcing_qnet_min          =   0.0000000000000E+00
(PID.TID 0000.0001) %MON extforcing_qnet_mean         =   0.0000000000000E+00
(PID.TID 0000.0001) %MON extforcing_qnet_sd           =   0.0000000000000E+00
(PID.TID 0000.0001) %MON extforcing_qnet_del2         =   0.0000000000000E+00
(PID.TID 0000.0001) %MON extforcing_qsw_max           =   0.0000000000000E+00
(PID.TID 0000.0001) %MON extforcing_qsw_min           =   0.0000000000000E+00
(PID.TID 0000.0001) %MON extforcing_qsw_mean          =   0.0000000000000E+00
(PID.TID 0000.0001) %MON extforcing_qsw_sd            =   0.0000000000000E+00
(PID.TID 0000.0001) %MON extforcing_qsw_del2          =   0.0000000000000E+00
(PID.TID 0000.0001) %MON extforcing_empmr_max         =   0.0000000000000E+00
(PID.TID 0000.0001) %MON extforcing_empmr_min         =   0.0000000000000E+00
(PID.TID 0000.0001) %MON extforcing_empmr_mean        =   0.0000000000000E+00
(PID.TID 0000.0001) %MON extforcing_empmr_sd          =   0.0000000000000E+00
(PID.TID 0000.0001) %MON extforcing_empmr_del2        =   0.0000000000000E+00
(PID.TID 0000.0001) %MON extforcing_fu_max            =   1.0000000000000E-01
(PID.TID 0000.0001) %MON extforcing_fu_min            =   1.0000000000000E-01
(PID.TID 0000.0001) %MON extforcing_fu_mean           =   1.0000000000000E-01
(PID.TID 0000.0001) %MON extforcing_fu_sd             =   0.0000000000000E+00
(PID.TID 0000.0001) %MON extforcing_fu_del2           =   0.0000000000000E+00
(PID.TID 0000.0001) %MON extforcing_fv_max            =   0.0000000000000E+00
(PID.TID 0000.0001) %MON extforcing_fv_min            =   0.0000000000000E+00
(PID.TID 0000.0001) %MON extforcing_fv_mean           =   0.0000000000000E+00
(PID.TID 0000.0001) %MON extforcing_fv_sd             =   0.0000000000000E+00
(PID.TID 0000.0001) %MON extforcing_fv_del2           =   0.0000000000000E+00
(PID.TID 0000.0001) %MON advcfl_uvel_max              =   2.7375084320797E-05
(PID.TID 0000.0001) %MON advcfl_vvel_max              =   1.8962162151893E-04
(PID.TID 0000.0001) %MON advcfl_wvel_max              =   9.5022416006732E-06
(PID.TID 0000.0001) %MON advcfl_W_hf_max              =   2.2826918357203E-05
(PID.TID 0000.0001) %MON pe_b_mean                    =   3.1580088385833E-10
(PID.TID 0000.0001) %MON ke_max                       =   5.1855697947891E-05
(PID.TID 0000.0001) %MON ke_mean                      =   1.1264569601453E-06
(PID.TID 0000.0001) %MON ke_vol                       =   4.4009158039362E+15
(PID.TID 0000.0001) %MON vort_r_min                   =  -2.8980808384378E-09
(PID.TID 0000.0001) %MON vort_r_max                   =   5.6993449355176E-09
(PID.TID 0000.0001) %MON vort_a_mean                  =  -1.1390240000000E-04
(PID.TID 0000.0001) %MON vort_a_sd                    =   3.7032303072879E-06
(PID.TID 0000.0001) %MON vort_p_mean                  =  -1.5528913309106E-04
(PID.TID 0000.0001) %MON vort_p_sd                    =   4.1188145758753E-05
(PID.TID 0000.0001) %MON surfExpan_theta_mean         =  -5.9986238430962E-08
(PID.TID 0000.0001) %MON surfExpan_salt_mean          =  -5.2487958627092E-07
(PID.TID 0000.0001) // =======================================================
(PID.TID 0000.0001) // End MONITOR dynamic field statistics
(PID.TID 0000.0001) // =======================================================
 cg2d: Sum(rhs),rhsMax =  -2.18161317311311E+00  3.16115505489440E-03
(PID.TID 0000.0001)                    cg2d_init_res =    1.17832477508618E-01
(PID.TID 0000.0001)                       cg2d_iters =    14
(PID.TID 0000.0001)                         cg2d_res =    5.84059902627407E-14
(PID.TID 0000.0001) // =======================================================
(PID.TID 0000.0001) // Begin MONITOR dynamic field statistics
(PID.TID 0000.0001) // =======================================================
(PID.TID 0000.0001) %MON time_tsnumber                =                    80
(PID.TID 0000.0001) %MON time_secondsf                =   2.8800000000000E+05
(PID.TID 0000.0001) %MON dynstat_eta_max              =   5.8517091449048E-04
(PID.TID 0000.0001) %MON dynstat_eta_min              =   3.1092039914500E-04
(PID.TID 0000.0001) %MON dynstat_eta_mean             =   4.4688785464870E-04
(PID.TID 0000.0001) %MON dynstat_eta_sd               =   8.7004724419978E-05
(PID.TID 0000.0001) %MON dynstat_eta_del2             =   3.3347054724858E-05
(PID.TID 0000.0001) %MON dynstat_uvel_max             =   1.1159654094453E-04
(PID.TID 0000.0001) %MON dynstat_uvel_min             =  -1.7481545249850E-03
(PID.TID 0000.0001) %MON dynstat_uvel_mean            =  -1.0343313966391E-04
(PID.TID 0000.0001) %MON dynstat_uvel_sd              =   2.8276980482809E-04
(PID.TID 0000.0001) %MON dynstat_uvel_del2            =   7.1898661339138E-05
(PID.TID 0000.0001) %MON dynstat_vvel_max             =   1.0044332217861E-02
(PID.TID 0000.0001) %MON dynstat_vvel_min             =  -5.3323963706992E-05
(PID.TID 0000.0001) %MON dynstat_vvel_mean            =   2.3107518301146E-04
(PID.TID 0000.0001) %MON dynstat_vvel_sd              =   1.3640723067967E-03
(PID.TID 0000.0001) %MON dynstat_vvel_del2            =   1.0930004725213E-04
(PID.TID 0000.0001) %MON dynstat_wvel_max             =   7.6420616558652E-07
(PID.TID 0000.0001) %MON dynstat_wvel_min             =  -5.2054664357399E-07
(PID.TID 0000.0001) %MON dynstat_wvel_mean            =  -6.5502453442491E-10
(PID.TID 0000.0001) %MON dynstat_wvel_sd              =   4.4525064332087E-07
(PID.TID 0000.0001) %MON dynstat_wvel_del2            =   2.7672841509689E-07
(PID.TID 0000.0001) %MON dynstat_theta_max            =   4.0000000000000E+00
(PID.TID 0000.0001) %MON dynstat_theta_min            =   4.0000000000000E+00
(PID.TID 0000.0001) %MON dynstat_theta_mean           =   4.0000000000000E+00
(PID.TID 0000.0001) %MON dynstat_theta_sd             =   0.0000000000000E+00
(PID.TID 0000.0001) %MON dynstat_theta_del2           =   0.0000000000000E+00
(PID.TID 0000.0001) %MON dynstat_salt_max             =   3.5000000000000E+01
(PID.TID 0000.0001) %MON dynstat_salt_min             =   3.5000000000000E+01
(PID.TID 0000.0001) %MON dynstat_salt_mean            =   3.5000000000000E+01
(PID.TID 0000.0001) %MON dynstat_salt_sd              =   0.0000000000000E+00
(PID.TID 0000.0001) %MON dynstat_salt_del2            =   0.0000000000000E+00
(PID.TID 0000.0001) %MON dynstat_sst_max              =   4.0000000000000E+00
(PID.TID 0000.0001) %MON dynstat_sst_min              =   4.0000000000000E+00
(PID.TID 0000.0001) %MON dynstat_sst_mean             =   4.0000000000000E+00
(PID.TID 0000.0001) %MON dynstat_sst_sd               =   0.0000000000000E+00
(PID.TID 0000.0001) %MON dynstat_sst_del2             =   0.0000000000000E+00
(PID.TID 0000.0001) %MON dynstat_sss_max              =   3.5000000000000E+01
(PID.TID 0000.0001) %MON dynstat_sss_min              =   3.5000000000000E+01
(PID.TID 0000.0001) %MON dynstat_sss_mean             =   3.5000000000000E+01
(PID.TID 0000.0001) %MON dynstat_sss_sd               =   0.0000000000000E+00
(PID.TID 0000.0001) %MON dynstat_sss_del2             =   0.0000000000000E+00
(PID.TID 0000.0001) %MON extforcing_qnet_max          =   0.0000000000000E+00
(PID.TID 0000.0001) %MON extforcing_qnet_min          =   0.0000000000000E+00
(PID.TID 0000.0001) %MON extforcing_qnet_mean         =   0.0000000000000E+00
(PID.TID 0000.0001) %MON extforcing_qnet_sd           =   0.0000000000000E+00
(PID.TID 0000.0001) %MON extforcing_qnet_del2         =   0.0000000000000E+00
(PID.TID 0000.0001) %MON extforcing_qsw_max           =   0.0000000000000E+00
(PID.TID 0000.0001) %MON extforcing_qsw_min           =   0.0000000000000E+00
(PID.TID 0000.0001) %MON extforcing_qsw_mean          =   0.0000000000000E+00
(PID.TID 0000.0001) %MON extforcing_qsw_sd            =   0.0000000000000E+00
(PID.TID 0000.0001) %MON extforcing_qsw_del2          =   0.0000000000000E+00
(PID.TID 0000.0001) %MON extforcing_empmr_max         =   0.0000000000000E+00
(PID.TID 0000.0001) %MON extforcing_empmr_min         =   0.0000000000000E+00
(PID.TID 0000.0001) %MON extforcing_empmr_mean        =   0.0000000000000E+00
(PID.TID 0000.0001) %MON extforcing_empmr_sd          =   0.0000000000000E+00
(PID.TID 0000.0001) %MON extforcing_empmr_del2        =   0.0000000000000E+00
(PID.TID 0000.0001) %MON extforcing_fu_max            =   1.0000000000000E-01
(PID.TID 0000.0001) %MON extforcing_fu_min            =   1.0000000000000E-01
(PID.TID 0000.0001) %MON extforcing_fu_mean           =   1.0000000000000E-01
(PID.TID 0000.0001) %MON extforcing_fu_sd             =   0.0000000000000E+00
(PID.TID 0000.0001) %MON extforcing_fu_del2           =   0.0000000000000E+00
(PID.TID 0000.0001) %MON extforcing_fv_max            =   0.0000000000000E+00
(PID.TID 0000.0001) %MON extforcing_fv_min            =   0.0000000000000E+00
(PID.TID 0000.0001) %MON extforcing_fv_mean           =   0.0000000000000E+00
(PID.TID 0000.0001) %MON extforcing_fv_sd             =   0.0000000000000E+00
(PID.TID 0000.0001) %MON extforcing_fv_del2           =   0.0000000000000E+00
(PID.TID 0000.0001) %MON advcfl_uvel_max              =   3.1466781449730E-05
(PID.TID 0000.0001) %MON advcfl_vvel_max              =   1.8079797992151E-04
(PID.TID 0000.0001) %MON advcfl_wvel_max              =   9.7960015252162E-06
(PID.TID 0000.0001) %MON advcfl_W_hf_max              =   2.4162168133076E-05
(PID.TID 0000.0001) %MON pe_b_mean                    =   2.3102042030055E-10
(PID.TID 0000.0001) %MON ke_max                       =   4.6350472743091E-05
(PID.TID 0000.0001) %MON ke_mean                      =   1.0023730876383E-06
(PID.TID 0000.0001) %MON ke_vol                       =   4.4009158039362E+15
(PID.TID 0000.0001) %MON vort_r_min                   =  -2.8795534919233E-09
(PID.TID 0000.0001) %MON vort_r_max                   =   5.6846055259148E-09
(PID.TID 0000.0001) %MON vort_a_mean                  =  -1.1390240000000E-04
(PID.TID 0000.0001) %MON vort_a_sd                    =   3.7032274013537E-06
(PID.TID 0000.0001) %MON vort_p_mean                  =  -1.5528913309106E-04
(PID.TID 0000.0001) %MON vort_p_sd                    =   4.1188144365148E-05
(PID.TID 0000.0001) %MON surfExpan_theta_mean         =  -8.7494680550407E-08
(PID.TID 0000.0001) %MON surfExpan_salt_mean          =  -7.6557845481606E-07
(PID.TID 0000.0001) // =======================================================
(PID.TID 0000.0001) // End MONITOR dynamic field statistics
(PID.TID 0000.0001) // =======================================================
 cg2d: Sum(rhs),rhsMax =  -1.75526123517825E+00  3.15966313972236E-03
(PID.TID 0000.0001)                    cg2d_init_res =    1.02299412175033E-01
(PID.TID 0000.0001)                       cg2d_iters =    14
(PID.TID 0000.0001)                         cg2d_res =    4.90031498613338E-14
(PID.TID 0000.0001) // =======================================================
(PID.TID 0000.0001) // Begin MONITOR dynamic field statistics
(PID.TID 0000.0001) // =======================================================
(PID.TID 0000.0001) %MON time_tsnumber                =                    81
(PID.TID 0000.0001) %MON time_secondsf                =   2.9160000000000E+05
(PID.TID 0000.0001) %MON dynstat_eta_max              =   5.0046555335710E-04
(PID.TID 0000.0001) %MON dynstat_eta_min              =   2.2149962296614E-04
(PID.TID 0000.0001) %MON dynstat_eta_mean             =   3.5938301780438E-04
(PID.TID 0000.0001) %MON dynstat_eta_sd               =   8.8455814746891E-05
(PID.TID 0000.0001) %MON dynstat_eta_del2             =   3.3948281312672E-05
(PID.TID 0000.0001) %MON dynstat_uvel_max             =   1.0890993299241E-04
(PID.TID 0000.0001) %MON dynstat_uvel_min             =  -1.6403014410265E-03
(PID.TID 0000.0001) %MON dynstat_uvel_mean            =  -1.0469303230011E-04
(PID.TID 0000.0001) %MON dynstat_uvel_sd              =   2.7197292369972E-04
(PID.TID 0000.0001) %MON dynstat_uvel_del2            =   7.0312643881781E-05
(PID.TID 0000.0001) %MON dynstat_vvel_max             =   9.5108463232681E-03
(PID.TID 0000.0001) %MON dynstat_vvel_min             =  -3.2328603040749E-04
(PID.TID 0000.0001) %MON dynstat_vvel_mean            =   1.8282431085279E-04
(PID.TID 0000.0001) %MON dynstat_vvel_sd              =   1.2759893216678E-03
(PID.TID 0000.0001) %MON dynstat_vvel_del2            =   1.1303955507299E-04
(PID.TID 0000.0001) %MON dynstat_wvel_max             =   8.6441390932087E-07
(PID.TID 0000.0001) %MON dynstat_wvel_min             =  -6.8480593866181E-07
(PID.TID 0000.0001) %MON dynstat_wvel_mean            =  -1.7345580597110E-09
(PID.TID 0000.0001) %MON dynstat_wvel_sd              =   5.2642335280543E-07
(PID.TID 0000.0001) %MON dynstat_wvel_del2            =   2.9318749471719E-07
(PID.TID 0000.0001) %MON dynstat_theta_max            =   4.0000000000000E+00
(PID.TID 0000.0001) %MON dynstat_theta_min            =   4.0000000000000E+00
(PID.TID 0000.0001) %MON dynstat_theta_mean           =   4.0000000000000E+00
(PID.TID 0000.0001) %MON dynstat_theta_sd             =   0.0000000000000E+00
(PID.TID 0000.0001) %MON dynstat_theta_del2           =   0.0000000000000E+00
(PID.TID 0000.0001) %MON dynstat_salt_max             =   3.5000000000000E+01
(PID.TID 0000.0001) %MON dynstat_salt_min             =   3.5000000000000E+01
(PID.TID 0000.0001) %MON dynstat_salt_mean            =   3.5000000000000E+01
(PID.TID 0000.0001) %MON dynstat_salt_sd              =   0.0000000000000E+00
(PID.TID 0000.0001) %MON dynstat_salt_del2            =   0.0000000000000E+00
(PID.TID 0000.0001) %MON dynstat_sst_max              =   4.0000000000000E+00
(PID.TID 0000.0001) %MON dynstat_sst_min              =   4.0000000000000E+00
(PID.TID 0000.0001) %MON dynstat_sst_mean             =   4.0000000000000E+00
(PID.TID 0000.0001) %MON dynstat_sst_sd               =   0.0000000000000E+00
(PID.TID 0000.0001) %MON dynstat_sst_del2             =   0.0000000000000E+00
(PID.TID 0000.0001) %MON dynstat_sss_max              =   3.5000000000000E+01
(PID.TID 0000.0001) %MON dynstat_sss_min              =   3.5000000000000E+01
(PID.TID 0000.0001) %MON dynstat_sss_mean             =   3.5000000000000E+01
(PID.TID 0000.0001) %MON dynstat_sss_sd               =   0.0000000000000E+00
(PID.TID 0000.0001) %MON dynstat_sss_del2             =   0.0000000000000E+00
(PID.TID 0000.0001) %MON extforcing_qnet_max          =   0.0000000000000E+00
(PID.TID 0000.0001) %MON extforcing_qnet_min          =   0.0000000000000E+00
(PID.TID 0000.0001) %MON extforcing_qnet_mean         =   0.0000000000000E+00
(PID.TID 0000.0001) %MON extforcing_qnet_sd           =   0.0000000000000E+00
(PID.TID 0000.0001) %MON extforcing_qnet_del2         =   0.0000000000000E+00
(PID.TID 0000.0001) %MON extforcing_qsw_max           =   0.0000000000000E+00
(PID.TID 0000.0001) %MON extforcing_qsw_min           =   0.0000000000000E+00
(PID.TID 0000.0001) %MON extforcing_qsw_mean          =   0.0000000000000E+00
(PID.TID 0000.0001) %MON extforcing_qsw_sd            =   0.0000000000000E+00
(PID.TID 0000.0001) %MON extforcing_qsw_del2          =   0.0000000000000E+00
(PID.TID 0000.0001) %MON extforcing_empmr_max         =   0.0000000000000E+00
(PID.TID 0000.0001) %MON extforcing_empmr_min         =   0.0000000000000E+00
(PID.TID 0000.0001) %MON extforcing_empmr_mean        =   0.0000000000000E+00
(PID.TID 0000.0001) %MON extforcing_empmr_sd          =   0.0000000000000E+00
(PID.TID 0000.0001) %MON extforcing_empmr_del2        =   0.0000000000000E+00
(PID.TID 0000.0001) %MON extforcing_fu_max            =   1.0000000000000E-01
(PID.TID 0000.0001) %MON extforcing_fu_min            =   1.0000000000000E-01
(PID.TID 0000.0001) %MON extforcing_fu_mean           =   1.0000000000000E-01
(PID.TID 0000.0001) %MON extforcing_fu_sd             =   0.0000000000000E+00
(PID.TID 0000.0001) %MON extforcing_fu_del2           =   0.0000000000000E+00
(PID.TID 0000.0001) %MON extforcing_fv_max            =   0.0000000000000E+00
(PID.TID 0000.0001) %MON extforcing_fv_min            =   0.0000000000000E+00
(PID.TID 0000.0001) %MON extforcing_fv_mean           =   0.0000000000000E+00
(PID.TID 0000.0001) %MON extforcing_fv_sd             =   0.0000000000000E+00
(PID.TID 0000.0001) %MON extforcing_fv_del2           =   0.0000000000000E+00
(PID.TID 0000.0001) %MON advcfl_uvel_max              =   2.9525425938476E-05
(PID.TID 0000.0001) %MON advcfl_vvel_max              =   1.7119523381883E-04
(PID.TID 0000.0001) %MON advcfl_wvel_max              =   1.0186274179153E-05
(PID.TID 0000.0001) %MON advcfl_W_hf_max              =   2.5465685447882E-05
(PID.TID 0000.0001) %MON pe_b_mean                    =   1.5267044352474E-10
(PID.TID 0000.0001) %MON ke_max                       =   4.0733601935749E-05
(PID.TID 0000.0001) %MON ke_mean                      =   8.7325168994347E-07
(PID.TID 0000.0001) %MON ke_vol                       =   4.4009158039362E+15
(PID.TID 0000.0001) %MON vort_r_min                   =  -2.8152908523637E-09
(PID.TID 0000.0001) %MON vort_r_max                   =   5.2773901962232E-09
(PID.TID 0000.0001) %MON vort_a_mean                  =  -1.1390240000000E-04
(PID.TID 0000.0001) %MON vort_a_sd                    =   3.7032257208654E-06
(PID.TID 0000.0001) %MON vort_p_mean                  =  -1.5528913309106E-04
(PID.TID 0000.0001) %MON vort_p_sd                    =   4.1188142811668E-05
(PID.TID 0000.0001) %MON surfExpan_theta_mean         =  -9.7227596493682E-08
(PID.TID 0000.0001) %MON surfExpan_salt_mean          =  -8.5074146931972E-07
(PID.TID 0000.0001) // =======================================================
(PID.TID 0000.0001) // End MONITOR dynamic field statistics
(PID.TID 0000.0001) // =======================================================
 cg2d: Sum(rhs),rhsMax =  -1.39603742971191E+00  3.10114912749769E-03
(PID.TID 0000.0001)                    cg2d_init_res =    8.80486440483315E-02
(PID.TID 0000.0001)                       cg2d_iters =    14
(PID.TID 0000.0001)                         cg2d_res =    7.13729106946862E-14
(PID.TID 0000.0001) // =======================================================
(PID.TID 0000.0001) // Begin MONITOR dynamic field statistics
(PID.TID 0000.0001) // =======================================================
(PID.TID 0000.0001) %MON time_tsnumber                =                    82
(PID.TID 0000.0001) %MON time_secondsf                =   2.9520000000000E+05
(PID.TID 0000.0001) %MON dynstat_eta_max              =   4.2122990814656E-04
(PID.TID 0000.0001) %MON dynstat_eta_min              =   1.4296078312509E-04
(PID.TID 0000.0001) %MON dynstat_eta_mean             =   2.8053995266042E-04
(PID.TID 0000.0001) %MON dynstat_eta_sd               =   8.8062489770404E-05
(PID.TID 0000.0001) %MON dynstat_eta_del2             =   3.4015748003114E-05
(PID.TID 0000.0001) %MON dynstat_uvel_max             =   1.0786863695929E-04
(PID.TID 0000.0001) %MON dynstat_uvel_min             =  -1.2285880406146E-03
(PID.TID 0000.0001) %MON dynstat_uvel_mean            =  -8.5194535021152E-05
(PID.TID 0000.0001) %MON dynstat_uvel_sd              =   2.1152129638507E-04
(PID.TID 0000.0001) %MON dynstat_uvel_del2            =   6.7807807326337E-05
(PID.TID 0000.0001) %MON dynstat_vvel_max             =   9.0407524742373E-03
(PID.TID 0000.0001) %MON dynstat_vvel_min             =  -6.3022961721234E-04
(PID.TID 0000.0001) %MON dynstat_vvel_mean            =   1.3920334771331E-04
(PID.TID 0000.0001) %MON dynstat_vvel_sd              =   1.2071292912312E-03
(PID.TID 0000.0001) %MON dynstat_vvel_del2            =   1.1685791812418E-04
(PID.TID 0000.0001) %MON dynstat_wvel_max             =   9.3123549414705E-07
(PID.TID 0000.0001) %MON dynstat_wvel_min             =  -8.5256529922528E-07
(PID.TID 0000.0001) %MON dynstat_wvel_mean            =  -2.4987749245339E-09
(PID.TID 0000.0001) %MON dynstat_wvel_sd              =   5.9650895552923E-07
(PID.TID 0000.0001) %MON dynstat_wvel_del2            =   3.0640811497627E-07
(PID.TID 0000.0001) %MON dynstat_theta_max            =   4.0000000000000E+00
(PID.TID 0000.0001) %MON dynstat_theta_min            =   4.0000000000000E+00
(PID.TID 0000.0001) %MON dynstat_theta_mean           =   4.0000000000000E+00
(PID.TID 0000.0001) %MON dynstat_theta_sd             =   0.0000000000000E+00
(PID.TID 0000.0001) %MON dynstat_theta_del2           =   0.0000000000000E+00
(PID.TID 0000.0001) %MON dynstat_salt_max             =   3.5000000000000E+01
(PID.TID 0000.0001) %MON dynstat_salt_min             =   3.5000000000000E+01
(PID.TID 0000.0001) %MON dynstat_salt_mean            =   3.5000000000000E+01
(PID.TID 0000.0001) %MON dynstat_salt_sd              =   0.0000000000000E+00
(PID.TID 0000.0001) %MON dynstat_salt_del2            =   0.0000000000000E+00
(PID.TID 0000.0001) %MON dynstat_sst_max              =   4.0000000000000E+00
(PID.TID 0000.0001) %MON dynstat_sst_min              =   4.0000000000000E+00
(PID.TID 0000.0001) %MON dynstat_sst_mean             =   4.0000000000000E+00
(PID.TID 0000.0001) %MON dynstat_sst_sd               =   0.0000000000000E+00
(PID.TID 0000.0001) %MON dynstat_sst_del2             =   0.0000000000000E+00
(PID.TID 0000.0001) %MON dynstat_sss_max              =   3.5000000000000E+01
(PID.TID 0000.0001) %MON dynstat_sss_min              =   3.5000000000000E+01
(PID.TID 0000.0001) %MON dynstat_sss_mean             =   3.5000000000000E+01
(PID.TID 0000.0001) %MON dynstat_sss_sd               =   0.0000000000000E+00
(PID.TID 0000.0001) %MON dynstat_sss_del2             =   0.0000000000000E+00
(PID.TID 0000.0001) %MON extforcing_qnet_max          =   0.0000000000000E+00
(PID.TID 0000.0001) %MON extforcing_qnet_min          =   0.0000000000000E+00
(PID.TID 0000.0001) %MON extforcing_qnet_mean         =   0.0000000000000E+00
(PID.TID 0000.0001) %MON extforcing_qnet_sd           =   0.0000000000000E+00
(PID.TID 0000.0001) %MON extforcing_qnet_del2         =   0.0000000000000E+00
(PID.TID 0000.0001) %MON extforcing_qsw_max           =   0.0000000000000E+00
(PID.TID 0000.0001) %MON extforcing_qsw_min           =   0.0000000000000E+00
(PID.TID 0000.0001) %MON extforcing_qsw_mean          =   0.0000000000000E+00
(PID.TID 0000.0001) %MON extforcing_qsw_sd            =   0.0000000000000E+00
(PID.TID 0000.0001) %MON extforcing_qsw_del2          =   0.0000000000000E+00
(PID.TID 0000.0001) %MON extforcing_empmr_max         =   0.0000000000000E+00
(PID.TID 0000.0001) %MON extforcing_empmr_min         =   0.0000000000000E+00
(PID.TID 0000.0001) %MON extforcing_empmr_mean        =   0.0000000000000E+00
(PID.TID 0000.0001) %MON extforcing_empmr_sd          =   0.0000000000000E+00
(PID.TID 0000.0001) %MON extforcing_empmr_del2        =   0.0000000000000E+00
(PID.TID 0000.0001) %MON extforcing_fu_max            =   1.0000000000000E-01
(PID.TID 0000.0001) %MON extforcing_fu_min            =   1.0000000000000E-01
(PID.TID 0000.0001) %MON extforcing_fu_mean           =   1.0000000000000E-01
(PID.TID 0000.0001) %MON extforcing_fu_sd             =   0.0000000000000E+00
(PID.TID 0000.0001) %MON extforcing_fu_del2           =   0.0000000000000E+00
(PID.TID 0000.0001) %MON extforcing_fv_max            =   0.0000000000000E+00
(PID.TID 0000.0001) %MON extforcing_fv_min            =   0.0000000000000E+00
(PID.TID 0000.0001) %MON extforcing_fv_mean           =   0.0000000000000E+00
(PID.TID 0000.0001) %MON extforcing_fv_sd             =   0.0000000000000E+00
(PID.TID 0000.0001) %MON extforcing_fv_del2           =   0.0000000000000E+00
(PID.TID 0000.0001) %MON advcfl_uvel_max              =   2.2114584731063E-05
(PID.TID 0000.0001) %MON advcfl_vvel_max              =   1.6273354453627E-04
(PID.TID 0000.0001) %MON advcfl_wvel_max              =   1.0590458617124E-05
(PID.TID 0000.0001) %MON advcfl_W_hf_max              =   2.6476146542810E-05
(PID.TID 0000.0001) %MON pe_b_mean                    =   9.6360593165280E-11
(PID.TID 0000.0001) %MON ke_max                       =   3.6148357332933E-05
(PID.TID 0000.0001) %MON ke_mean                      =   7.6426903269238E-07
(PID.TID 0000.0001) %MON ke_vol                       =   4.4009158039362E+15
(PID.TID 0000.0001) %MON vort_r_min                   =  -2.7167478470219E-09
(PID.TID 0000.0001) %MON vort_r_max                   =   4.5543401428652E-09
(PID.TID 0000.0001) %MON vort_a_mean                  =  -1.1390240000000E-04
(PID.TID 0000.0001) %MON vort_a_sd                    =   3.7032254959296E-06
(PID.TID 0000.0001) %MON vort_p_mean                  =  -1.5528913309106E-04
(PID.TID 0000.0001) %MON vort_p_sd                    =   4.1188141194273E-05
(PID.TID 0000.0001) %MON surfExpan_theta_mean         =  -8.7603405715517E-08
(PID.TID 0000.0001) %MON surfExpan_salt_mean          =  -7.6652980001077E-07
(PID.TID 0000.0001) // =======================================================
(PID.TID 0000.0001) // End MONITOR dynamic field statistics
(PID.TID 0000.0001) // =======================================================
 cg2d: Sum(rhs),rhsMax =  -1.16177139472067E+00  2.99876546018409E-03
(PID.TID 0000.0001)                    cg2d_init_res =    8.80754970523984E-02
(PID.TID 0000.0001)                       cg2d_iters =    14
(PID.TID 0000.0001)                         cg2d_res =    6.52913031712228E-14
(PID.TID 0000.0001) // =======================================================
(PID.TID 0000.0001) // Begin MONITOR dynamic field statistics
(PID.TID 0000.0001) // =======================================================
(PID.TID 0000.0001) %MON time_tsnumber                =                    83
(PID.TID 0000.0001) %MON time_secondsf                =   2.9880000000000E+05
(PID.TID 0000.0001) %MON dynstat_eta_max              =   3.6300747543130E-04
(PID.TID 0000.0001) %MON dynstat_eta_min              =   9.0519514903861E-05
(PID.TID 0000.0001) %MON dynstat_eta_mean             =   2.2575541953646E-04
(PID.TID 0000.0001) %MON dynstat_eta_sd               =   8.5978972849443E-05
(PID.TID 0000.0001) %MON dynstat_eta_del2             =   3.3541025976415E-05
(PID.TID 0000.0001) %MON dynstat_uvel_max             =   1.5902530438314E-04
(PID.TID 0000.0001) %MON dynstat_uvel_min             =  -6.0278980368986E-04
(PID.TID 0000.0001) %MON dynstat_uvel_mean            =  -4.9145087999389E-05
(PID.TID 0000.0001) %MON dynstat_uvel_sd              =   1.2392585597439E-04
(PID.TID 0000.0001) %MON dynstat_uvel_del2            =   6.5027306849981E-05
(PID.TID 0000.0001) %MON dynstat_vvel_max             =   8.7235652554545E-03
(PID.TID 0000.0001) %MON dynstat_vvel_min             =  -8.2150101966063E-04
(PID.TID 0000.0001) %MON dynstat_vvel_mean            =   1.0869543584129E-04
(PID.TID 0000.0001) %MON dynstat_vvel_sd              =   1.1669111761896E-03
(PID.TID 0000.0001) %MON dynstat_vvel_del2            =   1.1837900382585E-04
(PID.TID 0000.0001) %MON dynstat_wvel_max             =   9.5033154793051E-07
(PID.TID 0000.0001) %MON dynstat_wvel_min             =  -9.4670167658344E-07
(PID.TID 0000.0001) %MON dynstat_wvel_mean            =  -2.8013841402381E-09
(PID.TID 0000.0001) %MON dynstat_wvel_sd              =   6.3125483674067E-07
(PID.TID 0000.0001) %MON dynstat_wvel_del2            =   3.1363619741142E-07
(PID.TID 0000.0001) %MON dynstat_theta_max            =   4.0000000000000E+00
(PID.TID 0000.0001) %MON dynstat_theta_min            =   4.0000000000000E+00
(PID.TID 0000.0001) %MON dynstat_theta_mean           =   4.0000000000000E+00
(PID.TID 0000.0001) %MON dynstat_theta_sd             =   0.0000000000000E+00
(PID.TID 0000.0001) %MON dynstat_theta_del2           =   0.0000000000000E+00
(PID.TID 0000.0001) %MON dynstat_salt_max             =   3.5000000000000E+01
(PID.TID 0000.0001) %MON dynstat_salt_min             =   3.5000000000000E+01
(PID.TID 0000.0001) %MON dynstat_salt_mean            =   3.5000000000000E+01
(PID.TID 0000.0001) %MON dynstat_salt_sd              =   0.0000000000000E+00
(PID.TID 0000.0001) %MON dynstat_salt_del2            =   0.0000000000000E+00
(PID.TID 0000.0001) %MON dynstat_sst_max              =   4.0000000000000E+00
(PID.TID 0000.0001) %MON dynstat_sst_min              =   4.0000000000000E+00
(PID.TID 0000.0001) %MON dynstat_sst_mean             =   4.0000000000000E+00
(PID.TID 0000.0001) %MON dynstat_sst_sd               =   0.0000000000000E+00
(PID.TID 0000.0001) %MON dynstat_sst_del2             =   0.0000000000000E+00
(PID.TID 0000.0001) %MON dynstat_sss_max              =   3.5000000000000E+01
(PID.TID 0000.0001) %MON dynstat_sss_min              =   3.5000000000000E+01
(PID.TID 0000.0001) %MON dynstat_sss_mean             =   3.5000000000000E+01
(PID.TID 0000.0001) %MON dynstat_sss_sd               =   0.0000000000000E+00
(PID.TID 0000.0001) %MON dynstat_sss_del2             =   0.0000000000000E+00
(PID.TID 0000.0001) %MON extforcing_qnet_max          =   0.0000000000000E+00
(PID.TID 0000.0001) %MON extforcing_qnet_min          =   0.0000000000000E+00
(PID.TID 0000.0001) %MON extforcing_qnet_mean         =   0.0000000000000E+00
(PID.TID 0000.0001) %MON extforcing_qnet_sd           =   0.0000000000000E+00
(PID.TID 0000.0001) %MON extforcing_qnet_del2         =   0.0000000000000E+00
(PID.TID 0000.0001) %MON extforcing_qsw_max           =   0.0000000000000E+00
(PID.TID 0000.0001) %MON extforcing_qsw_min           =   0.0000000000000E+00
(PID.TID 0000.0001) %MON extforcing_qsw_mean          =   0.0000000000000E+00
(PID.TID 0000.0001) %MON extforcing_qsw_sd            =   0.0000000000000E+00
(PID.TID 0000.0001) %MON extforcing_qsw_del2          =   0.0000000000000E+00
(PID.TID 0000.0001) %MON extforcing_empmr_max         =   0.0000000000000E+00
(PID.TID 0000.0001) %MON extforcing_empmr_min         =   0.0000000000000E+00
(PID.TID 0000.0001) %MON extforcing_empmr_mean        =   0.0000000000000E+00
(PID.TID 0000.0001) %MON extforcing_empmr_sd          =   0.0000000000000E+00
(PID.TID 0000.0001) %MON extforcing_empmr_del2        =   0.0000000000000E+00
(PID.TID 0000.0001) %MON extforcing_fu_max            =   1.0000000000000E-01
(PID.TID 0000.0001) %MON extforcing_fu_min            =   1.0000000000000E-01
(PID.TID 0000.0001) %MON extforcing_fu_mean           =   1.0000000000000E-01
(PID.TID 0000.0001) %MON extforcing_fu_sd             =   0.0000000000000E+00
(PID.TID 0000.0001) %MON extforcing_fu_del2           =   0.0000000000000E+00
(PID.TID 0000.0001) %MON extforcing_fv_max            =   0.0000000000000E+00
(PID.TID 0000.0001) %MON extforcing_fv_min            =   0.0000000000000E+00
(PID.TID 0000.0001) %MON extforcing_fv_mean           =   0.0000000000000E+00
(PID.TID 0000.0001) %MON extforcing_fv_sd             =   0.0000000000000E+00
(PID.TID 0000.0001) %MON extforcing_fv_del2           =   0.0000000000000E+00
(PID.TID 0000.0001) %MON advcfl_uvel_max              =   1.0850216466417E-05
(PID.TID 0000.0001) %MON advcfl_vvel_max              =   1.5702417459818E-04
(PID.TID 0000.0001) %MON advcfl_wvel_max              =   1.0945631136226E-05
(PID.TID 0000.0001) %MON advcfl_W_hf_max              =   2.6986784384378E-05
(PID.TID 0000.0001) %MON pe_b_mean                    =   6.5042250069749E-11
(PID.TID 0000.0001) %MON ke_max                       =   3.3278425193698E-05
(PID.TID 0000.0001) %MON ke_mean                      =   6.9563462417124E-07
(PID.TID 0000.0001) %MON ke_vol                       =   4.4009158039362E+15
(PID.TID 0000.0001) %MON vort_r_min                   =  -2.6039636545045E-09
(PID.TID 0000.0001) %MON vort_r_max                   =   3.6511285332899E-09
(PID.TID 0000.0001) %MON vort_a_mean                  =  -1.1390240000000E-04
(PID.TID 0000.0001) %MON vort_a_sd                    =   3.7032266457858E-06
(PID.TID 0000.0001) %MON vort_p_mean                  =  -1.5528913309106E-04
(PID.TID 0000.0001) %MON vort_p_sd                    =   4.1188139612417E-05
(PID.TID 0000.0001) %MON surfExpan_theta_mean         =  -6.0871703471060E-08
(PID.TID 0000.0001) %MON surfExpan_salt_mean          =  -5.3262740537177E-07
(PID.TID 0000.0001) // =======================================================
(PID.TID 0000.0001) // End MONITOR dynamic field statistics
(PID.TID 0000.0001) // =======================================================
 cg2d: Sum(rhs),rhsMax =  -1.10293746482209E+00  2.87411083831751E-03
(PID.TID 0000.0001)                    cg2d_init_res =    1.05337918151208E-01
(PID.TID 0000.0001)                       cg2d_iters =    14
(PID.TID 0000.0001)                         cg2d_res =    4.09162570466642E-14
(PID.TID 0000.0001) // =======================================================
(PID.TID 0000.0001) // Begin MONITOR dynamic field statistics
(PID.TID 0000.0001) // =======================================================
(PID.TID 0000.0001) %MON time_tsnumber                =                    84
(PID.TID 0000.0001) %MON time_secondsf                =   3.0240000000000E+05
(PID.TID 0000.0001) %MON dynstat_eta_max              =   3.3692566886069E-04
(PID.TID 0000.0001) %MON dynstat_eta_min              =   7.3980548589516E-05
(PID.TID 0000.0001) %MON dynstat_eta_mean             =   2.0541370100173E-04
(PID.TID 0000.0001) %MON dynstat_eta_sd               =   8.2740068428321E-05
(PID.TID 0000.0001) %MON dynstat_eta_del2             =   3.2621149496961E-05
(PID.TID 0000.0001) %MON dynstat_uvel_max             =   6.8665943414567E-04
(PID.TID 0000.0001) %MON dynstat_uvel_min             =  -1.4052038712851E-04
(PID.TID 0000.0001) %MON dynstat_uvel_mean            =  -3.9275665296775E-06
(PID.TID 0000.0001) %MON dynstat_uvel_sd              =   9.2430013947490E-05
(PID.TID 0000.0001) %MON dynstat_uvel_del2            =   6.3014639789562E-05
(PID.TID 0000.0001) %MON dynstat_vvel_max             =   8.6148358150846E-03
(PID.TID 0000.0001) %MON dynstat_vvel_min             =  -8.6022287513478E-04
(PID.TID 0000.0001) %MON dynstat_vvel_mean            =   9.7053487927683E-05
(PID.TID 0000.0001) %MON dynstat_vvel_sd              =   1.1575210370247E-03
(PID.TID 0000.0001) %MON dynstat_vvel_del2            =   1.1694854694014E-04
(PID.TID 0000.0001) %MON dynstat_wvel_max             =   9.1643140674302E-07
(PID.TID 0000.0001) %MON dynstat_wvel_min             =  -9.4775690096948E-07
(PID.TID 0000.0001) %MON dynstat_wvel_mean            =  -2.5843872404121E-09
(PID.TID 0000.0001) %MON dynstat_wvel_sd              =   6.1943122380693E-07
(PID.TID 0000.0001) %MON dynstat_wvel_del2            =   3.1327857278347E-07
(PID.TID 0000.0001) %MON dynstat_theta_max            =   4.0000000000000E+00
(PID.TID 0000.0001) %MON dynstat_theta_min            =   4.0000000000000E+00
(PID.TID 0000.0001) %MON dynstat_theta_mean           =   4.0000000000000E+00
(PID.TID 0000.0001) %MON dynstat_theta_sd             =   0.0000000000000E+00
(PID.TID 0000.0001) %MON dynstat_theta_del2           =   0.0000000000000E+00
(PID.TID 0000.0001) %MON dynstat_salt_max             =   3.5000000000000E+01
(PID.TID 0000.0001) %MON dynstat_salt_min             =   3.5000000000000E+01
(PID.TID 0000.0001) %MON dynstat_salt_mean            =   3.5000000000000E+01
(PID.TID 0000.0001) %MON dynstat_salt_sd              =   0.0000000000000E+00
(PID.TID 0000.0001) %MON dynstat_salt_del2            =   0.0000000000000E+00
(PID.TID 0000.0001) %MON dynstat_sst_max              =   4.0000000000000E+00
(PID.TID 0000.0001) %MON dynstat_sst_min              =   4.0000000000000E+00
(PID.TID 0000.0001) %MON dynstat_sst_mean             =   4.0000000000000E+00
(PID.TID 0000.0001) %MON dynstat_sst_sd               =   0.0000000000000E+00
(PID.TID 0000.0001) %MON dynstat_sst_del2             =   0.0000000000000E+00
(PID.TID 0000.0001) %MON dynstat_sss_max              =   3.5000000000000E+01
(PID.TID 0000.0001) %MON dynstat_sss_min              =   3.5000000000000E+01
(PID.TID 0000.0001) %MON dynstat_sss_mean             =   3.5000000000000E+01
(PID.TID 0000.0001) %MON dynstat_sss_sd               =   0.0000000000000E+00
(PID.TID 0000.0001) %MON dynstat_sss_del2             =   0.0000000000000E+00
(PID.TID 0000.0001) %MON extforcing_qnet_max          =   0.0000000000000E+00
(PID.TID 0000.0001) %MON extforcing_qnet_min          =   0.0000000000000E+00
(PID.TID 0000.0001) %MON extforcing_qnet_mean         =   0.0000000000000E+00
(PID.TID 0000.0001) %MON extforcing_qnet_sd           =   0.0000000000000E+00
(PID.TID 0000.0001) %MON extforcing_qnet_del2         =   0.0000000000000E+00
(PID.TID 0000.0001) %MON extforcing_qsw_max           =   0.0000000000000E+00
(PID.TID 0000.0001) %MON extforcing_qsw_min           =   0.0000000000000E+00
(PID.TID 0000.0001) %MON extforcing_qsw_mean          =   0.0000000000000E+00
(PID.TID 0000.0001) %MON extforcing_qsw_sd            =   0.0000000000000E+00
(PID.TID 0000.0001) %MON extforcing_qsw_del2          =   0.0000000000000E+00
(PID.TID 0000.0001) %MON extforcing_empmr_max         =   0.0000000000000E+00
(PID.TID 0000.0001) %MON extforcing_empmr_min         =   0.0000000000000E+00
(PID.TID 0000.0001) %MON extforcing_empmr_mean        =   0.0000000000000E+00
(PID.TID 0000.0001) %MON extforcing_empmr_sd          =   0.0000000000000E+00
(PID.TID 0000.0001) %MON extforcing_empmr_del2        =   0.0000000000000E+00
(PID.TID 0000.0001) %MON extforcing_fu_max            =   1.0000000000000E-01
(PID.TID 0000.0001) %MON extforcing_fu_min            =   1.0000000000000E-01
(PID.TID 0000.0001) %MON extforcing_fu_mean           =   1.0000000000000E-01
(PID.TID 0000.0001) %MON extforcing_fu_sd             =   0.0000000000000E+00
(PID.TID 0000.0001) %MON extforcing_fu_del2           =   0.0000000000000E+00
(PID.TID 0000.0001) %MON extforcing_fv_max            =   0.0000000000000E+00
(PID.TID 0000.0001) %MON extforcing_fv_min            =   0.0000000000000E+00
(PID.TID 0000.0001) %MON extforcing_fv_mean           =   0.0000000000000E+00
(PID.TID 0000.0001) %MON extforcing_fv_sd             =   0.0000000000000E+00
(PID.TID 0000.0001) %MON extforcing_fv_del2           =   0.0000000000000E+00
(PID.TID 0000.0001) %MON advcfl_uvel_max              =   1.2359869814622E-05
(PID.TID 0000.0001) %MON advcfl_vvel_max              =   1.5506704467152E-04
(PID.TID 0000.0001) %MON advcfl_wvel_max              =   1.1287289517200E-05
(PID.TID 0000.0001) %MON advcfl_W_hf_max              =   2.6885972686919E-05
(PID.TID 0000.0001) %MON pe_b_mean                    =   5.4657866889376E-11
(PID.TID 0000.0001) %MON ke_max                       =   3.2734108642380E-05
(PID.TID 0000.0001) %MON ke_mean                      =   6.7891653196537E-07
(PID.TID 0000.0001) %MON ke_vol                       =   4.4009158039362E+15
(PID.TID 0000.0001) %MON vort_r_min                   =  -2.8225428039508E-09
(PID.TID 0000.0001) %MON vort_r_max                   =   2.7355813369777E-09
(PID.TID 0000.0001) %MON vort_a_mean                  =  -1.1390240000000E-04
(PID.TID 0000.0001) %MON vort_a_sd                    =   3.7032288103417E-06
(PID.TID 0000.0001) %MON vort_p_mean                  =  -1.5528913309106E-04
(PID.TID 0000.0001) %MON vort_p_sd                    =   4.1188138153176E-05
(PID.TID 0000.0001) %MON surfExpan_theta_mean         =  -2.2601909483037E-08
(PID.TID 0000.0001) %MON surfExpan_salt_mean          =  -1.9776670797657E-07
(PID.TID 0000.0001) // =======================================================
(PID.TID 0000.0001) // End MONITOR dynamic field statistics
(PID.TID 0000.0001) // =======================================================
 cg2d: Sum(rhs),rhsMax =  -1.24975133363519E+00  2.75286355082882E-03
(PID.TID 0000.0001)                    cg2d_init_res =    1.26992729936723E-01
(PID.TID 0000.0001)                       cg2d_iters =    14
(PID.TID 0000.0001)                         cg2d_res =    2.02932213293437E-14
(PID.TID 0000.0001) // =======================================================
(PID.TID 0000.0001) // Begin MONITOR dynamic field statistics
(PID.TID 0000.0001) // =======================================================
(PID.TID 0000.0001) %MON time_tsnumber                =                    85
(PID.TID 0000.0001) %MON time_secondsf                =   3.0600000000000E+05
(PID.TID 0000.0001) %MON dynstat_eta_max              =   3.4758983314865E-04
(PID.TID 0000.0001) %MON dynstat_eta_min              =   9.5910404354921E-05
(PID.TID 0000.0001) %MON dynstat_eta_mean             =   2.2293758912887E-04
(PID.TID 0000.0001) %MON dynstat_eta_sd               =   7.9090995331944E-05
(PID.TID 0000.0001) %MON dynstat_eta_del2             =   3.1437871657160E-05
(PID.TID 0000.0001) %MON dynstat_uvel_max             =   1.2227917185686E-03
(PID.TID 0000.0001) %MON dynstat_uvel_min             =  -1.4363407323750E-04
(PID.TID 0000.0001) %MON dynstat_uvel_mean            =   4.1407819618966E-05
(PID.TID 0000.0001) %MON dynstat_uvel_sd              =   1.7180114675466E-04
(PID.TID 0000.0001) %MON dynstat_uvel_del2            =   6.2029079853619E-05
(PID.TID 0000.0001) %MON dynstat_vvel_max             =   8.7266737993462E-03
(PID.TID 0000.0001) %MON dynstat_vvel_min             =  -7.4003260403271E-04
(PID.TID 0000.0001) %MON dynstat_vvel_mean            =   1.0621941252211E-04
(PID.TID 0000.0001) %MON dynstat_vvel_sd              =   1.1780772216015E-03
(PID.TID 0000.0001) %MON dynstat_vvel_del2            =   1.1318900972908E-04
(PID.TID 0000.0001) %MON dynstat_wvel_max             =   8.3447382134193E-07
(PID.TID 0000.0001) %MON dynstat_wvel_min             =  -8.5419971930327E-07
(PID.TID 0000.0001) %MON dynstat_wvel_mean            =  -1.8897122848132E-09
(PID.TID 0000.0001) %MON dynstat_wvel_sd              =   5.6420396071891E-07
(PID.TID 0000.0001) %MON dynstat_wvel_del2            =   3.0527244163413E-07
(PID.TID 0000.0001) %MON dynstat_theta_max            =   4.0000000000000E+00
(PID.TID 0000.0001) %MON dynstat_theta_min            =   4.0000000000000E+00
(PID.TID 0000.0001) %MON dynstat_theta_mean           =   4.0000000000000E+00
(PID.TID 0000.0001) %MON dynstat_theta_sd             =   0.0000000000000E+00
(PID.TID 0000.0001) %MON dynstat_theta_del2           =   0.0000000000000E+00
(PID.TID 0000.0001) %MON dynstat_salt_max             =   3.5000000000000E+01
(PID.TID 0000.0001) %MON dynstat_salt_min             =   3.5000000000000E+01
(PID.TID 0000.0001) %MON dynstat_salt_mean            =   3.5000000000000E+01
(PID.TID 0000.0001) %MON dynstat_salt_sd              =   0.0000000000000E+00
(PID.TID 0000.0001) %MON dynstat_salt_del2            =   0.0000000000000E+00
(PID.TID 0000.0001) %MON dynstat_sst_max              =   4.0000000000000E+00
(PID.TID 0000.0001) %MON dynstat_sst_min              =   4.0000000000000E+00
(PID.TID 0000.0001) %MON dynstat_sst_mean             =   4.0000000000000E+00
(PID.TID 0000.0001) %MON dynstat_sst_sd               =   0.0000000000000E+00
(PID.TID 0000.0001) %MON dynstat_sst_del2             =   0.0000000000000E+00
(PID.TID 0000.0001) %MON dynstat_sss_max              =   3.5000000000000E+01
(PID.TID 0000.0001) %MON dynstat_sss_min              =   3.5000000000000E+01
(PID.TID 0000.0001) %MON dynstat_sss_mean             =   3.5000000000000E+01
(PID.TID 0000.0001) %MON dynstat_sss_sd               =   0.0000000000000E+00
(PID.TID 0000.0001) %MON dynstat_sss_del2             =   0.0000000000000E+00
(PID.TID 0000.0001) %MON extforcing_qnet_max          =   0.0000000000000E+00
(PID.TID 0000.0001) %MON extforcing_qnet_min          =   0.0000000000000E+00
(PID.TID 0000.0001) %MON extforcing_qnet_mean         =   0.0000000000000E+00
(PID.TID 0000.0001) %MON extforcing_qnet_sd           =   0.0000000000000E+00
(PID.TID 0000.0001) %MON extforcing_qnet_del2         =   0.0000000000000E+00
(PID.TID 0000.0001) %MON extforcing_qsw_max           =   0.0000000000000E+00
(PID.TID 0000.0001) %MON extforcing_qsw_min           =   0.0000000000000E+00
(PID.TID 0000.0001) %MON extforcing_qsw_mean          =   0.0000000000000E+00
(PID.TID 0000.0001) %MON extforcing_qsw_sd            =   0.0000000000000E+00
(PID.TID 0000.0001) %MON extforcing_qsw_del2          =   0.0000000000000E+00
(PID.TID 0000.0001) %MON extforcing_empmr_max         =   0.0000000000000E+00
(PID.TID 0000.0001) %MON extforcing_empmr_min         =   0.0000000000000E+00
(PID.TID 0000.0001) %MON extforcing_empmr_mean        =   0.0000000000000E+00
(PID.TID 0000.0001) %MON extforcing_empmr_sd          =   0.0000000000000E+00
(PID.TID 0000.0001) %MON extforcing_empmr_del2        =   0.0000000000000E+00
(PID.TID 0000.0001) %MON extforcing_fu_max            =   1.0000000000000E-01
(PID.TID 0000.0001) %MON extforcing_fu_min            =   1.0000000000000E-01
(PID.TID 0000.0001) %MON extforcing_fu_mean           =   1.0000000000000E-01
(PID.TID 0000.0001) %MON extforcing_fu_sd             =   0.0000000000000E+00
(PID.TID 0000.0001) %MON extforcing_fu_del2           =   0.0000000000000E+00
(PID.TID 0000.0001) %MON extforcing_fv_max            =   0.0000000000000E+00
(PID.TID 0000.0001) %MON extforcing_fv_min            =   0.0000000000000E+00
(PID.TID 0000.0001) %MON extforcing_fv_mean           =   0.0000000000000E+00
(PID.TID 0000.0001) %MON extforcing_fv_sd             =   0.0000000000000E+00
(PID.TID 0000.0001) %MON extforcing_fv_del2           =   0.0000000000000E+00
(PID.TID 0000.0001) %MON advcfl_uvel_max              =   2.2010250934235E-05
(PID.TID 0000.0001) %MON advcfl_vvel_max              =   1.5708012838823E-04
(PID.TID 0000.0001) %MON advcfl_wvel_max              =   1.1548455771218E-05
(PID.TID 0000.0001) %MON advcfl_W_hf_max              =   2.6178809624752E-05
(PID.TID 0000.0001) %MON pe_b_mean                    =   6.2365859863188E-11
(PID.TID 0000.0001) %MON ke_max                       =   3.4473276452561E-05
(PID.TID 0000.0001) %MON ke_mean                      =   7.1518937260229E-07
(PID.TID 0000.0001) %MON ke_vol                       =   4.4009158039362E+15
(PID.TID 0000.0001) %MON vort_r_min                   =  -2.9987923614971E-09
(PID.TID 0000.0001) %MON vort_r_max                   =   2.2057353891922E-09
(PID.TID 0000.0001) %MON vort_a_mean                  =  -1.1390240000000E-04
(PID.TID 0000.0001) %MON vort_a_sd                    =   3.7032314368953E-06
(PID.TID 0000.0001) %MON vort_p_mean                  =  -1.5528913309106E-04
(PID.TID 0000.0001) %MON vort_p_sd                    =   4.1188136878283E-05
(PID.TID 0000.0001) %MON surfExpan_theta_mean         =   1.9470986807933E-08
(PID.TID 0000.0001) %MON surfExpan_salt_mean          =   1.7037113456941E-07
(PID.TID 0000.0001) // =======================================================
(PID.TID 0000.0001) // End MONITOR dynamic field statistics
(PID.TID 0000.0001) // =======================================================
 cg2d: Sum(rhs),rhsMax =  -1.53840868920579E+00  2.75098215542075E-03
(PID.TID 0000.0001)                    cg2d_init_res =    1.34981083724043E-01
(PID.TID 0000.0001)                       cg2d_iters =    14
(PID.TID 0000.0001)                         cg2d_res =    1.61508526558460E-14
(PID.TID 0000.0001) // =======================================================
(PID.TID 0000.0001) // Begin MONITOR dynamic field statistics
(PID.TID 0000.0001) // =======================================================
(PID.TID 0000.0001) %MON time_tsnumber                =                    86
(PID.TID 0000.0001) %MON time_secondsf                =   3.0960000000000E+05
(PID.TID 0000.0001) %MON dynstat_eta_max              =   3.9332553688798E-04
(PID.TID 0000.0001) %MON dynstat_eta_min              =   1.5126490534980E-04
(PID.TID 0000.0001) %MON dynstat_eta_mean             =   2.7424233839336E-04
(PID.TID 0000.0001) %MON dynstat_eta_sd               =   7.5771020711055E-05
(PID.TID 0000.0001) %MON dynstat_eta_del2             =   3.0835857730112E-05
(PID.TID 0000.0001) %MON dynstat_uvel_max             =   1.6895001237883E-03
(PID.TID 0000.0001) %MON dynstat_uvel_min             =  -1.4315011495862E-04
(PID.TID 0000.0001) %MON dynstat_uvel_mean            =   7.7951888680595E-05
(PID.TID 0000.0001) %MON dynstat_uvel_sd              =   2.5018112907607E-04
(PID.TID 0000.0001) %MON dynstat_uvel_del2            =   6.1703038523509E-05
(PID.TID 0000.0001) %MON dynstat_vvel_max             =   9.0271538833103E-03
(PID.TID 0000.0001) %MON dynstat_vvel_min             =  -4.8600844025976E-04
(PID.TID 0000.0001) %MON dynstat_vvel_mean            =   1.3401169874927E-04
(PID.TID 0000.0001) %MON dynstat_vvel_sd              =   1.2263147002657E-03
(PID.TID 0000.0001) %MON dynstat_vvel_del2            =   1.0906023313444E-04
(PID.TID 0000.0001) %MON dynstat_wvel_max             =   7.3550705348580E-07
(PID.TID 0000.0001) %MON dynstat_wvel_min             =  -6.8275017950527E-07
(PID.TID 0000.0001) %MON dynstat_wvel_mean            =  -8.5137772144774E-10
(PID.TID 0000.0001) %MON dynstat_wvel_sd              =   4.8315773586993E-07
(PID.TID 0000.0001) %MON dynstat_wvel_del2            =   2.9112694699528E-07
(PID.TID 0000.0001) %MON dynstat_theta_max            =   4.0000000000000E+00
(PID.TID 0000.0001) %MON dynstat_theta_min            =   4.0000000000000E+00
(PID.TID 0000.0001) %MON dynstat_theta_mean           =   4.0000000000000E+00
(PID.TID 0000.0001) %MON dynstat_theta_sd             =   0.0000000000000E+00
(PID.TID 0000.0001) %MON dynstat_theta_del2           =   0.0000000000000E+00
(PID.TID 0000.0001) %MON dynstat_salt_max             =   3.5000000000000E+01
(PID.TID 0000.0001) %MON dynstat_salt_min             =   3.5000000000000E+01
(PID.TID 0000.0001) %MON dynstat_salt_mean            =   3.5000000000000E+01
(PID.TID 0000.0001) %MON dynstat_salt_sd              =   0.0000000000000E+00
(PID.TID 0000.0001) %MON dynstat_salt_del2            =   0.0000000000000E+00
(PID.TID 0000.0001) %MON dynstat_sst_max              =   4.0000000000000E+00
(PID.TID 0000.0001) %MON dynstat_sst_min              =   4.0000000000000E+00
(PID.TID 0000.0001) %MON dynstat_sst_mean             =   4.0000000000000E+00
(PID.TID 0000.0001) %MON dynstat_sst_sd               =   0.0000000000000E+00
(PID.TID 0000.0001) %MON dynstat_sst_del2             =   0.0000000000000E+00
(PID.TID 0000.0001) %MON dynstat_sss_max              =   3.5000000000000E+01
(PID.TID 0000.0001) %MON dynstat_sss_min              =   3.5000000000000E+01
(PID.TID 0000.0001) %MON dynstat_sss_mean             =   3.5000000000000E+01
(PID.TID 0000.0001) %MON dynstat_sss_sd               =   0.0000000000000E+00
(PID.TID 0000.0001) %MON dynstat_sss_del2             =   0.0000000000000E+00
(PID.TID 0000.0001) %MON extforcing_qnet_max          =   0.0000000000000E+00
(PID.TID 0000.0001) %MON extforcing_qnet_min          =   0.0000000000000E+00
(PID.TID 0000.0001) %MON extforcing_qnet_mean         =   0.0000000000000E+00
(PID.TID 0000.0001) %MON extforcing_qnet_sd           =   0.0000000000000E+00
(PID.TID 0000.0001) %MON extforcing_qnet_del2         =   0.0000000000000E+00
(PID.TID 0000.0001) %MON extforcing_qsw_max           =   0.0000000000000E+00
(PID.TID 0000.0001) %MON extforcing_qsw_min           =   0.0000000000000E+00
(PID.TID 0000.0001) %MON extforcing_qsw_mean          =   0.0000000000000E+00
(PID.TID 0000.0001) %MON extforcing_qsw_sd            =   0.0000000000000E+00
(PID.TID 0000.0001) %MON extforcing_qsw_del2          =   0.0000000000000E+00
(PID.TID 0000.0001) %MON extforcing_empmr_max         =   0.0000000000000E+00
(PID.TID 0000.0001) %MON extforcing_empmr_min         =   0.0000000000000E+00
(PID.TID 0000.0001) %MON extforcing_empmr_mean        =   0.0000000000000E+00
(PID.TID 0000.0001) %MON extforcing_empmr_sd          =   0.0000000000000E+00
(PID.TID 0000.0001) %MON extforcing_empmr_del2        =   0.0000000000000E+00
(PID.TID 0000.0001) %MON extforcing_fu_max            =   1.0000000000000E-01
(PID.TID 0000.0001) %MON extforcing_fu_min            =   1.0000000000000E-01
(PID.TID 0000.0001) %MON extforcing_fu_mean           =   1.0000000000000E-01
(PID.TID 0000.0001) %MON extforcing_fu_sd             =   0.0000000000000E+00
(PID.TID 0000.0001) %MON extforcing_fu_del2           =   0.0000000000000E+00
(PID.TID 0000.0001) %MON extforcing_fv_max            =   0.0000000000000E+00
(PID.TID 0000.0001) %MON extforcing_fv_min            =   0.0000000000000E+00
(PID.TID 0000.0001) %MON extforcing_fv_mean           =   0.0000000000000E+00
(PID.TID 0000.0001) %MON extforcing_fv_sd             =   0.0000000000000E+00
(PID.TID 0000.0001) %MON extforcing_fv_del2           =   0.0000000000000E+00
(PID.TID 0000.0001) %MON advcfl_uvel_max              =   3.0411002228190E-05
(PID.TID 0000.0001) %MON advcfl_vvel_max              =   1.6248876989959E-04
(PID.TID 0000.0001) %MON advcfl_wvel_max              =   1.1708888305791E-05
(PID.TID 0000.0001) %MON advcfl_W_hf_max              =   2.4985787517520E-05
(PID.TID 0000.0001) %MON pe_b_mean                    =   9.0222193786157E-11
(PID.TID 0000.0001) %MON ke_max                       =   3.8077375673402E-05
(PID.TID 0000.0001) %MON ke_mean                      =   7.9523698689202E-07
(PID.TID 0000.0001) %MON ke_vol                       =   4.4009158039362E+15
(PID.TID 0000.0001) %MON vort_r_min                   =  -3.0704356753147E-09
(PID.TID 0000.0001) %MON vort_r_max                   =   2.4741785021041E-09
(PID.TID 0000.0001) %MON vort_a_mean                  =  -1.1390240000000E-04
(PID.TID 0000.0001) %MON vort_a_sd                    =   3.7032339030105E-06
(PID.TID 0000.0001) %MON vort_p_mean                  =  -1.5528913309106E-04
(PID.TID 0000.0001) %MON vort_p_sd                    =   4.1188135816188E-05
(PID.TID 0000.0001) %MON surfExpan_theta_mean         =   5.7005276960544E-08
(PID.TID 0000.0001) %MON surfExpan_salt_mean          =   4.9879617340476E-07
(PID.TID 0000.0001) // =======================================================
(PID.TID 0000.0001) // End MONITOR dynamic field statistics
(PID.TID 0000.0001) // =======================================================
 cg2d: Sum(rhs),rhsMax =  -1.91301872651488E+00  2.81271668012764E-03
(PID.TID 0000.0001)                    cg2d_init_res =    1.26831617996901E-01
(PID.TID 0000.0001)                       cg2d_iters =    14
(PID.TID 0000.0001)                         cg2d_res =    4.04645628752272E-14
(PID.TID 0000.0001) // =======================================================
(PID.TID 0000.0001) // Begin MONITOR dynamic field statistics
(PID.TID 0000.0001) // =======================================================
(PID.TID 0000.0001) %MON time_tsnumber                =                    87
(PID.TID 0000.0001) %MON time_secondsf                =   3.1320000000000E+05
(PID.TID 0000.0001) %MON dynstat_eta_max              =   4.6610132561679E-04
(PID.TID 0000.0001) %MON dynstat_eta_min              =   2.2851832828222E-04
(PID.TID 0000.0001) %MON dynstat_eta_mean             =   3.4867452335893E-04
(PID.TID 0000.0001) %MON dynstat_eta_sd               =   7.3342182501364E-05
(PID.TID 0000.0001) %MON dynstat_eta_del2             =   3.0488437956465E-05
(PID.TID 0000.0001) %MON dynstat_uvel_max             =   1.9010701487858E-03
(PID.TID 0000.0001) %MON dynstat_uvel_min             =  -1.3918855719368E-04
(PID.TID 0000.0001) %MON dynstat_uvel_mean            =   9.8684360143800E-05
(PID.TID 0000.0001) %MON dynstat_uvel_sd              =   2.8886480748196E-04
(PID.TID 0000.0001) %MON dynstat_uvel_del2            =   6.1195435061489E-05
(PID.TID 0000.0001) %MON dynstat_vvel_max             =   9.4483754394647E-03
(PID.TID 0000.0001) %MON dynstat_vvel_min             =  -1.7791694907957E-04
(PID.TID 0000.0001) %MON dynstat_vvel_mean            =   1.7462882132172E-04
(PID.TID 0000.0001) %MON dynstat_vvel_sd              =   1.2960262565661E-03
(PID.TID 0000.0001) %MON dynstat_vvel_del2            =   1.0688789743666E-04
(PID.TID 0000.0001) %MON dynstat_wvel_max             =   6.9670265249306E-07
(PID.TID 0000.0001) %MON dynstat_wvel_min             =  -4.7886867624450E-07
(PID.TID 0000.0001) %MON dynstat_wvel_mean            =   3.3033377069967E-10
(PID.TID 0000.0001) %MON dynstat_wvel_sd              =   4.0620032096712E-07
(PID.TID 0000.0001) %MON dynstat_wvel_del2            =   2.7309552136765E-07
(PID.TID 0000.0001) %MON dynstat_theta_max            =   4.0000000000000E+00
(PID.TID 0000.0001) %MON dynstat_theta_min            =   4.0000000000000E+00
(PID.TID 0000.0001) %MON dynstat_theta_mean           =   4.0000000000000E+00
(PID.TID 0000.0001) %MON dynstat_theta_sd             =   0.0000000000000E+00
(PID.TID 0000.0001) %MON dynstat_theta_del2           =   0.0000000000000E+00
(PID.TID 0000.0001) %MON dynstat_salt_max             =   3.5000000000000E+01
(PID.TID 0000.0001) %MON dynstat_salt_min             =   3.5000000000000E+01
(PID.TID 0000.0001) %MON dynstat_salt_mean            =   3.5000000000000E+01
(PID.TID 0000.0001) %MON dynstat_salt_sd              =   0.0000000000000E+00
(PID.TID 0000.0001) %MON dynstat_salt_del2            =   0.0000000000000E+00
(PID.TID 0000.0001) %MON dynstat_sst_max              =   4.0000000000000E+00
(PID.TID 0000.0001) %MON dynstat_sst_min              =   4.0000000000000E+00
(PID.TID 0000.0001) %MON dynstat_sst_mean             =   4.0000000000000E+00
(PID.TID 0000.0001) %MON dynstat_sst_sd               =   0.0000000000000E+00
(PID.TID 0000.0001) %MON dynstat_sst_del2             =   0.0000000000000E+00
(PID.TID 0000.0001) %MON dynstat_sss_max              =   3.5000000000000E+01
(PID.TID 0000.0001) %MON dynstat_sss_min              =   3.5000000000000E+01
(PID.TID 0000.0001) %MON dynstat_sss_mean             =   3.5000000000000E+01
(PID.TID 0000.0001) %MON dynstat_sss_sd               =   0.0000000000000E+00
(PID.TID 0000.0001) %MON dynstat_sss_del2             =   0.0000000000000E+00
(PID.TID 0000.0001) %MON extforcing_qnet_max          =   0.0000000000000E+00
(PID.TID 0000.0001) %MON extforcing_qnet_min          =   0.0000000000000E+00
(PID.TID 0000.0001) %MON extforcing_qnet_mean         =   0.0000000000000E+00
(PID.TID 0000.0001) %MON extforcing_qnet_sd           =   0.0000000000000E+00
(PID.TID 0000.0001) %MON extforcing_qnet_del2         =   0.0000000000000E+00
(PID.TID 0000.0001) %MON extforcing_qsw_max           =   0.0000000000000E+00
(PID.TID 0000.0001) %MON extforcing_qsw_min           =   0.0000000000000E+00
(PID.TID 0000.0001) %MON extforcing_qsw_mean          =   0.0000000000000E+00
(PID.TID 0000.0001) %MON extforcing_qsw_sd            =   0.0000000000000E+00
(PID.TID 0000.0001) %MON extforcing_qsw_del2          =   0.0000000000000E+00
(PID.TID 0000.0001) %MON extforcing_empmr_max         =   0.0000000000000E+00
(PID.TID 0000.0001) %MON extforcing_empmr_min         =   0.0000000000000E+00
(PID.TID 0000.0001) %MON extforcing_empmr_mean        =   0.0000000000000E+00
(PID.TID 0000.0001) %MON extforcing_empmr_sd          =   0.0000000000000E+00
(PID.TID 0000.0001) %MON extforcing_empmr_del2        =   0.0000000000000E+00
(PID.TID 0000.0001) %MON extforcing_fu_max            =   1.0000000000000E-01
(PID.TID 0000.0001) %MON extforcing_fu_min            =   1.0000000000000E-01
(PID.TID 0000.0001) %MON extforcing_fu_mean           =   1.0000000000000E-01
(PID.TID 0000.0001) %MON extforcing_fu_sd             =   0.0000000000000E+00
(PID.TID 0000.0001) %MON extforcing_fu_del2           =   0.0000000000000E+00
(PID.TID 0000.0001) %MON extforcing_fv_max            =   0.0000000000000E+00
(PID.TID 0000.0001) %MON extforcing_fv_min            =   0.0000000000000E+00
(PID.TID 0000.0001) %MON extforcing_fv_mean           =   0.0000000000000E+00
(PID.TID 0000.0001) %MON extforcing_fv_sd             =   0.0000000000000E+00
(PID.TID 0000.0001) %MON extforcing_fv_del2           =   0.0000000000000E+00
(PID.TID 0000.0001) %MON advcfl_uvel_max              =   3.4219262678144E-05
(PID.TID 0000.0001) %MON advcfl_vvel_max              =   1.7007075791036E-04
(PID.TID 0000.0001) %MON advcfl_wvel_max              =   1.1763828374284E-05
(PID.TID 0000.0001) %MON advcfl_W_hf_max              =   2.4408731295829E-05
(PID.TID 0000.0001) %MON pe_b_mean                    =   1.4149429066758E-10
(PID.TID 0000.0001) %MON ke_max                       =   4.2783194332201E-05
(PID.TID 0000.0001) %MON ke_mean                      =   9.0168038144178E-07
(PID.TID 0000.0001) %MON ke_vol                       =   4.4009158039362E+15
(PID.TID 0000.0001) %MON vort_r_min                   =  -3.0234563224468E-09
(PID.TID 0000.0001) %MON vort_r_max                   =   2.4892417719258E-09
(PID.TID 0000.0001) %MON vort_a_mean                  =  -1.1390240000000E-04
(PID.TID 0000.0001) %MON vort_a_sd                    =   3.7032356493781E-06
(PID.TID 0000.0001) %MON vort_p_mean                  =  -1.5528913309106E-04
(PID.TID 0000.0001) %MON vort_p_sd                    =   4.1188134960172E-05
(PID.TID 0000.0001) %MON surfExpan_theta_mean         =   8.2702427739521E-08
(PID.TID 0000.0001) %MON surfExpan_salt_mean          =   7.2364624272081E-07
(PID.TID 0000.0001) // =======================================================
(PID.TID 0000.0001) // End MONITOR dynamic field statistics
(PID.TID 0000.0001) // =======================================================
 cg2d: Sum(rhs),rhsMax =  -2.30705941137173E+00  2.88449380033002E-03
(PID.TID 0000.0001)                    cg2d_init_res =    1.09073709830632E-01
(PID.TID 0000.0001)                       cg2d_iters =    14
(PID.TID 0000.0001)                         cg2d_res =    1.77201756827929E-14
(PID.TID 0000.0001) // =======================================================
(PID.TID 0000.0001) // Begin MONITOR dynamic field statistics
(PID.TID 0000.0001) // =======================================================
(PID.TID 0000.0001) %MON time_tsnumber                =                    88
(PID.TID 0000.0001) %MON time_secondsf                =   3.1680000000000E+05
(PID.TID 0000.0001) %MON dynstat_eta_max              =   5.4800118151925E-04
(PID.TID 0000.0001) %MON dynstat_eta_min              =   3.1200611182600E-04
(PID.TID 0000.0001) %MON dynstat_eta_mean             =   4.3122446727734E-04
(PID.TID 0000.0001) %MON dynstat_eta_sd               =   7.2138043965779E-05
(PID.TID 0000.0001) %MON dynstat_eta_del2             =   3.0156776695558E-05
(PID.TID 0000.0001) %MON dynstat_uvel_max             =   1.8253534848407E-03
(PID.TID 0000.0001) %MON dynstat_uvel_min             =  -1.3253434499444E-04
(PID.TID 0000.0001) %MON dynstat_uvel_mean            =   9.9818906473142E-05
(PID.TID 0000.0001) %MON dynstat_uvel_sd              =   2.7795249298359E-04
(PID.TID 0000.0001) %MON dynstat_uvel_del2            =   6.0515105589415E-05
(PID.TID 0000.0001) %MON dynstat_vvel_max             =   9.9012642131095E-03
(PID.TID 0000.0001) %MON dynstat_vvel_min             =  -8.0709490805026E-05
(PID.TID 0000.0001) %MON dynstat_vvel_mean            =   2.1985476584138E-04
(PID.TID 0000.0001) %MON dynstat_vvel_sd              =   1.3746329595785E-03
(PID.TID 0000.0001) %MON dynstat_vvel_del2            =   1.0687483230007E-04
(PID.TID 0000.0001) %MON dynstat_wvel_max             =   6.6372307014321E-07
(PID.TID 0000.0001) %MON dynstat_wvel_min             =  -5.6322520123697E-07
(PID.TID 0000.0001) %MON dynstat_wvel_mean            =   1.4276731145016E-09
(PID.TID 0000.0001) %MON dynstat_wvel_sd              =   3.6416767214127E-07
(PID.TID 0000.0001) %MON dynstat_wvel_del2            =   2.5439760770968E-07
(PID.TID 0000.0001) %MON dynstat_theta_max            =   4.0000000000000E+00
(PID.TID 0000.0001) %MON dynstat_theta_min            =   4.0000000000000E+00
(PID.TID 0000.0001) %MON dynstat_theta_mean           =   4.0000000000000E+00
(PID.TID 0000.0001) %MON dynstat_theta_sd             =   0.0000000000000E+00
(PID.TID 0000.0001) %MON dynstat_theta_del2           =   0.0000000000000E+00
(PID.TID 0000.0001) %MON dynstat_salt_max             =   3.5000000000000E+01
(PID.TID 0000.0001) %MON dynstat_salt_min             =   3.5000000000000E+01
(PID.TID 0000.0001) %MON dynstat_salt_mean            =   3.5000000000000E+01
(PID.TID 0000.0001) %MON dynstat_salt_sd              =   0.0000000000000E+00
(PID.TID 0000.0001) %MON dynstat_salt_del2            =   0.0000000000000E+00
(PID.TID 0000.0001) %MON dynstat_sst_max              =   4.0000000000000E+00
(PID.TID 0000.0001) %MON dynstat_sst_min              =   4.0000000000000E+00
(PID.TID 0000.0001) %MON dynstat_sst_mean             =   4.0000000000000E+00
(PID.TID 0000.0001) %MON dynstat_sst_sd               =   0.0000000000000E+00
(PID.TID 0000.0001) %MON dynstat_sst_del2             =   0.0000000000000E+00
(PID.TID 0000.0001) %MON dynstat_sss_max              =   3.5000000000000E+01
(PID.TID 0000.0001) %MON dynstat_sss_min              =   3.5000000000000E+01
(PID.TID 0000.0001) %MON dynstat_sss_mean             =   3.5000000000000E+01
(PID.TID 0000.0001) %MON dynstat_sss_sd               =   0.0000000000000E+00
(PID.TID 0000.0001) %MON dynstat_sss_del2             =   0.0000000000000E+00
(PID.TID 0000.0001) %MON extforcing_qnet_max          =   0.0000000000000E+00
(PID.TID 0000.0001) %MON extforcing_qnet_min          =   0.0000000000000E+00
(PID.TID 0000.0001) %MON extforcing_qnet_mean         =   0.0000000000000E+00
(PID.TID 0000.0001) %MON extforcing_qnet_sd           =   0.0000000000000E+00
(PID.TID 0000.0001) %MON extforcing_qnet_del2         =   0.0000000000000E+00
(PID.TID 0000.0001) %MON extforcing_qsw_max           =   0.0000000000000E+00
(PID.TID 0000.0001) %MON extforcing_qsw_min           =   0.0000000000000E+00
(PID.TID 0000.0001) %MON extforcing_qsw_mean          =   0.0000000000000E+00
(PID.TID 0000.0001) %MON extforcing_qsw_sd            =   0.0000000000000E+00
(PID.TID 0000.0001) %MON extforcing_qsw_del2          =   0.0000000000000E+00
(PID.TID 0000.0001) %MON extforcing_empmr_max         =   0.0000000000000E+00
(PID.TID 0000.0001) %MON extforcing_empmr_min         =   0.0000000000000E+00
(PID.TID 0000.0001) %MON extforcing_empmr_mean        =   0.0000000000000E+00
(PID.TID 0000.0001) %MON extforcing_empmr_sd          =   0.0000000000000E+00
(PID.TID 0000.0001) %MON extforcing_empmr_del2        =   0.0000000000000E+00
(PID.TID 0000.0001) %MON extforcing_fu_max            =   1.0000000000000E-01
(PID.TID 0000.0001) %MON extforcing_fu_min            =   1.0000000000000E-01
(PID.TID 0000.0001) %MON extforcing_fu_mean           =   1.0000000000000E-01
(PID.TID 0000.0001) %MON extforcing_fu_sd             =   0.0000000000000E+00
(PID.TID 0000.0001) %MON extforcing_fu_del2           =   0.0000000000000E+00
(PID.TID 0000.0001) %MON extforcing_fv_max            =   0.0000000000000E+00
(PID.TID 0000.0001) %MON extforcing_fv_min            =   0.0000000000000E+00
(PID.TID 0000.0001) %MON extforcing_fv_mean           =   0.0000000000000E+00
(PID.TID 0000.0001) %MON extforcing_fv_sd             =   0.0000000000000E+00
(PID.TID 0000.0001) %MON extforcing_fv_del2           =   0.0000000000000E+00
(PID.TID 0000.0001) %MON advcfl_uvel_max              =   3.2856362727133E-05
(PID.TID 0000.0001) %MON advcfl_vvel_max              =   1.7822275583597E-04
(PID.TID 0000.0001) %MON advcfl_wvel_max              =   1.1724364404393E-05
(PID.TID 0000.0001) %MON advcfl_W_hf_max              =   2.3894030525156E-05
(PID.TID 0000.0001) %MON pe_b_mean                    =   2.1305386945299E-10
(PID.TID 0000.0001) %MON ke_max                       =   4.7627411229655E-05
(PID.TID 0000.0001) %MON ke_mean                      =   1.0125866470341E-06
(PID.TID 0000.0001) %MON ke_vol                       =   4.4009158039362E+15
(PID.TID 0000.0001) %MON vort_r_min                   =  -2.8657971324106E-09
(PID.TID 0000.0001) %MON vort_r_max                   =   2.2531552391509E-09
(PID.TID 0000.0001) %MON vort_a_mean                  =  -1.1390240000000E-04
(PID.TID 0000.0001) %MON vort_a_sd                    =   3.7032362948838E-06
(PID.TID 0000.0001) %MON vort_p_mean                  =  -1.5528913309106E-04
(PID.TID 0000.0001) %MON vort_p_sd                    =   4.1188134272379E-05
(PID.TID 0000.0001) %MON surfExpan_theta_mean         =   9.1722159909352E-08
(PID.TID 0000.0001) %MON surfExpan_salt_mean          =   8.0256889920683E-07
(PID.TID 0000.0001) // =======================================================
(PID.TID 0000.0001) // End MONITOR dynamic field statistics
(PID.TID 0000.0001) // =======================================================
 cg2d: Sum(rhs),rhsMax =  -2.64297554250667E+00  2.95188724418163E-03
(PID.TID 0000.0001)                    cg2d_init_res =    9.24195932591718E-02
(PID.TID 0000.0001)                       cg2d_iters =    14
(PID.TID 0000.0001)                         cg2d_res =    5.64657913301875E-14
(PID.TID 0000.0001) // =======================================================
(PID.TID 0000.0001) // Begin MONITOR dynamic field statistics
(PID.TID 0000.0001) // =======================================================
(PID.TID 0000.0001) %MON time_tsnumber                =                    89
(PID.TID 0000.0001) %MON time_secondsf                =   3.2040000000000E+05
(PID.TID 0000.0001) %MON dynstat_eta_max              =   6.2274903351011E-04
(PID.TID 0000.0001) %MON dynstat_eta_min              =   3.8500358951837E-04
(PID.TID 0000.0001) %MON dynstat_eta_mean             =   5.0555442323149E-04
(PID.TID 0000.0001) %MON dynstat_eta_sd               =   7.2311429056344E-05
(PID.TID 0000.0001) %MON dynstat_eta_del2             =   2.9812199625511E-05
(PID.TID 0000.0001) %MON dynstat_uvel_max             =   1.4869521811251E-03
(PID.TID 0000.0001) %MON dynstat_uvel_min             =  -1.2448193337716E-04
(PID.TID 0000.0001) %MON dynstat_uvel_mean            =   8.1488407318110E-05
(PID.TID 0000.0001) %MON dynstat_uvel_sd              =   2.2163542103331E-04
(PID.TID 0000.0001) %MON dynstat_uvel_del2            =   6.0510553775342E-05
(PID.TID 0000.0001) %MON dynstat_vvel_max             =   1.0293960333449E-02
(PID.TID 0000.0001) %MON dynstat_vvel_min             =  -8.1956028634234E-05
(PID.TID 0000.0001) %MON dynstat_vvel_mean            =   2.6071707544411E-04
(PID.TID 0000.0001) %MON dynstat_vvel_sd              =   1.4449890874659E-03
(PID.TID 0000.0001) %MON dynstat_vvel_del2            =   1.0706013386358E-04
(PID.TID 0000.0001) %MON dynstat_wvel_max             =   6.4555245115990E-07
(PID.TID 0000.0001) %MON dynstat_wvel_min             =  -6.6844573041205E-07
(PID.TID 0000.0001) %MON dynstat_wvel_mean            =   2.2296182220987E-09
(PID.TID 0000.0001) %MON dynstat_wvel_sd              =   3.6171187003799E-07
(PID.TID 0000.0001) %MON dynstat_wvel_del2            =   2.3994125634184E-07
(PID.TID 0000.0001) %MON dynstat_theta_max            =   4.0000000000000E+00
(PID.TID 0000.0001) %MON dynstat_theta_min            =   4.0000000000000E+00
(PID.TID 0000.0001) %MON dynstat_theta_mean           =   4.0000000000000E+00
(PID.TID 0000.0001) %MON dynstat_theta_sd             =   0.0000000000000E+00
(PID.TID 0000.0001) %MON dynstat_theta_del2           =   0.0000000000000E+00
(PID.TID 0000.0001) %MON dynstat_salt_max             =   3.5000000000000E+01
(PID.TID 0000.0001) %MON dynstat_salt_min             =   3.5000000000000E+01
(PID.TID 0000.0001) %MON dynstat_salt_mean            =   3.5000000000000E+01
(PID.TID 0000.0001) %MON dynstat_salt_sd              =   0.0000000000000E+00
(PID.TID 0000.0001) %MON dynstat_salt_del2            =   0.0000000000000E+00
(PID.TID 0000.0001) %MON dynstat_sst_max              =   4.0000000000000E+00
(PID.TID 0000.0001) %MON dynstat_sst_min              =   4.0000000000000E+00
(PID.TID 0000.0001) %MON dynstat_sst_mean             =   4.0000000000000E+00
(PID.TID 0000.0001) %MON dynstat_sst_sd               =   0.0000000000000E+00
(PID.TID 0000.0001) %MON dynstat_sst_del2             =   0.0000000000000E+00
(PID.TID 0000.0001) %MON dynstat_sss_max              =   3.5000000000000E+01
(PID.TID 0000.0001) %MON dynstat_sss_min              =   3.5000000000000E+01
(PID.TID 0000.0001) %MON dynstat_sss_mean             =   3.5000000000000E+01
(PID.TID 0000.0001) %MON dynstat_sss_sd               =   0.0000000000000E+00
(PID.TID 0000.0001) %MON dynstat_sss_del2             =   0.0000000000000E+00
(PID.TID 0000.0001) %MON extforcing_qnet_max          =   0.0000000000000E+00
(PID.TID 0000.0001) %MON extforcing_qnet_min          =   0.0000000000000E+00
(PID.TID 0000.0001) %MON extforcing_qnet_mean         =   0.0000000000000E+00
(PID.TID 0000.0001) %MON extforcing_qnet_sd           =   0.0000000000000E+00
(PID.TID 0000.0001) %MON extforcing_qnet_del2         =   0.0000000000000E+00
(PID.TID 0000.0001) %MON extforcing_qsw_max           =   0.0000000000000E+00
(PID.TID 0000.0001) %MON extforcing_qsw_min           =   0.0000000000000E+00
(PID.TID 0000.0001) %MON extforcing_qsw_mean          =   0.0000000000000E+00
(PID.TID 0000.0001) %MON extforcing_qsw_sd            =   0.0000000000000E+00
(PID.TID 0000.0001) %MON extforcing_qsw_del2          =   0.0000000000000E+00
(PID.TID 0000.0001) %MON extforcing_empmr_max         =   0.0000000000000E+00
(PID.TID 0000.0001) %MON extforcing_empmr_min         =   0.0000000000000E+00
(PID.TID 0000.0001) %MON extforcing_empmr_mean        =   0.0000000000000E+00
(PID.TID 0000.0001) %MON extforcing_empmr_sd          =   0.0000000000000E+00
(PID.TID 0000.0001) %MON extforcing_empmr_del2        =   0.0000000000000E+00
(PID.TID 0000.0001) %MON extforcing_fu_max            =   1.0000000000000E-01
(PID.TID 0000.0001) %MON extforcing_fu_min            =   1.0000000000000E-01
(PID.TID 0000.0001) %MON extforcing_fu_mean           =   1.0000000000000E-01
(PID.TID 0000.0001) %MON extforcing_fu_sd             =   0.0000000000000E+00
(PID.TID 0000.0001) %MON extforcing_fu_del2           =   0.0000000000000E+00
(PID.TID 0000.0001) %MON extforcing_fv_max            =   0.0000000000000E+00
(PID.TID 0000.0001) %MON extforcing_fv_min            =   0.0000000000000E+00
(PID.TID 0000.0001) %MON extforcing_fv_mean           =   0.0000000000000E+00
(PID.TID 0000.0001) %MON extforcing_fv_sd             =   0.0000000000000E+00
(PID.TID 0000.0001) %MON extforcing_fv_del2           =   0.0000000000000E+00
(PID.TID 0000.0001) %MON advcfl_uvel_max              =   2.6765139260251E-05
(PID.TID 0000.0001) %MON advcfl_vvel_max              =   1.8529128600208E-04
(PID.TID 0000.0001) %MON advcfl_wvel_max              =   1.1615181251288E-05
(PID.TID 0000.0001) %MON advcfl_W_hf_max              =   2.3239888241757E-05
(PID.TID 0000.0001) %MON pe_b_mean                    =   2.9068807367032E-10
(PID.TID 0000.0001) %MON ke_max                       =   5.1634588857618E-05
(PID.TID 0000.0001) %MON ke_mean                      =   1.1058647383538E-06
(PID.TID 0000.0001) %MON ke_vol                       =   4.4009158039362E+15
(PID.TID 0000.0001) %MON vort_r_min                   =  -2.6478756727548E-09
(PID.TID 0000.0001) %MON vort_r_max                   =   2.2799699575952E-09
(PID.TID 0000.0001) %MON vort_a_mean                  =  -1.1390240000000E-04
(PID.TID 0000.0001) %MON vort_a_sd                    =   3.7032357106195E-06
(PID.TID 0000.0001) %MON vort_p_mean                  =  -1.5528913309106E-04
(PID.TID 0000.0001) %MON vort_p_sd                    =   4.1188133692608E-05
(PID.TID 0000.0001) %MON surfExpan_theta_mean         =   8.2588839949055E-08
(PID.TID 0000.0001) %MON surfExpan_salt_mean          =   7.2265234955423E-07
(PID.TID 0000.0001) // =======================================================
(PID.TID 0000.0001) // End MONITOR dynamic field statistics
(PID.TID 0000.0001) // =======================================================
 cg2d: Sum(rhs),rhsMax =  -2.86495130756344E+00  3.00154117451826E-03
(PID.TID 0000.0001)                    cg2d_init_res =    8.88872190343132E-02
(PID.TID 0000.0001)                       cg2d_iters =    14
(PID.TID 0000.0001)                         cg2d_res =    4.90199638945382E-14
(PID.TID 0000.0001) // =======================================================
(PID.TID 0000.0001) // Begin MONITOR dynamic field statistics
(PID.TID 0000.0001) // =======================================================
(PID.TID 0000.0001) %MON time_tsnumber                =                    90
(PID.TID 0000.0001) %MON time_secondsf                =   3.2400000000000E+05
(PID.TID 0000.0001) %MON dynstat_eta_max              =   6.7576441211581E-04
(PID.TID 0000.0001) %MON dynstat_eta_min              =   4.3347191438778E-04
(PID.TID 0000.0001) %MON dynstat_eta_mean             =   5.5723265145918E-04
(PID.TID 0000.0001) %MON dynstat_eta_sd               =   7.3866992483284E-05
(PID.TID 0000.0001) %MON dynstat_eta_del2             =   2.9693618766849E-05
(PID.TID 0000.0001) %MON dynstat_uvel_max             =   1.0674597394657E-03
(PID.TID 0000.0001) %MON dynstat_uvel_min             =  -1.1658064776423E-04
(PID.TID 0000.0001) %MON dynstat_uvel_mean            =   4.7647735159180E-05
(PID.TID 0000.0001) %MON dynstat_uvel_sd              =   1.3919688974934E-04
(PID.TID 0000.0001) %MON dynstat_uvel_del2            =   6.1713478778293E-05
(PID.TID 0000.0001) %MON dynstat_vvel_max             =   1.0550054496991E-02
(PID.TID 0000.0001) %MON dynstat_vvel_min             =  -8.0075577377206E-05
(PID.TID 0000.0001) %MON dynstat_vvel_mean            =   2.8926343376280E-04
(PID.TID 0000.0001) %MON dynstat_vvel_sd              =   1.4905978207881E-03
(PID.TID 0000.0001) %MON dynstat_vvel_del2            =   1.0703650874103E-04
(PID.TID 0000.0001) %MON dynstat_wvel_max             =   6.2650808049971E-07
(PID.TID 0000.0001) %MON dynstat_wvel_min             =  -7.3213617505651E-07
(PID.TID 0000.0001) %MON dynstat_wvel_mean            =   2.5828121363508E-09
(PID.TID 0000.0001) %MON dynstat_wvel_sd              =   3.7156167367668E-07
(PID.TID 0000.0001) %MON dynstat_wvel_del2            =   2.3275359407568E-07
(PID.TID 0000.0001) %MON dynstat_theta_max            =   4.0000000000000E+00
(PID.TID 0000.0001) %MON dynstat_theta_min            =   4.0000000000000E+00
(PID.TID 0000.0001) %MON dynstat_theta_mean           =   4.0000000000000E+00
(PID.TID 0000.0001) %MON dynstat_theta_sd             =   0.0000000000000E+00
(PID.TID 0000.0001) %MON dynstat_theta_del2           =   0.0000000000000E+00
(PID.TID 0000.0001) %MON dynstat_salt_max             =   3.5000000000000E+01
(PID.TID 0000.0001) %MON dynstat_salt_min             =   3.5000000000000E+01
(PID.TID 0000.0001) %MON dynstat_salt_mean            =   3.5000000000000E+01
(PID.TID 0000.0001) %MON dynstat_salt_sd              =   0.0000000000000E+00
(PID.TID 0000.0001) %MON dynstat_salt_del2            =   0.0000000000000E+00
(PID.TID 0000.0001) %MON dynstat_sst_max              =   4.0000000000000E+00
(PID.TID 0000.0001) %MON dynstat_sst_min              =   4.0000000000000E+00
(PID.TID 0000.0001) %MON dynstat_sst_mean             =   4.0000000000000E+00
(PID.TID 0000.0001) %MON dynstat_sst_sd               =   0.0000000000000E+00
(PID.TID 0000.0001) %MON dynstat_sst_del2             =   0.0000000000000E+00
(PID.TID 0000.0001) %MON dynstat_sss_max              =   3.5000000000000E+01
(PID.TID 0000.0001) %MON dynstat_sss_min              =   3.5000000000000E+01
(PID.TID 0000.0001) %MON dynstat_sss_mean             =   3.5000000000000E+01
(PID.TID 0000.0001) %MON dynstat_sss_sd               =   0.0000000000000E+00
(PID.TID 0000.0001) %MON dynstat_sss_del2             =   0.0000000000000E+00
(PID.TID 0000.0001) %MON extforcing_qnet_max          =   0.0000000000000E+00
(PID.TID 0000.0001) %MON extforcing_qnet_min          =   0.0000000000000E+00
(PID.TID 0000.0001) %MON extforcing_qnet_mean         =   0.0000000000000E+00
(PID.TID 0000.0001) %MON extforcing_qnet_sd           =   0.0000000000000E+00
(PID.TID 0000.0001) %MON extforcing_qnet_del2         =   0.0000000000000E+00
(PID.TID 0000.0001) %MON extforcing_qsw_max           =   0.0000000000000E+00
(PID.TID 0000.0001) %MON extforcing_qsw_min           =   0.0000000000000E+00
(PID.TID 0000.0001) %MON extforcing_qsw_mean          =   0.0000000000000E+00
(PID.TID 0000.0001) %MON extforcing_qsw_sd            =   0.0000000000000E+00
(PID.TID 0000.0001) %MON extforcing_qsw_del2          =   0.0000000000000E+00
(PID.TID 0000.0001) %MON extforcing_empmr_max         =   0.0000000000000E+00
(PID.TID 0000.0001) %MON extforcing_empmr_min         =   0.0000000000000E+00
(PID.TID 0000.0001) %MON extforcing_empmr_mean        =   0.0000000000000E+00
(PID.TID 0000.0001) %MON extforcing_empmr_sd          =   0.0000000000000E+00
(PID.TID 0000.0001) %MON extforcing_empmr_del2        =   0.0000000000000E+00
(PID.TID 0000.0001) %MON extforcing_fu_max            =   1.0000000000000E-01
(PID.TID 0000.0001) %MON extforcing_fu_min            =   1.0000000000000E-01
(PID.TID 0000.0001) %MON extforcing_fu_mean           =   1.0000000000000E-01
(PID.TID 0000.0001) %MON extforcing_fu_sd             =   0.0000000000000E+00
(PID.TID 0000.0001) %MON extforcing_fu_del2           =   0.0000000000000E+00
(PID.TID 0000.0001) %MON extforcing_fv_max            =   0.0000000000000E+00
(PID.TID 0000.0001) %MON extforcing_fv_min            =   0.0000000000000E+00
(PID.TID 0000.0001) %MON extforcing_fv_mean           =   0.0000000000000E+00
(PID.TID 0000.0001) %MON extforcing_fv_sd             =   0.0000000000000E+00
(PID.TID 0000.0001) %MON extforcing_fv_del2           =   0.0000000000000E+00
(PID.TID 0000.0001) %MON advcfl_uvel_max              =   1.9214275310382E-05
(PID.TID 0000.0001) %MON advcfl_vvel_max              =   1.8990098094583E-04
(PID.TID 0000.0001) %MON advcfl_wvel_max              =   1.1470143147008E-05
(PID.TID 0000.0001) %MON advcfl_W_hf_max              =   2.2554290897990E-05
(PID.TID 0000.0001) %MON pe_b_mean                    =   3.5215537809805E-10
(PID.TID 0000.0001) %MON ke_max                       =   5.4015746094156E-05
(PID.TID 0000.0001) %MON ke_mean                      =   1.1636006391161E-06
(PID.TID 0000.0001) %MON ke_vol                       =   4.4009158039362E+15
(PID.TID 0000.0001) %MON vort_r_min                   =  -2.7791321031539E-09
(PID.TID 0000.0001) %MON vort_r_max                   =   3.0753538786937E-09
(PID.TID 0000.0001) %MON vort_a_mean                  =  -1.1390240000000E-04
(PID.TID 0000.0001) %MON vort_a_sd                    =   3.7032340388309E-06
(PID.TID 0000.0001) %MON vort_p_mean                  =  -1.5528913309106E-04
(PID.TID 0000.0001) %MON vort_p_sd                    =   4.1188133149984E-05
(PID.TID 0000.0001) %MON surfExpan_theta_mean         =   5.7420253586314E-08
(PID.TID 0000.0001) %MON surfExpan_salt_mean          =   5.0242721888025E-07
(PID.TID 0000.0001) // =======================================================
(PID.TID 0000.0001) // End MONITOR dynamic field statistics
(PID.TID 0000.0001) // =======================================================
 cg2d: Sum(rhs),rhsMax =  -2.94238810044230E+00  3.02377925014881E-03
(PID.TID 0000.0001)                    cg2d_init_res =    9.92216247217527E-02
(PID.TID 0000.0001)                       cg2d_iters =    14
(PID.TID 0000.0001)                         cg2d_res =    3.09818434147026E-14
(PID.TID 0000.0001) // =======================================================
(PID.TID 0000.0001) // Begin MONITOR dynamic field statistics
(PID.TID 0000.0001) // =======================================================
(PID.TID 0000.0001) %MON time_tsnumber                =                    91
(PID.TID 0000.0001) %MON time_secondsf                =   3.2760000000000E+05
(PID.TID 0000.0001) %MON dynstat_eta_max              =   6.9699587881196E-04
(PID.TID 0000.0001) %MON dynstat_eta_min              =   4.4822634368061E-04
(PID.TID 0000.0001) %MON dynstat_eta_mean             =   5.7653415904334E-04
(PID.TID 0000.0001) %MON dynstat_eta_sd               =   7.6607392433767E-05
(PID.TID 0000.0001) %MON dynstat_eta_del2             =   2.9861653545717E-05
(PID.TID 0000.0001) %MON dynstat_uvel_max             =   6.0058181961139E-04
(PID.TID 0000.0001) %MON dynstat_uvel_min             =  -2.6033219940206E-04
(PID.TID 0000.0001) %MON dynstat_uvel_mean            =   5.2273710845246E-06
(PID.TID 0000.0001) %MON dynstat_uvel_sd              =   8.9776461743085E-05
(PID.TID 0000.0001) %MON dynstat_uvel_del2            =   6.4631270733970E-05
(PID.TID 0000.0001) %MON dynstat_vvel_max             =   1.0623103163236E-02
(PID.TID 0000.0001) %MON dynstat_vvel_min             =  -7.2473098346830E-05
(PID.TID 0000.0001) %MON dynstat_vvel_mean            =   3.0010557280844E-04
(PID.TID 0000.0001) %MON dynstat_vvel_sd              =   1.5009328513114E-03
(PID.TID 0000.0001) %MON dynstat_vvel_del2            =   1.0659389713877E-04
(PID.TID 0000.0001) %MON dynstat_wvel_max             =   6.0967591193853E-07
(PID.TID 0000.0001) %MON dynstat_wvel_min             =  -7.2841521084819E-07
(PID.TID 0000.0001) %MON dynstat_wvel_mean            =   2.4212196766115E-09
(PID.TID 0000.0001) %MON dynstat_wvel_sd              =   3.6843564454683E-07
(PID.TID 0000.0001) %MON dynstat_wvel_del2            =   2.3122436418599E-07
(PID.TID 0000.0001) %MON dynstat_theta_max            =   4.0000000000000E+00
(PID.TID 0000.0001) %MON dynstat_theta_min            =   4.0000000000000E+00
(PID.TID 0000.0001) %MON dynstat_theta_mean           =   4.0000000000000E+00
(PID.TID 0000.0001) %MON dynstat_theta_sd             =   0.0000000000000E+00
(PID.TID 0000.0001) %MON dynstat_theta_del2           =   0.0000000000000E+00
(PID.TID 0000.0001) %MON dynstat_salt_max             =   3.5000000000000E+01
(PID.TID 0000.0001) %MON dynstat_salt_min             =   3.5000000000000E+01
(PID.TID 0000.0001) %MON dynstat_salt_mean            =   3.5000000000000E+01
(PID.TID 0000.0001) %MON dynstat_salt_sd              =   0.0000000000000E+00
(PID.TID 0000.0001) %MON dynstat_salt_del2            =   0.0000000000000E+00
(PID.TID 0000.0001) %MON dynstat_sst_max              =   4.0000000000000E+00
(PID.TID 0000.0001) %MON dynstat_sst_min              =   4.0000000000000E+00
(PID.TID 0000.0001) %MON dynstat_sst_mean             =   4.0000000000000E+00
(PID.TID 0000.0001) %MON dynstat_sst_sd               =   0.0000000000000E+00
(PID.TID 0000.0001) %MON dynstat_sst_del2             =   0.0000000000000E+00
(PID.TID 0000.0001) %MON dynstat_sss_max              =   3.5000000000000E+01
(PID.TID 0000.0001) %MON dynstat_sss_min              =   3.5000000000000E+01
(PID.TID 0000.0001) %MON dynstat_sss_mean             =   3.5000000000000E+01
(PID.TID 0000.0001) %MON dynstat_sss_sd               =   0.0000000000000E+00
(PID.TID 0000.0001) %MON dynstat_sss_del2             =   0.0000000000000E+00
(PID.TID 0000.0001) %MON extforcing_qnet_max          =   0.0000000000000E+00
(PID.TID 0000.0001) %MON extforcing_qnet_min          =   0.0000000000000E+00
(PID.TID 0000.0001) %MON extforcing_qnet_mean         =   0.0000000000000E+00
(PID.TID 0000.0001) %MON extforcing_qnet_sd           =   0.0000000000000E+00
(PID.TID 0000.0001) %MON extforcing_qnet_del2         =   0.0000000000000E+00
(PID.TID 0000.0001) %MON extforcing_qsw_max           =   0.0000000000000E+00
(PID.TID 0000.0001) %MON extforcing_qsw_min           =   0.0000000000000E+00
(PID.TID 0000.0001) %MON extforcing_qsw_mean          =   0.0000000000000E+00
(PID.TID 0000.0001) %MON extforcing_qsw_sd            =   0.0000000000000E+00
(PID.TID 0000.0001) %MON extforcing_qsw_del2          =   0.0000000000000E+00
(PID.TID 0000.0001) %MON extforcing_empmr_max         =   0.0000000000000E+00
(PID.TID 0000.0001) %MON extforcing_empmr_min         =   0.0000000000000E+00
(PID.TID 0000.0001) %MON extforcing_empmr_mean        =   0.0000000000000E+00
(PID.TID 0000.0001) %MON extforcing_empmr_sd          =   0.0000000000000E+00
(PID.TID 0000.0001) %MON extforcing_empmr_del2        =   0.0000000000000E+00
(PID.TID 0000.0001) %MON extforcing_fu_max            =   1.0000000000000E-01
(PID.TID 0000.0001) %MON extforcing_fu_min            =   1.0000000000000E-01
(PID.TID 0000.0001) %MON extforcing_fu_mean           =   1.0000000000000E-01
(PID.TID 0000.0001) %MON extforcing_fu_sd             =   0.0000000000000E+00
(PID.TID 0000.0001) %MON extforcing_fu_del2           =   0.0000000000000E+00
(PID.TID 0000.0001) %MON extforcing_fv_max            =   0.0000000000000E+00
(PID.TID 0000.0001) %MON extforcing_fv_min            =   0.0000000000000E+00
(PID.TID 0000.0001) %MON extforcing_fv_mean           =   0.0000000000000E+00
(PID.TID 0000.0001) %MON extforcing_fv_sd             =   0.0000000000000E+00
(PID.TID 0000.0001) %MON extforcing_fv_del2           =   0.0000000000000E+00
(PID.TID 0000.0001) %MON advcfl_uvel_max              =   1.0810472753005E-05
(PID.TID 0000.0001) %MON advcfl_vvel_max              =   1.9121585693824E-04
(PID.TID 0000.0001) %MON advcfl_wvel_max              =   1.1326519968220E-05
(PID.TID 0000.0001) %MON advcfl_W_hf_max              =   2.1948332829787E-05
(PID.TID 0000.0001) %MON pe_b_mean                    =   3.7700492084995E-10
(PID.TID 0000.0001) %MON ke_max                       =   5.4332564221612E-05
(PID.TID 0000.0001) %MON ke_mean                      =   1.1754749587341E-06
(PID.TID 0000.0001) %MON ke_vol                       =   4.4009158039362E+15
(PID.TID 0000.0001) %MON vort_r_min                   =  -2.8961836088613E-09
(PID.TID 0000.0001) %MON vort_r_max                   =   3.9199856442503E-09
(PID.TID 0000.0001) %MON vort_a_mean                  =  -1.1390240000000E-04
(PID.TID 0000.0001) %MON vort_a_sd                    =   3.7032316547916E-06
(PID.TID 0000.0001) %MON vort_p_mean                  =  -1.5528913309106E-04
(PID.TID 0000.0001) %MON vort_p_sd                    =   4.1188132575345E-05
(PID.TID 0000.0001) %MON surfExpan_theta_mean         =   2.1446119537963E-08
(PID.TID 0000.0001) %MON surfExpan_salt_mean          =   1.8765354595718E-07
(PID.TID 0000.0001) // =======================================================
(PID.TID 0000.0001) // End MONITOR dynamic field statistics
(PID.TID 0000.0001) // =======================================================
 cg2d: Sum(rhs),rhsMax =  -2.84207312153502E+00  3.04217207355397E-03
(PID.TID 0000.0001)                    cg2d_init_res =    1.11390041729951E-01
(PID.TID 0000.0001)                       cg2d_iters =    14
(PID.TID 0000.0001)                         cg2d_res =    1.65302407539102E-14
(PID.TID 0000.0001) // =======================================================
(PID.TID 0000.0001) // Begin MONITOR dynamic field statistics
(PID.TID 0000.0001) // =======================================================
(PID.TID 0000.0001) %MON time_tsnumber                =                    92
(PID.TID 0000.0001) %MON time_secondsf                =   3.3120000000000E+05
(PID.TID 0000.0001) %MON dynstat_eta_max              =   6.8674595671718E-04
(PID.TID 0000.0001) %MON dynstat_eta_min              =   4.2686476148426E-04
(PID.TID 0000.0001) %MON dynstat_eta_mean             =   5.6026569119033E-04
(PID.TID 0000.0001) %MON dynstat_eta_sd               =   8.0065365849874E-05
(PID.TID 0000.0001) %MON dynstat_eta_del2             =   3.0839561524595E-05
(PID.TID 0000.0001) %MON dynstat_uvel_max             =   1.6098879360882E-04
(PID.TID 0000.0001) %MON dynstat_uvel_min             =  -7.9711517680262E-04
(PID.TID 0000.0001) %MON dynstat_uvel_mean            =  -3.7282258982043E-05
(PID.TID 0000.0001) %MON dynstat_uvel_sd              =   1.4294805516229E-04
(PID.TID 0000.0001) %MON dynstat_uvel_del2            =   6.7816163809489E-05
(PID.TID 0000.0001) %MON dynstat_vvel_max             =   1.0504713366407E-02
(PID.TID 0000.0001) %MON dynstat_vvel_min             =  -6.7445654258872E-05
(PID.TID 0000.0001) %MON dynstat_vvel_mean            =   2.9143138868731E-04
(PID.TID 0000.0001) %MON dynstat_vvel_sd              =   1.4745836878055E-03
(PID.TID 0000.0001) %MON dynstat_vvel_del2            =   1.0583775474077E-04
(PID.TID 0000.0001) %MON dynstat_wvel_max             =   5.9768430972101E-07
(PID.TID 0000.0001) %MON dynstat_wvel_min             =  -6.5592006748756E-07
(PID.TID 0000.0001) %MON dynstat_wvel_mean            =   1.7786854194860E-09
(PID.TID 0000.0001) %MON dynstat_wvel_sd              =   3.5120926202015E-07
(PID.TID 0000.0001) %MON dynstat_wvel_del2            =   2.3230328593244E-07
(PID.TID 0000.0001) %MON dynstat_theta_max            =   4.0000000000000E+00
(PID.TID 0000.0001) %MON dynstat_theta_min            =   4.0000000000000E+00
(PID.TID 0000.0001) %MON dynstat_theta_mean           =   4.0000000000000E+00
(PID.TID 0000.0001) %MON dynstat_theta_sd             =   0.0000000000000E+00
(PID.TID 0000.0001) %MON dynstat_theta_del2           =   0.0000000000000E+00
(PID.TID 0000.0001) %MON dynstat_salt_max             =   3.5000000000000E+01
(PID.TID 0000.0001) %MON dynstat_salt_min             =   3.5000000000000E+01
(PID.TID 0000.0001) %MON dynstat_salt_mean            =   3.5000000000000E+01
(PID.TID 0000.0001) %MON dynstat_salt_sd              =   0.0000000000000E+00
(PID.TID 0000.0001) %MON dynstat_salt_del2            =   0.0000000000000E+00
(PID.TID 0000.0001) %MON dynstat_sst_max              =   4.0000000000000E+00
(PID.TID 0000.0001) %MON dynstat_sst_min              =   4.0000000000000E+00
(PID.TID 0000.0001) %MON dynstat_sst_mean             =   4.0000000000000E+00
(PID.TID 0000.0001) %MON dynstat_sst_sd               =   0.0000000000000E+00
(PID.TID 0000.0001) %MON dynstat_sst_del2             =   0.0000000000000E+00
(PID.TID 0000.0001) %MON dynstat_sss_max              =   3.5000000000000E+01
(PID.TID 0000.0001) %MON dynstat_sss_min              =   3.5000000000000E+01
(PID.TID 0000.0001) %MON dynstat_sss_mean             =   3.5000000000000E+01
(PID.TID 0000.0001) %MON dynstat_sss_sd               =   0.0000000000000E+00
(PID.TID 0000.0001) %MON dynstat_sss_del2             =   0.0000000000000E+00
(PID.TID 0000.0001) %MON extforcing_qnet_max          =   0.0000000000000E+00
(PID.TID 0000.0001) %MON extforcing_qnet_min          =   0.0000000000000E+00
(PID.TID 0000.0001) %MON extforcing_qnet_mean         =   0.0000000000000E+00
(PID.TID 0000.0001) %MON extforcing_qnet_sd           =   0.0000000000000E+00
(PID.TID 0000.0001) %MON extforcing_qnet_del2         =   0.0000000000000E+00
(PID.TID 0000.0001) %MON extforcing_qsw_max           =   0.0000000000000E+00
(PID.TID 0000.0001) %MON extforcing_qsw_min           =   0.0000000000000E+00
(PID.TID 0000.0001) %MON extforcing_qsw_mean          =   0.0000000000000E+00
(PID.TID 0000.0001) %MON extforcing_qsw_sd            =   0.0000000000000E+00
(PID.TID 0000.0001) %MON extforcing_qsw_del2          =   0.0000000000000E+00
(PID.TID 0000.0001) %MON extforcing_empmr_max         =   0.0000000000000E+00
(PID.TID 0000.0001) %MON extforcing_empmr_min         =   0.0000000000000E+00
(PID.TID 0000.0001) %MON extforcing_empmr_mean        =   0.0000000000000E+00
(PID.TID 0000.0001) %MON extforcing_empmr_sd          =   0.0000000000000E+00
(PID.TID 0000.0001) %MON extforcing_empmr_del2        =   0.0000000000000E+00
(PID.TID 0000.0001) %MON extforcing_fu_max            =   1.0000000000000E-01
(PID.TID 0000.0001) %MON extforcing_fu_min            =   1.0000000000000E-01
(PID.TID 0000.0001) %MON extforcing_fu_mean           =   1.0000000000000E-01
(PID.TID 0000.0001) %MON extforcing_fu_sd             =   0.0000000000000E+00
(PID.TID 0000.0001) %MON extforcing_fu_del2           =   0.0000000000000E+00
(PID.TID 0000.0001) %MON extforcing_fv_max            =   0.0000000000000E+00
(PID.TID 0000.0001) %MON extforcing_fv_min            =   0.0000000000000E+00
(PID.TID 0000.0001) %MON extforcing_fv_mean           =   0.0000000000000E+00
(PID.TID 0000.0001) %MON extforcing_fv_sd             =   0.0000000000000E+00
(PID.TID 0000.0001) %MON extforcing_fv_del2           =   0.0000000000000E+00
(PID.TID 0000.0001) %MON advcfl_uvel_max              =   1.4348073182447E-05
(PID.TID 0000.0001) %MON advcfl_vvel_max              =   1.8908484059532E-04
(PID.TID 0000.0001) %MON advcfl_wvel_max              =   1.1218874075387E-05
(PID.TID 0000.0001) %MON advcfl_W_hf_max              =   2.1516635149956E-05
(PID.TID 0000.0001) %MON pe_b_mean                    =   3.5699643834298E-10
(PID.TID 0000.0001) %MON ke_max                       =   5.2584288367121E-05
(PID.TID 0000.0001) %MON ke_mean                      =   1.1405767099819E-06
(PID.TID 0000.0001) %MON ke_vol                       =   4.4009158039362E+15
(PID.TID 0000.0001) %MON vort_r_min                   =  -2.9755394333849E-09
(PID.TID 0000.0001) %MON vort_r_max                   =   4.6597710511532E-09
(PID.TID 0000.0001) %MON vort_a_mean                  =  -1.1390240000000E-04
(PID.TID 0000.0001) %MON vort_a_sd                    =   3.7032290812330E-06
(PID.TID 0000.0001) %MON vort_p_mean                  =  -1.5528913309106E-04
(PID.TID 0000.0001) %MON vort_p_sd                    =   4.1188131912210E-05
(PID.TID 0000.0001) %MON surfExpan_theta_mean         =  -1.8076075392241E-08
(PID.TID 0000.0001) %MON surfExpan_salt_mean          =  -1.5816565968211E-07
(PID.TID 0000.0001) // =======================================================
(PID.TID 0000.0001) // End MONITOR dynamic field statistics
(PID.TID 0000.0001) // =======================================================
 cg2d: Sum(rhs),rhsMax =  -2.51902174703873E+00  3.13830805734543E-03
(PID.TID 0000.0001)                    cg2d_init_res =    1.12768087977744E-01
(PID.TID 0000.0001)                       cg2d_iters =    14
(PID.TID 0000.0001)                         cg2d_res =    2.84469969271827E-14
(PID.TID 0000.0001) // =======================================================
(PID.TID 0000.0001) // Begin MONITOR dynamic field statistics
(PID.TID 0000.0001) // =======================================================
(PID.TID 0000.0001) %MON time_tsnumber                =                    93
(PID.TID 0000.0001) %MON time_secondsf                =   3.3480000000000E+05
(PID.TID 0000.0001) %MON dynstat_eta_max              =   6.4507606278935E-04
(PID.TID 0000.0001) %MON dynstat_eta_min              =   3.7411555291566E-04
(PID.TID 0000.0001) %MON dynstat_eta_mean             =   5.1227421269933E-04
(PID.TID 0000.0001) %MON dynstat_eta_sd               =   8.3545382561594E-05
(PID.TID 0000.0001) %MON dynstat_eta_del2             =   3.1830908976014E-05
(PID.TID 0000.0001) %MON dynstat_uvel_max             =   1.1775543439113E-04
(PID.TID 0000.0001) %MON dynstat_uvel_min             =  -1.2235521531280E-03
(PID.TID 0000.0001) %MON dynstat_uvel_mean            =  -7.1527254677403E-05
(PID.TID 0000.0001) %MON dynstat_uvel_sd              =   2.1008315645106E-04
(PID.TID 0000.0001) %MON dynstat_uvel_del2            =   7.0480808312933E-05
(PID.TID 0000.0001) %MON dynstat_vvel_max             =   1.0224844895548E-02
(PID.TID 0000.0001) %MON dynstat_vvel_min             =  -6.2994604493932E-05
(PID.TID 0000.0001) %MON dynstat_vvel_mean            =   2.6529606320036E-04
(PID.TID 0000.0001) %MON dynstat_vvel_sd              =   1.4194715230861E-03
(PID.TID 0000.0001) %MON dynstat_vvel_del2            =   1.0495338094938E-04
(PID.TID 0000.0001) %MON dynstat_wvel_max             =   5.9225435821034E-07
(PID.TID 0000.0001) %MON dynstat_wvel_min             =  -5.2882352111318E-07
(PID.TID 0000.0001) %MON dynstat_wvel_mean            =   7.8194084110594E-10
(PID.TID 0000.0001) %MON dynstat_wvel_sd              =   3.4377491765048E-07
(PID.TID 0000.0001) %MON dynstat_wvel_del2            =   2.4041592869023E-07
(PID.TID 0000.0001) %MON dynstat_theta_max            =   4.0000000000000E+00
(PID.TID 0000.0001) %MON dynstat_theta_min            =   4.0000000000000E+00
(PID.TID 0000.0001) %MON dynstat_theta_mean           =   4.0000000000000E+00
(PID.TID 0000.0001) %MON dynstat_theta_sd             =   0.0000000000000E+00
(PID.TID 0000.0001) %MON dynstat_theta_del2           =   0.0000000000000E+00
(PID.TID 0000.0001) %MON dynstat_salt_max             =   3.5000000000000E+01
(PID.TID 0000.0001) %MON dynstat_salt_min             =   3.5000000000000E+01
(PID.TID 0000.0001) %MON dynstat_salt_mean            =   3.5000000000000E+01
(PID.TID 0000.0001) %MON dynstat_salt_sd              =   0.0000000000000E+00
(PID.TID 0000.0001) %MON dynstat_salt_del2            =   0.0000000000000E+00
(PID.TID 0000.0001) %MON dynstat_sst_max              =   4.0000000000000E+00
(PID.TID 0000.0001) %MON dynstat_sst_min              =   4.0000000000000E+00
(PID.TID 0000.0001) %MON dynstat_sst_mean             =   4.0000000000000E+00
(PID.TID 0000.0001) %MON dynstat_sst_sd               =   0.0000000000000E+00
(PID.TID 0000.0001) %MON dynstat_sst_del2             =   0.0000000000000E+00
(PID.TID 0000.0001) %MON dynstat_sss_max              =   3.5000000000000E+01
(PID.TID 0000.0001) %MON dynstat_sss_min              =   3.5000000000000E+01
(PID.TID 0000.0001) %MON dynstat_sss_mean             =   3.5000000000000E+01
(PID.TID 0000.0001) %MON dynstat_sss_sd               =   0.0000000000000E+00
(PID.TID 0000.0001) %MON dynstat_sss_del2             =   0.0000000000000E+00
(PID.TID 0000.0001) %MON extforcing_qnet_max          =   0.0000000000000E+00
(PID.TID 0000.0001) %MON extforcing_qnet_min          =   0.0000000000000E+00
(PID.TID 0000.0001) %MON extforcing_qnet_mean         =   0.0000000000000E+00
(PID.TID 0000.0001) %MON extforcing_qnet_sd           =   0.0000000000000E+00
(PID.TID 0000.0001) %MON extforcing_qnet_del2         =   0.0000000000000E+00
(PID.TID 0000.0001) %MON extforcing_qsw_max           =   0.0000000000000E+00
(PID.TID 0000.0001) %MON extforcing_qsw_min           =   0.0000000000000E+00
(PID.TID 0000.0001) %MON extforcing_qsw_mean          =   0.0000000000000E+00
(PID.TID 0000.0001) %MON extforcing_qsw_sd            =   0.0000000000000E+00
(PID.TID 0000.0001) %MON extforcing_qsw_del2          =   0.0000000000000E+00
(PID.TID 0000.0001) %MON extforcing_empmr_max         =   0.0000000000000E+00
(PID.TID 0000.0001) %MON extforcing_empmr_min         =   0.0000000000000E+00
(PID.TID 0000.0001) %MON extforcing_empmr_mean        =   0.0000000000000E+00
(PID.TID 0000.0001) %MON extforcing_empmr_sd          =   0.0000000000000E+00
(PID.TID 0000.0001) %MON extforcing_empmr_del2        =   0.0000000000000E+00
(PID.TID 0000.0001) %MON extforcing_fu_max            =   1.0000000000000E-01
(PID.TID 0000.0001) %MON extforcing_fu_min            =   1.0000000000000E-01
(PID.TID 0000.0001) %MON extforcing_fu_mean           =   1.0000000000000E-01
(PID.TID 0000.0001) %MON extforcing_fu_sd             =   0.0000000000000E+00
(PID.TID 0000.0001) %MON extforcing_fu_del2           =   0.0000000000000E+00
(PID.TID 0000.0001) %MON extforcing_fv_max            =   0.0000000000000E+00
(PID.TID 0000.0001) %MON extforcing_fv_min            =   0.0000000000000E+00
(PID.TID 0000.0001) %MON extforcing_fv_mean           =   0.0000000000000E+00
(PID.TID 0000.0001) %MON extforcing_fv_sd             =   0.0000000000000E+00
(PID.TID 0000.0001) %MON extforcing_fv_del2           =   0.0000000000000E+00
(PID.TID 0000.0001) %MON advcfl_uvel_max              =   2.2023938756305E-05
(PID.TID 0000.0001) %MON advcfl_vvel_max              =   1.8404720811987E-04
(PID.TID 0000.0001) %MON advcfl_wvel_max              =   1.1173653647655E-05
(PID.TID 0000.0001) %MON advcfl_W_hf_max              =   2.1321156895572E-05
(PID.TID 0000.0001) %MON pe_b_mean                    =   3.0026251627987E-10
(PID.TID 0000.0001) %MON ke_max                       =   4.9193824527789E-05
(PID.TID 0000.0001) %MON ke_mean                      =   1.0672662433940E-06
(PID.TID 0000.0001) %MON ke_vol                       =   4.4009158039362E+15
(PID.TID 0000.0001) %MON vort_r_min                   =  -3.0008682642422E-09
(PID.TID 0000.0001) %MON vort_r_max                   =   5.1657629969384E-09
(PID.TID 0000.0001) %MON vort_a_mean                  =  -1.1390240000000E-04
(PID.TID 0000.0001) %MON vort_a_sd                    =   3.7032268741885E-06
(PID.TID 0000.0001) %MON vort_p_mean                  =  -1.5528913309106E-04
(PID.TID 0000.0001) %MON vort_p_sd                    =   4.1188131124556E-05
(PID.TID 0000.0001) %MON surfExpan_theta_mean         =  -5.3323864989997E-08
(PID.TID 0000.0001) %MON surfExpan_salt_mean          =  -4.6658381866247E-07
(PID.TID 0000.0001) // =======================================================
(PID.TID 0000.0001) // End MONITOR dynamic field statistics
(PID.TID 0000.0001) // =======================================================
 cg2d: Sum(rhs),rhsMax =  -2.14123729035296E+00  3.18959324319445E-03
(PID.TID 0000.0001)                    cg2d_init_res =    1.04888877783386E-01
(PID.TID 0000.0001)                       cg2d_iters =    14
(PID.TID 0000.0001)                         cg2d_res =    4.68219142952864E-14
(PID.TID 0000.0001) // =======================================================
(PID.TID 0000.0001) // Begin MONITOR dynamic field statistics
(PID.TID 0000.0001) // =======================================================
(PID.TID 0000.0001) %MON time_tsnumber                =                    94
(PID.TID 0000.0001) %MON time_secondsf                =   3.3840000000000E+05
(PID.TID 0000.0001) %MON dynstat_eta_max              =   5.8022429444475E-04
(PID.TID 0000.0001) %MON dynstat_eta_min              =   3.0077807352907E-04
(PID.TID 0000.0001) %MON dynstat_eta_mean             =   4.4256300437140E-04
(PID.TID 0000.0001) %MON dynstat_eta_sd               =   8.6296492875006E-05
(PID.TID 0000.0001) %MON dynstat_eta_del2             =   3.2692905788538E-05
(PID.TID 0000.0001) %MON dynstat_uvel_max             =   1.1248704790847E-04
(PID.TID 0000.0001) %MON dynstat_uvel_min             =  -1.4124968315935E-03
(PID.TID 0000.0001) %MON dynstat_uvel_mean            =  -9.0929110556606E-05
(PID.TID 0000.0001) %MON dynstat_uvel_sd              =   2.4381387392543E-04
(PID.TID 0000.0001) %MON dynstat_uvel_del2            =   7.1600425476134E-05
(PID.TID 0000.0001) %MON dynstat_vvel_max             =   9.8445491406857E-03
(PID.TID 0000.0001) %MON dynstat_vvel_min             =  -6.0070287111091E-05
(PID.TID 0000.0001) %MON dynstat_vvel_mean            =   2.2714807759763E-04
(PID.TID 0000.0001) %MON dynstat_vvel_sd              =   1.3501981538114E-03
(PID.TID 0000.0001) %MON dynstat_vvel_del2            =   1.0515454769773E-04
(PID.TID 0000.0001) %MON dynstat_wvel_max             =   6.5958368780030E-07
(PID.TID 0000.0001) %MON dynstat_wvel_min             =  -4.6193375066456E-07
(PID.TID 0000.0001) %MON dynstat_wvel_mean            =  -3.7453405315382E-10
(PID.TID 0000.0001) %MON dynstat_wvel_sd              =   3.7515351194689E-07
(PID.TID 0000.0001) %MON dynstat_wvel_del2            =   2.5389300848867E-07
(PID.TID 0000.0001) %MON dynstat_theta_max            =   4.0000000000000E+00
(PID.TID 0000.0001) %MON dynstat_theta_min            =   4.0000000000000E+00
(PID.TID 0000.0001) %MON dynstat_theta_mean           =   4.0000000000000E+00
(PID.TID 0000.0001) %MON dynstat_theta_sd             =   0.0000000000000E+00
(PID.TID 0000.0001) %MON dynstat_theta_del2           =   0.0000000000000E+00
(PID.TID 0000.0001) %MON dynstat_salt_max             =   3.5000000000000E+01
(PID.TID 0000.0001) %MON dynstat_salt_min             =   3.5000000000000E+01
(PID.TID 0000.0001) %MON dynstat_salt_mean            =   3.5000000000000E+01
(PID.TID 0000.0001) %MON dynstat_salt_sd              =   0.0000000000000E+00
(PID.TID 0000.0001) %MON dynstat_salt_del2            =   0.0000000000000E+00
(PID.TID 0000.0001) %MON dynstat_sst_max              =   4.0000000000000E+00
(PID.TID 0000.0001) %MON dynstat_sst_min              =   4.0000000000000E+00
(PID.TID 0000.0001) %MON dynstat_sst_mean             =   4.0000000000000E+00
(PID.TID 0000.0001) %MON dynstat_sst_sd               =   0.0000000000000E+00
(PID.TID 0000.0001) %MON dynstat_sst_del2             =   0.0000000000000E+00
(PID.TID 0000.0001) %MON dynstat_sss_max              =   3.5000000000000E+01
(PID.TID 0000.0001) %MON dynstat_sss_min              =   3.5000000000000E+01
(PID.TID 0000.0001) %MON dynstat_sss_mean             =   3.5000000000000E+01
(PID.TID 0000.0001) %MON dynstat_sss_sd               =   0.0000000000000E+00
(PID.TID 0000.0001) %MON dynstat_sss_del2             =   0.0000000000000E+00
(PID.TID 0000.0001) %MON extforcing_qnet_max          =   0.0000000000000E+00
(PID.TID 0000.0001) %MON extforcing_qnet_min          =   0.0000000000000E+00
(PID.TID 0000.0001) %MON extforcing_qnet_mean         =   0.0000000000000E+00
(PID.TID 0000.0001) %MON extforcing_qnet_sd           =   0.0000000000000E+00
(PID.TID 0000.0001) %MON extforcing_qnet_del2         =   0.0000000000000E+00
(PID.TID 0000.0001) %MON extforcing_qsw_max           =   0.0000000000000E+00
(PID.TID 0000.0001) %MON extforcing_qsw_min           =   0.0000000000000E+00
(PID.TID 0000.0001) %MON extforcing_qsw_mean          =   0.0000000000000E+00
(PID.TID 0000.0001) %MON extforcing_qsw_sd            =   0.0000000000000E+00
(PID.TID 0000.0001) %MON extforcing_qsw_del2          =   0.0000000000000E+00
(PID.TID 0000.0001) %MON extforcing_empmr_max         =   0.0000000000000E+00
(PID.TID 0000.0001) %MON extforcing_empmr_min         =   0.0000000000000E+00
(PID.TID 0000.0001) %MON extforcing_empmr_mean        =   0.0000000000000E+00
(PID.TID 0000.0001) %MON extforcing_empmr_sd          =   0.0000000000000E+00
(PID.TID 0000.0001) %MON extforcing_empmr_del2        =   0.0000000000000E+00
(PID.TID 0000.0001) %MON extforcing_fu_max            =   1.0000000000000E-01
(PID.TID 0000.0001) %MON extforcing_fu_min            =   1.0000000000000E-01
(PID.TID 0000.0001) %MON extforcing_fu_mean           =   1.0000000000000E-01
(PID.TID 0000.0001) %MON extforcing_fu_sd             =   0.0000000000000E+00
(PID.TID 0000.0001) %MON extforcing_fu_del2           =   0.0000000000000E+00
(PID.TID 0000.0001) %MON extforcing_fv_max            =   0.0000000000000E+00
(PID.TID 0000.0001) %MON extforcing_fv_min            =   0.0000000000000E+00
(PID.TID 0000.0001) %MON extforcing_fv_mean           =   0.0000000000000E+00
(PID.TID 0000.0001) %MON extforcing_fv_sd             =   0.0000000000000E+00
(PID.TID 0000.0001) %MON extforcing_fv_del2           =   0.0000000000000E+00
(PID.TID 0000.0001) %MON advcfl_uvel_max              =   2.5424942968683E-05
(PID.TID 0000.0001) %MON advcfl_vvel_max              =   1.7720188453234E-04
(PID.TID 0000.0001) %MON advcfl_wvel_max              =   1.1205389278573E-05
(PID.TID 0000.0001) %MON advcfl_W_hf_max              =   2.2571521554242E-05
(PID.TID 0000.0001) %MON pe_b_mean                    =   2.2659627399539E-10
(PID.TID 0000.0001) %MON ke_max                       =   4.4899338570954E-05
(PID.TID 0000.0001) %MON ke_mean                      =   9.7117230598860E-07
(PID.TID 0000.0001) %MON ke_vol                       =   4.4009158039362E+15
(PID.TID 0000.0001) %MON vort_r_min                   =  -2.9662769713604E-09
(PID.TID 0000.0001) %MON vort_r_max                   =   5.3572815079917E-09
(PID.TID 0000.0001) %MON vort_a_mean                  =  -1.1390240000000E-04
(PID.TID 0000.0001) %MON vort_a_sd                    =   3.7032255040009E-06
(PID.TID 0000.0001) %MON vort_p_mean                  =  -1.5528913309106E-04
(PID.TID 0000.0001) %MON vort_p_sd                    =   4.1188130200258E-05
(PID.TID 0000.0001) %MON surfExpan_theta_mean         =  -7.7456898142143E-08
(PID.TID 0000.0001) %MON surfExpan_salt_mean          =  -6.7774785874375E-07
(PID.TID 0000.0001) // =======================================================
(PID.TID 0000.0001) // End MONITOR dynamic field statistics
(PID.TID 0000.0001) // =======================================================
 cg2d: Sum(rhs),rhsMax =  -1.76835917692949E+00  3.18714933359249E-03
(PID.TID 0000.0001)                    cg2d_init_res =    9.05050199870036E-02
(PID.TID 0000.0001)                       cg2d_iters =    14
(PID.TID 0000.0001)                         cg2d_res =    4.23885537413114E-14
(PID.TID 0000.0001) // =======================================================
(PID.TID 0000.0001) // Begin MONITOR dynamic field statistics
(PID.TID 0000.0001) // =======================================================
(PID.TID 0000.0001) %MON time_tsnumber                =                    95
(PID.TID 0000.0001) %MON time_secondsf                =   3.4200000000000E+05
(PID.TID 0000.0001) %MON dynstat_eta_max              =   5.0536658026526E-04
(PID.TID 0000.0001) %MON dynstat_eta_min              =   2.2148972787155E-04
(PID.TID 0000.0001) %MON dynstat_eta_mean             =   3.6521440524523E-04
(PID.TID 0000.0001) %MON dynstat_eta_sd               =   8.7729650945959E-05
(PID.TID 0000.0001) %MON dynstat_eta_del2             =   3.3271408102509E-05
(PID.TID 0000.0001) %MON dynstat_uvel_max             =   1.0813246870230E-04
(PID.TID 0000.0001) %MON dynstat_uvel_min             =  -1.3354795019341E-03
(PID.TID 0000.0001) %MON dynstat_uvel_mean            =  -9.1945031782313E-05
(PID.TID 0000.0001) %MON dynstat_uvel_sd              =   2.3325128376018E-04
(PID.TID 0000.0001) %MON dynstat_uvel_del2            =   7.0557069142516E-05
(PID.TID 0000.0001) %MON dynstat_vvel_max             =   9.4428359488843E-03
(PID.TID 0000.0001) %MON dynstat_vvel_min             =  -2.7212993889297E-04
(PID.TID 0000.0001) %MON dynstat_vvel_mean            =   1.8469712470834E-04
(PID.TID 0000.0001) %MON dynstat_vvel_sd              =   1.2832208592690E-03
(PID.TID 0000.0001) %MON dynstat_vvel_del2            =   1.0773627013089E-04
(PID.TID 0000.0001) %MON dynstat_wvel_max             =   7.7706229986552E-07
(PID.TID 0000.0001) %MON dynstat_wvel_min             =  -5.4722955498665E-07
(PID.TID 0000.0001) %MON dynstat_wvel_mean            =  -1.4668075640007E-09
(PID.TID 0000.0001) %MON dynstat_wvel_sd              =   4.4348937005757E-07
(PID.TID 0000.0001) %MON dynstat_wvel_del2            =   2.6970363237352E-07
(PID.TID 0000.0001) %MON dynstat_theta_max            =   4.0000000000000E+00
(PID.TID 0000.0001) %MON dynstat_theta_min            =   4.0000000000000E+00
(PID.TID 0000.0001) %MON dynstat_theta_mean           =   4.0000000000000E+00
(PID.TID 0000.0001) %MON dynstat_theta_sd             =   0.0000000000000E+00
(PID.TID 0000.0001) %MON dynstat_theta_del2           =   0.0000000000000E+00
(PID.TID 0000.0001) %MON dynstat_salt_max             =   3.5000000000000E+01
(PID.TID 0000.0001) %MON dynstat_salt_min             =   3.5000000000000E+01
(PID.TID 0000.0001) %MON dynstat_salt_mean            =   3.5000000000000E+01
(PID.TID 0000.0001) %MON dynstat_salt_sd              =   0.0000000000000E+00
(PID.TID 0000.0001) %MON dynstat_salt_del2            =   0.0000000000000E+00
(PID.TID 0000.0001) %MON dynstat_sst_max              =   4.0000000000000E+00
(PID.TID 0000.0001) %MON dynstat_sst_min              =   4.0000000000000E+00
(PID.TID 0000.0001) %MON dynstat_sst_mean             =   4.0000000000000E+00
(PID.TID 0000.0001) %MON dynstat_sst_sd               =   0.0000000000000E+00
(PID.TID 0000.0001) %MON dynstat_sst_del2             =   0.0000000000000E+00
(PID.TID 0000.0001) %MON dynstat_sss_max              =   3.5000000000000E+01
(PID.TID 0000.0001) %MON dynstat_sss_min              =   3.5000000000000E+01
(PID.TID 0000.0001) %MON dynstat_sss_mean             =   3.5000000000000E+01
(PID.TID 0000.0001) %MON dynstat_sss_sd               =   0.0000000000000E+00
(PID.TID 0000.0001) %MON dynstat_sss_del2             =   0.0000000000000E+00
(PID.TID 0000.0001) %MON extforcing_qnet_max          =   0.0000000000000E+00
(PID.TID 0000.0001) %MON extforcing_qnet_min          =   0.0000000000000E+00
(PID.TID 0000.0001) %MON extforcing_qnet_mean         =   0.0000000000000E+00
(PID.TID 0000.0001) %MON extforcing_qnet_sd           =   0.0000000000000E+00
(PID.TID 0000.0001) %MON extforcing_qnet_del2         =   0.0000000000000E+00
(PID.TID 0000.0001) %MON extforcing_qsw_max           =   0.0000000000000E+00
(PID.TID 0000.0001) %MON extforcing_qsw_min           =   0.0000000000000E+00
(PID.TID 0000.0001) %MON extforcing_qsw_mean          =   0.0000000000000E+00
(PID.TID 0000.0001) %MON extforcing_qsw_sd            =   0.0000000000000E+00
(PID.TID 0000.0001) %MON extforcing_qsw_del2          =   0.0000000000000E+00
(PID.TID 0000.0001) %MON extforcing_empmr_max         =   0.0000000000000E+00
(PID.TID 0000.0001) %MON extforcing_empmr_min         =   0.0000000000000E+00
(PID.TID 0000.0001) %MON extforcing_empmr_mean        =   0.0000000000000E+00
(PID.TID 0000.0001) %MON extforcing_empmr_sd          =   0.0000000000000E+00
(PID.TID 0000.0001) %MON extforcing_empmr_del2        =   0.0000000000000E+00
(PID.TID 0000.0001) %MON extforcing_fu_max            =   1.0000000000000E-01
(PID.TID 0000.0001) %MON extforcing_fu_min            =   1.0000000000000E-01
(PID.TID 0000.0001) %MON extforcing_fu_mean           =   1.0000000000000E-01
(PID.TID 0000.0001) %MON extforcing_fu_sd             =   0.0000000000000E+00
(PID.TID 0000.0001) %MON extforcing_fu_del2           =   0.0000000000000E+00
(PID.TID 0000.0001) %MON extforcing_fv_max            =   0.0000000000000E+00
(PID.TID 0000.0001) %MON extforcing_fv_min            =   0.0000000000000E+00
(PID.TID 0000.0001) %MON extforcing_fv_mean           =   0.0000000000000E+00
(PID.TID 0000.0001) %MON extforcing_fv_sd             =   0.0000000000000E+00
(PID.TID 0000.0001) %MON extforcing_fv_del2           =   0.0000000000000E+00
(PID.TID 0000.0001) %MON advcfl_uvel_max              =   2.4038631034814E-05
(PID.TID 0000.0001) %MON advcfl_vvel_max              =   1.6997104707992E-04
(PID.TID 0000.0001) %MON advcfl_wvel_max              =   1.1315088799900E-05
(PID.TID 0000.0001) %MON advcfl_W_hf_max              =   2.3932013322200E-05
(PID.TID 0000.0001) %MON pe_b_mean                    =   1.5723723947903E-10
(PID.TID 0000.0001) %MON ke_max                       =   4.0584505745738E-05
(PID.TID 0000.0001) %MON ke_mean                      =   8.7181442589187E-07
(PID.TID 0000.0001) %MON ke_vol                       =   4.4009158039362E+15
(PID.TID 0000.0001) %MON vort_r_min                   =  -2.8775123940579E-09
(PID.TID 0000.0001) %MON vort_r_max                   =   5.2151226602445E-09
(PID.TID 0000.0001) %MON vort_a_mean                  =  -1.1390240000000E-04
(PID.TID 0000.0001) %MON vort_a_sd                    =   3.7032252555489E-06
(PID.TID 0000.0001) %MON vort_p_mean                  =  -1.5528913309106E-04
(PID.TID 0000.0001) %MON vort_p_sd                    =   4.1188129149871E-05
(PID.TID 0000.0001) %MON surfExpan_theta_mean         =  -8.5942887917963E-08
(PID.TID 0000.0001) %MON surfExpan_salt_mean          =  -7.5200026928218E-07
(PID.TID 0000.0001) // =======================================================
(PID.TID 0000.0001) // End MONITOR dynamic field statistics
(PID.TID 0000.0001) // =======================================================
 cg2d: Sum(rhs),rhsMax =  -1.45590348225886E+00  3.13272230350787E-03
(PID.TID 0000.0001)                    cg2d_init_res =    7.71253611967984E-02
(PID.TID 0000.0001)                       cg2d_iters =    14
(PID.TID 0000.0001)                         cg2d_res =    6.10707544711295E-14
(PID.TID 0000.0001) // =======================================================
(PID.TID 0000.0001) // Begin MONITOR dynamic field statistics
(PID.TID 0000.0001) // =======================================================
(PID.TID 0000.0001) %MON time_tsnumber                =                    96
(PID.TID 0000.0001) %MON time_secondsf                =   3.4560000000000E+05
(PID.TID 0000.0001) %MON dynstat_eta_max              =   4.3540139046999E-04
(PID.TID 0000.0001) %MON dynstat_eta_min              =   1.5177995273528E-04
(PID.TID 0000.0001) %MON dynstat_eta_mean             =   2.9554899692864E-04
(PID.TID 0000.0001) %MON dynstat_eta_sd               =   8.7582153729850E-05
(PID.TID 0000.0001) %MON dynstat_eta_del2             =   3.3397692677575E-05
(PID.TID 0000.0001) %MON dynstat_uvel_max             =   1.0547673190852E-04
(PID.TID 0000.0001) %MON dynstat_uvel_min             =  -1.0166241929416E-03
(PID.TID 0000.0001) %MON dynstat_uvel_mean            =  -7.4708936166460E-05
(PID.TID 0000.0001) %MON dynstat_uvel_sd              =   1.8260190025298E-04
(PID.TID 0000.0001) %MON dynstat_uvel_del2            =   6.8265658333070E-05
(PID.TID 0000.0001) %MON dynstat_vvel_max             =   9.1004496269361E-03
(PID.TID 0000.0001) %MON dynstat_vvel_min             =  -5.5615174574910E-04
(PID.TID 0000.0001) %MON dynstat_vvel_mean            =   1.4635828282634E-04
(PID.TID 0000.0001) %MON dynstat_vvel_sd              =   1.2316145137127E-03
(PID.TID 0000.0001) %MON dynstat_vvel_del2            =   1.1090568439417E-04
(PID.TID 0000.0001) %MON dynstat_wvel_max             =   8.6771950095179E-07
(PID.TID 0000.0001) %MON dynstat_wvel_min             =  -7.3379675236532E-07
(PID.TID 0000.0001) %MON dynstat_wvel_mean            =  -2.2853756596266E-09
(PID.TID 0000.0001) %MON dynstat_wvel_sd              =   5.1863476637447E-07
(PID.TID 0000.0001) %MON dynstat_wvel_del2            =   2.8347207729230E-07
(PID.TID 0000.0001) %MON dynstat_theta_max            =   4.0000000000000E+00
(PID.TID 0000.0001) %MON dynstat_theta_min            =   4.0000000000000E+00
(PID.TID 0000.0001) %MON dynstat_theta_mean           =   4.0000000000000E+00
(PID.TID 0000.0001) %MON dynstat_theta_sd             =   0.0000000000000E+00
(PID.TID 0000.0001) %MON dynstat_theta_del2           =   0.0000000000000E+00
(PID.TID 0000.0001) %MON dynstat_salt_max             =   3.5000000000000E+01
(PID.TID 0000.0001) %MON dynstat_salt_min             =   3.5000000000000E+01
(PID.TID 0000.0001) %MON dynstat_salt_mean            =   3.5000000000000E+01
(PID.TID 0000.0001) %MON dynstat_salt_sd              =   0.0000000000000E+00
(PID.TID 0000.0001) %MON dynstat_salt_del2            =   0.0000000000000E+00
(PID.TID 0000.0001) %MON dynstat_sst_max              =   4.0000000000000E+00
(PID.TID 0000.0001) %MON dynstat_sst_min              =   4.0000000000000E+00
(PID.TID 0000.0001) %MON dynstat_sst_mean             =   4.0000000000000E+00
(PID.TID 0000.0001) %MON dynstat_sst_sd               =   0.0000000000000E+00
(PID.TID 0000.0001) %MON dynstat_sst_del2             =   0.0000000000000E+00
(PID.TID 0000.0001) %MON dynstat_sss_max              =   3.5000000000000E+01
(PID.TID 0000.0001) %MON dynstat_sss_min              =   3.5000000000000E+01
(PID.TID 0000.0001) %MON dynstat_sss_mean             =   3.5000000000000E+01
(PID.TID 0000.0001) %MON dynstat_sss_sd               =   0.0000000000000E+00
(PID.TID 0000.0001) %MON dynstat_sss_del2             =   0.0000000000000E+00
(PID.TID 0000.0001) %MON extforcing_qnet_max          =   0.0000000000000E+00
(PID.TID 0000.0001) %MON extforcing_qnet_min          =   0.0000000000000E+00
(PID.TID 0000.0001) %MON extforcing_qnet_mean         =   0.0000000000000E+00
(PID.TID 0000.0001) %MON extforcing_qnet_sd           =   0.0000000000000E+00
(PID.TID 0000.0001) %MON extforcing_qnet_del2         =   0.0000000000000E+00
(PID.TID 0000.0001) %MON extforcing_qsw_max           =   0.0000000000000E+00
(PID.TID 0000.0001) %MON extforcing_qsw_min           =   0.0000000000000E+00
(PID.TID 0000.0001) %MON extforcing_qsw_mean          =   0.0000000000000E+00
(PID.TID 0000.0001) %MON extforcing_qsw_sd            =   0.0000000000000E+00
(PID.TID 0000.0001) %MON extforcing_qsw_del2          =   0.0000000000000E+00
(PID.TID 0000.0001) %MON extforcing_empmr_max         =   0.0000000000000E+00
(PID.TID 0000.0001) %MON extforcing_empmr_min         =   0.0000000000000E+00
(PID.TID 0000.0001) %MON extforcing_empmr_mean        =   0.0000000000000E+00
(PID.TID 0000.0001) %MON extforcing_empmr_sd          =   0.0000000000000E+00
(PID.TID 0000.0001) %MON extforcing_empmr_del2        =   0.0000000000000E+00
(PID.TID 0000.0001) %MON extforcing_fu_max            =   1.0000000000000E-01
(PID.TID 0000.0001) %MON extforcing_fu_min            =   1.0000000000000E-01
(PID.TID 0000.0001) %MON extforcing_fu_mean           =   1.0000000000000E-01
(PID.TID 0000.0001) %MON extforcing_fu_sd             =   0.0000000000000E+00
(PID.TID 0000.0001) %MON extforcing_fu_del2           =   0.0000000000000E+00
(PID.TID 0000.0001) %MON extforcing_fv_max            =   0.0000000000000E+00
(PID.TID 0000.0001) %MON extforcing_fv_min            =   0.0000000000000E+00
(PID.TID 0000.0001) %MON extforcing_fv_mean           =   0.0000000000000E+00
(PID.TID 0000.0001) %MON extforcing_fv_sd             =   0.0000000000000E+00
(PID.TID 0000.0001) %MON extforcing_fv_del2           =   0.0000000000000E+00
(PID.TID 0000.0001) %MON advcfl_uvel_max              =   1.8299235472948E-05
(PID.TID 0000.0001) %MON advcfl_vvel_max              =   1.6380809328485E-04
(PID.TID 0000.0001) %MON advcfl_wvel_max              =   1.1491019749850E-05
(PID.TID 0000.0001) %MON advcfl_W_hf_max              =   2.5123399139359E-05
(PID.TID 0000.0001) %MON pe_b_mean                    =   1.0590348732939E-10
(PID.TID 0000.0001) %MON ke_max                       =   3.7093135033999E-05
(PID.TID 0000.0001) %MON ke_mean                      =   7.8860996822939E-07
(PID.TID 0000.0001) %MON ke_vol                       =   4.4009158039362E+15
(PID.TID 0000.0001) %MON vort_r_min                   =  -2.7508815049675E-09
(PID.TID 0000.0001) %MON vort_r_max                   =   4.7827003924125E-09
(PID.TID 0000.0001) %MON vort_a_mean                  =  -1.1390240000000E-04
(PID.TID 0000.0001) %MON vort_a_sd                    =   3.7032261674733E-06
(PID.TID 0000.0001) %MON vort_p_mean                  =  -1.5528913309106E-04
(PID.TID 0000.0001) %MON vort_p_sd                    =   4.1188128001331E-05
(PID.TID 0000.0001) %MON surfExpan_theta_mean         =  -7.7406009240662E-08
(PID.TID 0000.0001) %MON surfExpan_salt_mean          =  -6.7730258085579E-07
(PID.TID 0000.0001) // =======================================================
(PID.TID 0000.0001) // End MONITOR dynamic field statistics
(PID.TID 0000.0001) // =======================================================
 cg2d: Sum(rhs),rhsMax =  -1.25508069255493E+00  3.03818418537005E-03
(PID.TID 0000.0001)                    cg2d_init_res =    7.58649264304490E-02
(PID.TID 0000.0001)                       cg2d_iters =    14
(PID.TID 0000.0001)                         cg2d_res =    5.59867787917291E-14
(PID.TID 0000.0001) // =======================================================
(PID.TID 0000.0001) // Begin MONITOR dynamic field statistics
(PID.TID 0000.0001) // =======================================================
(PID.TID 0000.0001) %MON time_tsnumber                =                    97
(PID.TID 0000.0001) %MON time_secondsf                =   3.4920000000000E+05
(PID.TID 0000.0001) %MON dynstat_eta_max              =   3.8399141776428E-04
(PID.TID 0000.0001) %MON dynstat_eta_min              =   1.0500299229053E-04
(PID.TID 0000.0001) %MON dynstat_eta_mean             =   2.4709317698414E-04
(PID.TID 0000.0001) %MON dynstat_eta_sd               =   8.5977244913680E-05
(PID.TID 0000.0001) %MON dynstat_eta_del2             =   3.3059572052549E-05
(PID.TID 0000.0001) %MON dynstat_uvel_max             =   3.2819271161456E-04
(PID.TID 0000.0001) %MON dynstat_uvel_min             =  -5.2618352723219E-04
(PID.TID 0000.0001) %MON dynstat_uvel_mean            =  -4.2938424094527E-05
(PID.TID 0000.0001) %MON dynstat_uvel_sd              =   1.1323096934877E-04
(PID.TID 0000.0001) %MON dynstat_uvel_del2            =   6.5631419982454E-05
(PID.TID 0000.0001) %MON dynstat_vvel_max             =   8.8838444544567E-03
(PID.TID 0000.0001) %MON dynstat_vvel_min             =  -7.3519088526132E-04
(PID.TID 0000.0001) %MON dynstat_vvel_mean            =   1.1958582173979E-04
(PID.TID 0000.0001) %MON dynstat_vvel_sd              =   1.2021758216554E-03
(PID.TID 0000.0001) %MON dynstat_vvel_del2            =   1.1305488893293E-04
(PID.TID 0000.0001) %MON dynstat_wvel_max             =   9.1527411004261E-07
(PID.TID 0000.0001) %MON dynstat_wvel_min             =  -8.5871455798482E-07
(PID.TID 0000.0001) %MON dynstat_wvel_mean            =  -2.6759691759405E-09
(PID.TID 0000.0001) %MON dynstat_wvel_sd              =   5.7117725356877E-07
(PID.TID 0000.0001) %MON dynstat_wvel_del2            =   2.9257368446197E-07
(PID.TID 0000.0001) %MON dynstat_theta_max            =   4.0000000000000E+00
(PID.TID 0000.0001) %MON dynstat_theta_min            =   4.0000000000000E+00
(PID.TID 0000.0001) %MON dynstat_theta_mean           =   4.0000000000000E+00
(PID.TID 0000.0001) %MON dynstat_theta_sd             =   0.0000000000000E+00
(PID.TID 0000.0001) %MON dynstat_theta_del2           =   0.0000000000000E+00
(PID.TID 0000.0001) %MON dynstat_salt_max             =   3.5000000000000E+01
(PID.TID 0000.0001) %MON dynstat_salt_min             =   3.5000000000000E+01
(PID.TID 0000.0001) %MON dynstat_salt_mean            =   3.5000000000000E+01
(PID.TID 0000.0001) %MON dynstat_salt_sd              =   0.0000000000000E+00
(PID.TID 0000.0001) %MON dynstat_salt_del2            =   0.0000000000000E+00
(PID.TID 0000.0001) %MON dynstat_sst_max              =   4.0000000000000E+00
(PID.TID 0000.0001) %MON dynstat_sst_min              =   4.0000000000000E+00
(PID.TID 0000.0001) %MON dynstat_sst_mean             =   4.0000000000000E+00
(PID.TID 0000.0001) %MON dynstat_sst_sd               =   0.0000000000000E+00
(PID.TID 0000.0001) %MON dynstat_sst_del2             =   0.0000000000000E+00
(PID.TID 0000.0001) %MON dynstat_sss_max              =   3.5000000000000E+01
(PID.TID 0000.0001) %MON dynstat_sss_min              =   3.5000000000000E+01
(PID.TID 0000.0001) %MON dynstat_sss_mean             =   3.5000000000000E+01
(PID.TID 0000.0001) %MON dynstat_sss_sd               =   0.0000000000000E+00
(PID.TID 0000.0001) %MON dynstat_sss_del2             =   0.0000000000000E+00
(PID.TID 0000.0001) %MON extforcing_qnet_max          =   0.0000000000000E+00
(PID.TID 0000.0001) %MON extforcing_qnet_min          =   0.0000000000000E+00
(PID.TID 0000.0001) %MON extforcing_qnet_mean         =   0.0000000000000E+00
(PID.TID 0000.0001) %MON extforcing_qnet_sd           =   0.0000000000000E+00
(PID.TID 0000.0001) %MON extforcing_qnet_del2         =   0.0000000000000E+00
(PID.TID 0000.0001) %MON extforcing_qsw_max           =   0.0000000000000E+00
(PID.TID 0000.0001) %MON extforcing_qsw_min           =   0.0000000000000E+00
(PID.TID 0000.0001) %MON extforcing_qsw_mean          =   0.0000000000000E+00
(PID.TID 0000.0001) %MON extforcing_qsw_sd            =   0.0000000000000E+00
(PID.TID 0000.0001) %MON extforcing_qsw_del2          =   0.0000000000000E+00
(PID.TID 0000.0001) %MON extforcing_empmr_max         =   0.0000000000000E+00
(PID.TID 0000.0001) %MON extforcing_empmr_min         =   0.0000000000000E+00
(PID.TID 0000.0001) %MON extforcing_empmr_mean        =   0.0000000000000E+00
(PID.TID 0000.0001) %MON extforcing_empmr_sd          =   0.0000000000000E+00
(PID.TID 0000.0001) %MON extforcing_empmr_del2        =   0.0000000000000E+00
(PID.TID 0000.0001) %MON extforcing_fu_max            =   1.0000000000000E-01
(PID.TID 0000.0001) %MON extforcing_fu_min            =   1.0000000000000E-01
(PID.TID 0000.0001) %MON extforcing_fu_mean           =   1.0000000000000E-01
(PID.TID 0000.0001) %MON extforcing_fu_sd             =   0.0000000000000E+00
(PID.TID 0000.0001) %MON extforcing_fu_del2           =   0.0000000000000E+00
(PID.TID 0000.0001) %MON extforcing_fv_max            =   0.0000000000000E+00
(PID.TID 0000.0001) %MON extforcing_fv_min            =   0.0000000000000E+00
(PID.TID 0000.0001) %MON extforcing_fv_mean           =   0.0000000000000E+00
(PID.TID 0000.0001) %MON extforcing_fv_sd             =   0.0000000000000E+00
(PID.TID 0000.0001) %MON extforcing_fv_del2           =   0.0000000000000E+00
(PID.TID 0000.0001) %MON advcfl_uvel_max              =   9.4713034901795E-06
(PID.TID 0000.0001) %MON advcfl_vvel_max              =   1.5990920018022E-04
(PID.TID 0000.0001) %MON advcfl_wvel_max              =   1.1711630506384E-05
(PID.TID 0000.0001) %MON advcfl_W_hf_max              =   2.5932378437839E-05
(PID.TID 0000.0001) %MON pe_b_mean                    =   7.6287109747318E-11
(PID.TID 0000.0001) %MON ke_max                       =   3.5069463879417E-05
(PID.TID 0000.0001) %MON ke_mean                      =   7.3709621780876E-07
(PID.TID 0000.0001) %MON ke_vol                       =   4.4009158039362E+15
(PID.TID 0000.0001) %MON vort_r_min                   =  -2.6101293710543E-09
(PID.TID 0000.0001) %MON vort_r_max                   =   4.1553444049166E-09
(PID.TID 0000.0001) %MON vort_a_mean                  =  -1.1390240000000E-04
(PID.TID 0000.0001) %MON vort_a_sd                    =   3.7032280224401E-06
(PID.TID 0000.0001) %MON vort_p_mean                  =  -1.5528913309106E-04
(PID.TID 0000.0001) %MON vort_p_sd                    =   4.1188126791980E-05
(PID.TID 0000.0001) %MON surfExpan_theta_mean         =  -5.3839799938327E-08
(PID.TID 0000.0001) %MON surfExpan_salt_mean          =  -4.7109824946036E-07
(PID.TID 0000.0001) // =======================================================
(PID.TID 0000.0001) // End MONITOR dynamic field statistics
(PID.TID 0000.0001) // =======================================================
 cg2d: Sum(rhs),rhsMax =  -1.20874902175834E+00  2.92305993444262E-03
(PID.TID 0000.0001)                    cg2d_init_res =    8.93540412197578E-02
(PID.TID 0000.0001)                       cg2d_iters =    14
(PID.TID 0000.0001)                         cg2d_res =    3.94305130187757E-14
(PID.TID 0000.0001) // =======================================================
(PID.TID 0000.0001) // Begin MONITOR dynamic field statistics
(PID.TID 0000.0001) // =======================================================
(PID.TID 0000.0001) %MON time_tsnumber                =                    98
(PID.TID 0000.0001) %MON time_secondsf                =   3.5280000000000E+05
(PID.TID 0000.0001) %MON dynstat_eta_max              =   3.6090183689233E-04
(PID.TID 0000.0001) %MON dynstat_eta_min              =   8.9754220046463E-05
(PID.TID 0000.0001) %MON dynstat_eta_mean             =   2.2895433019214E-04
(PID.TID 0000.0001) %MON dynstat_eta_sd               =   8.3369926093439E-05
(PID.TID 0000.0001) %MON dynstat_eta_del2             =   3.2336750432589E-05
(PID.TID 0000.0001) %MON dynstat_uvel_max             =   7.4971365755374E-04
(PID.TID 0000.0001) %MON dynstat_uvel_min             =  -1.3681390346089E-04
(PID.TID 0000.0001) %MON dynstat_uvel_mean            =  -3.1392990794400E-06
(PID.TID 0000.0001) %MON dynstat_uvel_sd              =   9.2928772789963E-05
(PID.TID 0000.0001) %MON dynstat_uvel_del2            =   6.3395344006854E-05
(PID.TID 0000.0001) %MON dynstat_vvel_max             =   8.8324998203039E-03
(PID.TID 0000.0001) %MON dynstat_vvel_min             =  -7.7596564499827E-04
(PID.TID 0000.0001) %MON dynstat_vvel_mean            =   1.0942602054108E-04
(PID.TID 0000.0001) %MON dynstat_vvel_sd              =   1.1964726491990E-03
(PID.TID 0000.0001) %MON dynstat_vvel_del2            =   1.1295276393756E-04
(PID.TID 0000.0001) %MON dynstat_wvel_max             =   9.1175651945986E-07
(PID.TID 0000.0001) %MON dynstat_wvel_min             =  -9.0014652079312E-07
(PID.TID 0000.0001) %MON dynstat_wvel_mean            =  -2.5692762593052E-09
(PID.TID 0000.0001) %MON dynstat_wvel_sd              =   5.8439590873546E-07
(PID.TID 0000.0001) %MON dynstat_wvel_del2            =   2.9536166455373E-07
(PID.TID 0000.0001) %MON dynstat_theta_max            =   4.0000000000000E+00
(PID.TID 0000.0001) %MON dynstat_theta_min            =   4.0000000000000E+00
(PID.TID 0000.0001) %MON dynstat_theta_mean           =   4.0000000000000E+00
(PID.TID 0000.0001) %MON dynstat_theta_sd             =   0.0000000000000E+00
(PID.TID 0000.0001) %MON dynstat_theta_del2           =   0.0000000000000E+00
(PID.TID 0000.0001) %MON dynstat_salt_max             =   3.5000000000000E+01
(PID.TID 0000.0001) %MON dynstat_salt_min             =   3.5000000000000E+01
(PID.TID 0000.0001) %MON dynstat_salt_mean            =   3.5000000000000E+01
(PID.TID 0000.0001) %MON dynstat_salt_sd              =   0.0000000000000E+00
(PID.TID 0000.0001) %MON dynstat_salt_del2            =   0.0000000000000E+00
(PID.TID 0000.0001) %MON dynstat_sst_max              =   4.0000000000000E+00
(PID.TID 0000.0001) %MON dynstat_sst_min              =   4.0000000000000E+00
(PID.TID 0000.0001) %MON dynstat_sst_mean             =   4.0000000000000E+00
(PID.TID 0000.0001) %MON dynstat_sst_sd               =   0.0000000000000E+00
(PID.TID 0000.0001) %MON dynstat_sst_del2             =   0.0000000000000E+00
(PID.TID 0000.0001) %MON dynstat_sss_max              =   3.5000000000000E+01
(PID.TID 0000.0001) %MON dynstat_sss_min              =   3.5000000000000E+01
(PID.TID 0000.0001) %MON dynstat_sss_mean             =   3.5000000000000E+01
(PID.TID 0000.0001) %MON dynstat_sss_sd               =   0.0000000000000E+00
(PID.TID 0000.0001) %MON dynstat_sss_del2             =   0.0000000000000E+00
(PID.TID 0000.0001) %MON extforcing_qnet_max          =   0.0000000000000E+00
(PID.TID 0000.0001) %MON extforcing_qnet_min          =   0.0000000000000E+00
(PID.TID 0000.0001) %MON extforcing_qnet_mean         =   0.0000000000000E+00
(PID.TID 0000.0001) %MON extforcing_qnet_sd           =   0.0000000000000E+00
(PID.TID 0000.0001) %MON extforcing_qnet_del2         =   0.0000000000000E+00
(PID.TID 0000.0001) %MON extforcing_qsw_max           =   0.0000000000000E+00
(PID.TID 0000.0001) %MON extforcing_qsw_min           =   0.0000000000000E+00
(PID.TID 0000.0001) %MON extforcing_qsw_mean          =   0.0000000000000E+00
(PID.TID 0000.0001) %MON extforcing_qsw_sd            =   0.0000000000000E+00
(PID.TID 0000.0001) %MON extforcing_qsw_del2          =   0.0000000000000E+00
(PID.TID 0000.0001) %MON extforcing_empmr_max         =   0.0000000000000E+00
(PID.TID 0000.0001) %MON extforcing_empmr_min         =   0.0000000000000E+00
(PID.TID 0000.0001) %MON extforcing_empmr_mean        =   0.0000000000000E+00
(PID.TID 0000.0001) %MON extforcing_empmr_sd          =   0.0000000000000E+00
(PID.TID 0000.0001) %MON extforcing_empmr_del2        =   0.0000000000000E+00
(PID.TID 0000.0001) %MON extforcing_fu_max            =   1.0000000000000E-01
(PID.TID 0000.0001) %MON extforcing_fu_min            =   1.0000000000000E-01
(PID.TID 0000.0001) %MON extforcing_fu_mean           =   1.0000000000000E-01
(PID.TID 0000.0001) %MON extforcing_fu_sd             =   0.0000000000000E+00
(PID.TID 0000.0001) %MON extforcing_fu_del2           =   0.0000000000000E+00
(PID.TID 0000.0001) %MON extforcing_fv_max            =   0.0000000000000E+00
(PID.TID 0000.0001) %MON extforcing_fv_min            =   0.0000000000000E+00
(PID.TID 0000.0001) %MON extforcing_fv_mean           =   0.0000000000000E+00
(PID.TID 0000.0001) %MON extforcing_fv_sd             =   0.0000000000000E+00
(PID.TID 0000.0001) %MON extforcing_fv_del2           =   0.0000000000000E+00
(PID.TID 0000.0001) %MON advcfl_uvel_max              =   1.3494845835967E-05
(PID.TID 0000.0001) %MON advcfl_vvel_max              =   1.5898499676547E-04
(PID.TID 0000.0001) %MON advcfl_wvel_max              =   1.1949974126507E-05
(PID.TID 0000.0001) %MON advcfl_W_hf_max              =   2.6221373303017E-05
(PID.TID 0000.0001) %MON pe_b_mean                    =   6.6170986355323E-11
(PID.TID 0000.0001) %MON ke_max                       =   3.4850247430651E-05
(PID.TID 0000.0001) %MON ke_mean                      =   7.2608323313190E-07
(PID.TID 0000.0001) %MON ke_vol                       =   4.4009158039362E+15
(PID.TID 0000.0001) %MON vort_r_min                   =  -2.5194917050257E-09
(PID.TID 0000.0001) %MON vort_r_max                   =   3.4602306110072E-09
(PID.TID 0000.0001) %MON vort_a_mean                  =  -1.1390240000000E-04
(PID.TID 0000.0001) %MON vort_a_sd                    =   3.7032303903823E-06
(PID.TID 0000.0001) %MON vort_p_mean                  =  -1.5528913309106E-04
(PID.TID 0000.0001) %MON vort_p_sd                    =   4.1188125559783E-05
(PID.TID 0000.0001) %MON surfExpan_theta_mean         =  -2.0154274213334E-08
(PID.TID 0000.0001) %MON surfExpan_salt_mean          =  -1.7634989936667E-07
(PID.TID 0000.0001) // =======================================================
(PID.TID 0000.0001) // End MONITOR dynamic field statistics
(PID.TID 0000.0001) // =======================================================
 cg2d: Sum(rhs),rhsMax =  -1.34034308737610E+00  2.81059307777592E-03
(PID.TID 0000.0001)                    cg2d_init_res =    1.06556290296965E-01
(PID.TID 0000.0001)                       cg2d_iters =    14
(PID.TID 0000.0001)                         cg2d_res =    1.60914175575523E-14
(PID.TID 0000.0001) // =======================================================
(PID.TID 0000.0001) // Begin MONITOR dynamic field statistics
(PID.TID 0000.0001) // =======================================================
(PID.TID 0000.0001) %MON time_tsnumber                =                    99
(PID.TID 0000.0001) %MON time_secondsf                =   3.5640000000000E+05
(PID.TID 0000.0001) %MON dynstat_eta_max              =   3.7015262353060E-04
(PID.TID 0000.0001) %MON dynstat_eta_min              =   1.0826865861104E-04
(PID.TID 0000.0001) %MON dynstat_eta_mean             =   2.4411190340892E-04
(PID.TID 0000.0001) %MON dynstat_eta_sd               =   8.0401738923711E-05
(PID.TID 0000.0001) %MON dynstat_eta_del2             =   3.1383132057987E-05
(PID.TID 0000.0001) %MON dynstat_uvel_max             =   1.1435025833720E-03
(PID.TID 0000.0001) %MON dynstat_uvel_min             =  -1.4015789869048E-04
(PID.TID 0000.0001) %MON dynstat_uvel_mean            =   3.6723326824278E-05
(PID.TID 0000.0001) %MON dynstat_uvel_sd              =   1.5468501296810E-04
(PID.TID 0000.0001) %MON dynstat_uvel_del2            =   6.2376513183195E-05
(PID.TID 0000.0001) %MON dynstat_vvel_max             =   8.9519568112053E-03
(PID.TID 0000.0001) %MON dynstat_vvel_min             =  -6.7291785724320E-04
(PID.TID 0000.0001) %MON dynstat_vvel_mean            =   1.1756937890309E-04
(PID.TID 0000.0001) %MON dynstat_vvel_sd              =   1.2138089037126E-03
(PID.TID 0000.0001) %MON dynstat_vvel_del2            =   1.1064333817088E-04
(PID.TID 0000.0001) %MON dynstat_wvel_max             =   8.5883520951937E-07
(PID.TID 0000.0001) %MON dynstat_wvel_min             =  -8.5250458868543E-07
(PID.TID 0000.0001) %MON dynstat_wvel_mean            =  -1.9937934561572E-09
(PID.TID 0000.0001) %MON dynstat_wvel_sd              =   5.5552346442025E-07
(PID.TID 0000.0001) %MON dynstat_wvel_del2            =   2.9145690162408E-07
(PID.TID 0000.0001) %MON dynstat_theta_max            =   4.0000000000000E+00
(PID.TID 0000.0001) %MON dynstat_theta_min            =   4.0000000000000E+00
(PID.TID 0000.0001) %MON dynstat_theta_mean           =   4.0000000000000E+00
(PID.TID 0000.0001) %MON dynstat_theta_sd             =   0.0000000000000E+00
(PID.TID 0000.0001) %MON dynstat_theta_del2           =   0.0000000000000E+00
(PID.TID 0000.0001) %MON dynstat_salt_max             =   3.5000000000000E+01
(PID.TID 0000.0001) %MON dynstat_salt_min             =   3.5000000000000E+01
(PID.TID 0000.0001) %MON dynstat_salt_mean            =   3.5000000000000E+01
(PID.TID 0000.0001) %MON dynstat_salt_sd              =   0.0000000000000E+00
(PID.TID 0000.0001) %MON dynstat_salt_del2            =   0.0000000000000E+00
(PID.TID 0000.0001) %MON dynstat_sst_max              =   4.0000000000000E+00
(PID.TID 0000.0001) %MON dynstat_sst_min              =   4.0000000000000E+00
(PID.TID 0000.0001) %MON dynstat_sst_mean             =   4.0000000000000E+00
(PID.TID 0000.0001) %MON dynstat_sst_sd               =   0.0000000000000E+00
(PID.TID 0000.0001) %MON dynstat_sst_del2             =   0.0000000000000E+00
(PID.TID 0000.0001) %MON dynstat_sss_max              =   3.5000000000000E+01
(PID.TID 0000.0001) %MON dynstat_sss_min              =   3.5000000000000E+01
(PID.TID 0000.0001) %MON dynstat_sss_mean             =   3.5000000000000E+01
(PID.TID 0000.0001) %MON dynstat_sss_sd               =   0.0000000000000E+00
(PID.TID 0000.0001) %MON dynstat_sss_del2             =   0.0000000000000E+00
(PID.TID 0000.0001) %MON extforcing_qnet_max          =   0.0000000000000E+00
(PID.TID 0000.0001) %MON extforcing_qnet_min          =   0.0000000000000E+00
(PID.TID 0000.0001) %MON extforcing_qnet_mean         =   0.0000000000000E+00
(PID.TID 0000.0001) %MON extforcing_qnet_sd           =   0.0000000000000E+00
(PID.TID 0000.0001) %MON extforcing_qnet_del2         =   0.0000000000000E+00
(PID.TID 0000.0001) %MON extforcing_qsw_max           =   0.0000000000000E+00
(PID.TID 0000.0001) %MON extforcing_qsw_min           =   0.0000000000000E+00
(PID.TID 0000.0001) %MON extforcing_qsw_mean          =   0.0000000000000E+00
(PID.TID 0000.0001) %MON extforcing_qsw_sd            =   0.0000000000000E+00
(PID.TID 0000.0001) %MON extforcing_qsw_del2          =   0.0000000000000E+00
(PID.TID 0000.0001) %MON extforcing_empmr_max         =   0.0000000000000E+00
(PID.TID 0000.0001) %MON extforcing_empmr_min         =   0.0000000000000E+00
(PID.TID 0000.0001) %MON extforcing_empmr_mean        =   0.0000000000000E+00
(PID.TID 0000.0001) %MON extforcing_empmr_sd          =   0.0000000000000E+00
(PID.TID 0000.0001) %MON extforcing_empmr_del2        =   0.0000000000000E+00
(PID.TID 0000.0001) %MON extforcing_fu_max            =   1.0000000000000E-01
(PID.TID 0000.0001) %MON extforcing_fu_min            =   1.0000000000000E-01
(PID.TID 0000.0001) %MON extforcing_fu_mean           =   1.0000000000000E-01
(PID.TID 0000.0001) %MON extforcing_fu_sd             =   0.0000000000000E+00
(PID.TID 0000.0001) %MON extforcing_fu_del2           =   0.0000000000000E+00
(PID.TID 0000.0001) %MON extforcing_fv_max            =   0.0000000000000E+00
(PID.TID 0000.0001) %MON extforcing_fv_min            =   0.0000000000000E+00
(PID.TID 0000.0001) %MON extforcing_fv_mean           =   0.0000000000000E+00
(PID.TID 0000.0001) %MON extforcing_fv_sd             =   0.0000000000000E+00
(PID.TID 0000.0001) %MON extforcing_fv_del2           =   0.0000000000000E+00
(PID.TID 0000.0001) %MON advcfl_uvel_max              =   2.0583046500696E-05
(PID.TID 0000.0001) %MON advcfl_vvel_max              =   1.6113522260170E-04
(PID.TID 0000.0001) %MON advcfl_wvel_max              =   1.2178743333182E-05
(PID.TID 0000.0001) %MON advcfl_W_hf_max              =   2.5951550804289E-05
(PID.TID 0000.0001) %MON pe_b_mean                    =   7.3621057224925E-11
(PID.TID 0000.0001) %MON ke_max                       =   3.6418714589314E-05
(PID.TID 0000.0001) %MON ke_mean                      =   7.5621533477879E-07
(PID.TID 0000.0001) %MON ke_vol                       =   4.4009158039362E+15
(PID.TID 0000.0001) %MON vort_r_min                   =  -2.7335305191176E-09
(PID.TID 0000.0001) %MON vort_r_max                   =   2.8311171583744E-09
(PID.TID 0000.0001) %MON vort_a_mean                  =  -1.1390240000000E-04
(PID.TID 0000.0001) %MON vort_a_sd                    =   3.7032327160664E-06
(PID.TID 0000.0001) %MON vort_p_mean                  =  -1.5528913309106E-04
(PID.TID 0000.0001) %MON vort_p_sd                    =   4.1188124335680E-05
(PID.TID 0000.0001) %MON surfExpan_theta_mean         =   1.6841748018640E-08
(PID.TID 0000.0001) %MON surfExpan_salt_mean          =   1.4736529516310E-07
(PID.TID 0000.0001) // =======================================================
(PID.TID 0000.0001) // End MONITOR dynamic field statistics
(PID.TID 0000.0001) // =======================================================
 cg2d: Sum(rhs),rhsMax =  -1.62624329945763E+00  2.74190571580753E-03
(PID.TID 0000.0001)                    cg2d_init_res =    1.15312870669778E-01
(PID.TID 0000.0001)                       cg2d_iters =    14
(PID.TID 0000.0001)                         cg2d_res =    1.58748842369774E-14
(PID.TID 0000.0001) // =======================================================
(PID.TID 0000.0001) // Begin MONITOR dynamic field statistics
(PID.TID 0000.0001) // =======================================================
(PID.TID 0000.0001) %MON time_tsnumber                =                   100
(PID.TID 0000.0001) %MON time_secondsf                =   3.6000000000000E+05
(PID.TID 0000.0001) %MON dynstat_eta_max              =   4.0933310627565E-04
(PID.TID 0000.0001) %MON dynstat_eta_min              =   1.5609833802491E-04
(PID.TID 0000.0001) %MON dynstat_eta_mean             =   2.8894357571536E-04
(PID.TID 0000.0001) %MON dynstat_eta_sd               =   7.7717630041504E-05
(PID.TID 0000.0001) %MON dynstat_eta_del2             =   3.0827836097861E-05
(PID.TID 0000.0001) %MON dynstat_uvel_max             =   1.4329005369072E-03
(PID.TID 0000.0001) %MON dynstat_uvel_min             =  -1.4037450758550E-04
(PID.TID 0000.0001) %MON dynstat_uvel_mean            =   6.8816555969925E-05
(PID.TID 0000.0001) %MON dynstat_uvel_sd              =   2.1724771718069E-04
(PID.TID 0000.0001) %MON dynstat_uvel_del2            =   6.2162709818998E-05
(PID.TID 0000.0001) %MON dynstat_vvel_max             =   9.2137593976022E-03
(PID.TID 0000.0001) %MON dynstat_vvel_min             =  -4.4882579302709E-04
(PID.TID 0000.0001) %MON dynstat_vvel_mean            =   1.4207939745610E-04
(PID.TID 0000.0001) %MON dynstat_vvel_sd              =   1.2522557610953E-03
(PID.TID 0000.0001) %MON dynstat_vvel_del2            =   1.0736753318460E-04
(PID.TID 0000.0001) %MON dynstat_wvel_max             =   7.6729441894058E-07
(PID.TID 0000.0001) %MON dynstat_wvel_min             =  -7.2714683861388E-07
(PID.TID 0000.0001) %MON dynstat_wvel_mean            =  -1.0693765944512E-09
(PID.TID 0000.0001) %MON dynstat_wvel_sd              =   4.9488709501933E-07
(PID.TID 0000.0001) %MON dynstat_wvel_del2            =   2.8212106861323E-07
(PID.TID 0000.0001) %MON dynstat_theta_max            =   4.0000000000000E+00
(PID.TID 0000.0001) %MON dynstat_theta_min            =   4.0000000000000E+00
(PID.TID 0000.0001) %MON dynstat_theta_mean           =   4.0000000000000E+00
(PID.TID 0000.0001) %MON dynstat_theta_sd             =   0.0000000000000E+00
(PID.TID 0000.0001) %MON dynstat_theta_del2           =   0.0000000000000E+00
(PID.TID 0000.0001) %MON dynstat_salt_max             =   3.5000000000000E+01
(PID.TID 0000.0001) %MON dynstat_salt_min             =   3.5000000000000E+01
(PID.TID 0000.0001) %MON dynstat_salt_mean            =   3.5000000000000E+01
(PID.TID 0000.0001) %MON dynstat_salt_sd              =   0.0000000000000E+00
(PID.TID 0000.0001) %MON dynstat_salt_del2            =   0.0000000000000E+00
(PID.TID 0000.0001) %MON dynstat_sst_max              =   4.0000000000000E+00
(PID.TID 0000.0001) %MON dynstat_sst_min              =   4.0000000000000E+00
(PID.TID 0000.0001) %MON dynstat_sst_mean             =   4.0000000000000E+00
(PID.TID 0000.0001) %MON dynstat_sst_sd               =   0.0000000000000E+00
(PID.TID 0000.0001) %MON dynstat_sst_del2             =   0.0000000000000E+00
(PID.TID 0000.0001) %MON dynstat_sss_max              =   3.5000000000000E+01
(PID.TID 0000.0001) %MON dynstat_sss_min              =   3.5000000000000E+01
(PID.TID 0000.0001) %MON dynstat_sss_mean             =   3.5000000000000E+01
(PID.TID 0000.0001) %MON dynstat_sss_sd               =   0.0000000000000E+00
(PID.TID 0000.0001) %MON dynstat_sss_del2             =   0.0000000000000E+00
(PID.TID 0000.0001) %MON extforcing_qnet_max          =   0.0000000000000E+00
(PID.TID 0000.0001) %MON extforcing_qnet_min          =   0.0000000000000E+00
(PID.TID 0000.0001) %MON extforcing_qnet_mean         =   0.0000000000000E+00
(PID.TID 0000.0001) %MON extforcing_qnet_sd           =   0.0000000000000E+00
(PID.TID 0000.0001) %MON extforcing_qnet_del2         =   0.0000000000000E+00
(PID.TID 0000.0001) %MON extforcing_qsw_max           =   0.0000000000000E+00
(PID.TID 0000.0001) %MON extforcing_qsw_min           =   0.0000000000000E+00
(PID.TID 0000.0001) %MON extforcing_qsw_mean          =   0.0000000000000E+00
(PID.TID 0000.0001) %MON extforcing_qsw_sd            =   0.0000000000000E+00
(PID.TID 0000.0001) %MON extforcing_qsw_del2          =   0.0000000000000E+00
(PID.TID 0000.0001) %MON extforcing_empmr_max         =   0.0000000000000E+00
(PID.TID 0000.0001) %MON extforcing_empmr_min         =   0.0000000000000E+00
(PID.TID 0000.0001) %MON extforcing_empmr_mean        =   0.0000000000000E+00
(PID.TID 0000.0001) %MON extforcing_empmr_sd          =   0.0000000000000E+00
(PID.TID 0000.0001) %MON extforcing_empmr_del2        =   0.0000000000000E+00
(PID.TID 0000.0001) %MON extforcing_fu_max            =   1.0000000000000E-01
(PID.TID 0000.0001) %MON extforcing_fu_min            =   1.0000000000000E-01
(PID.TID 0000.0001) %MON extforcing_fu_mean           =   1.0000000000000E-01
(PID.TID 0000.0001) %MON extforcing_fu_sd             =   0.0000000000000E+00
(PID.TID 0000.0001) %MON extforcing_fu_del2           =   0.0000000000000E+00
(PID.TID 0000.0001) %MON extforcing_fv_max            =   0.0000000000000E+00
(PID.TID 0000.0001) %MON extforcing_fv_min            =   0.0000000000000E+00
(PID.TID 0000.0001) %MON extforcing_fv_mean           =   0.0000000000000E+00
(PID.TID 0000.0001) %MON extforcing_fv_sd             =   0.0000000000000E+00
(PID.TID 0000.0001) %MON extforcing_fv_del2           =   0.0000000000000E+00
(PID.TID 0000.0001) %MON advcfl_uvel_max              =   2.5792209664329E-05
(PID.TID 0000.0001) %MON advcfl_vvel_max              =   1.6584766915684E-04
(PID.TID 0000.0001) %MON advcfl_wvel_max              =   1.2374954604192E-05
(PID.TID 0000.0001) %MON advcfl_W_hf_max              =   2.5186906308019E-05
(PID.TID 0000.0001) %MON pe_b_mean                    =   9.9783072319325E-11
(PID.TID 0000.0001) %MON ke_max                       =   3.9420092533630E-05
(PID.TID 0000.0001) %MON ke_mean                      =   8.2013166768686E-07
(PID.TID 0000.0001) %MON ke_vol                       =   4.4009158039362E+15
(PID.TID 0000.0001) %MON vort_r_min                   =  -2.8764874235869E-09
(PID.TID 0000.0001) %MON vort_r_max                   =   2.3828920777020E-09
(PID.TID 0000.0001) %MON vort_a_mean                  =  -1.1390240000000E-04
(PID.TID 0000.0001) %MON vort_a_sd                    =   3.7032344333132E-06
(PID.TID 0000.0001) %MON vort_p_mean                  =  -1.5528913309106E-04
(PID.TID 0000.0001) %MON vort_p_sd                    =   4.1188123138606E-05
(PID.TID 0000.0001) %MON surfExpan_theta_mean         =   4.9812969229381E-08
(PID.TID 0000.0001) %MON surfExpan_salt_mean          =   4.3586348075708E-07
(PID.TID 0000.0001) // =======================================================
(PID.TID 0000.0001) // End MONITOR dynamic field statistics
(PID.TID 0000.0001) // =======================================================
(PID.TID 0000.0001) %CHECKPOINT       100 ckptA
 --> objf_test(bi,bj)   =  0.509071982061515E-01
 --> objf_tracer(bi,bj) =  0.000000000000000E+00
 --> objf_atl(bi,bj)    =  0.000000000000000E+00
  local fc =  0.509071982061515E-01
 global fc =  0.509071982061515E-01
 cg2d: Sum(rhs),rhsMax =   0.00000000000000E+00  0.00000000000000E+00
 cg2d: Sum(rhs),rhsMax =  -2.49999999999996E+01  6.03492218443698E-05
 cg2d: Sum(rhs),rhsMax =  -1.81034404639062E+01  2.18766023587219E-04
 cg2d: Sum(rhs),rhsMax =  -1.54955562832148E+01  4.32479836297446E-04
 cg2d: Sum(rhs),rhsMax =  -1.41111452329496E+01  6.49958988323414E-04
 cg2d: Sum(rhs),rhsMax =  -1.31144322332613E+01  8.30737102828387E-04
 cg2d: Sum(rhs),rhsMax =  -1.21209090325389E+01  9.52510661965281E-04
 cg2d: Sum(rhs),rhsMax =  -1.07124742372069E+01  1.02806631163207E-03
 cg2d: Sum(rhs),rhsMax =  -7.41375936665711E+00  1.27086596334071E-03
 cg2d: Sum(rhs),rhsMax =  -4.70217533455406E+00  1.51019014093808E-03
 cg2d: Sum(rhs),rhsMax =  -2.72440685927919E+00  1.65833738310010E-03
 cg2d: Sum(rhs),rhsMax =  -1.27958669047302E+00  1.70565508827134E-03
 cg2d: Sum(rhs),rhsMax =  -3.29564699152491E-01  1.66071960615390E-03
 cg2d: Sum(rhs),rhsMax =   5.21320406654746E-02  1.54812756163631E-03
 cg2d: Sum(rhs),rhsMax =  -2.86625374400475E-01  1.40338816101555E-03
 cg2d: Sum(rhs),rhsMax =  -1.30315843370179E+00  1.44268599687867E-03
 cg2d: Sum(rhs),rhsMax =  -2.68067690299420E+00  1.50836886631255E-03
 cg2d: Sum(rhs),rhsMax =  -4.07407453351537E+00  1.58424366916569E-03
 cg2d: Sum(rhs),rhsMax =  -5.18272347948927E+00  1.66593592879081E-03
 cg2d: Sum(rhs),rhsMax =  -5.80990598228070E+00  1.74846175380777E-03
 cg2d: Sum(rhs),rhsMax =  -5.87740627497557E+00  1.82725971218557E-03
 cg2d: Sum(rhs),rhsMax =  -5.41358311299285E+00  1.89900434709077E-03
 cg2d: Sum(rhs),rhsMax =  -4.53080676713550E+00  1.96213934573591E-03
 cg2d: Sum(rhs),rhsMax =  -3.22587898908483E+00  2.12611202720459E-03
 cg2d: Sum(rhs),rhsMax =  -2.04447211883235E+00  2.24837953875887E-03
 cg2d: Sum(rhs),rhsMax =  -1.10818137305921E+00  2.30404049287479E-03
 cg2d: Sum(rhs),rhsMax =  -4.90484880946305E-01  2.29576532537696E-03
 cg2d: Sum(rhs),rhsMax =  -2.61247064583445E-01  2.23814842293958E-03
 cg2d: Sum(rhs),rhsMax =  -4.50921969321535E-01  2.26266907028511E-03
 cg2d: Sum(rhs),rhsMax =  -1.00469610672032E+00  2.31946123117386E-03
 cg2d: Sum(rhs),rhsMax =  -1.78565331428754E+00  2.37599941654386E-03
 cg2d: Sum(rhs),rhsMax =  -2.62429308819157E+00  2.42805543472491E-03
 cg2d: Sum(rhs),rhsMax =  -3.35748486680838E+00  2.47123045079745E-03
 cg2d: Sum(rhs),rhsMax =  -3.85508917834425E+00  2.50195598359617E-03
 cg2d: Sum(rhs),rhsMax =  -4.03589978211298E+00  2.51830322545865E-03
 cg2d: Sum(rhs),rhsMax =  -3.87512848171546E+00  2.52047519086830E-03
 cg2d: Sum(rhs),rhsMax =  -3.40600368805600E+00  2.51092921751124E-03
 cg2d: Sum(rhs),rhsMax =  -2.61682443313491E+00  2.58874087416428E-03
 cg2d: Sum(rhs),rhsMax =  -1.83238712200568E+00  2.61669730048878E-03
 cg2d: Sum(rhs),rhsMax =  -1.17513338209904E+00  2.56005946296686E-03
 cg2d: Sum(rhs),rhsMax =  -7.11994618995375E-01  2.47855830238830E-03
 cg2d: Sum(rhs),rhsMax =  -5.26422152819422E-01  2.47042092565892E-03
 cg2d: Sum(rhs),rhsMax =  -6.78930216954431E-01  2.49676870345939E-03
 cg2d: Sum(rhs),rhsMax =  -1.12673722382132E+00  2.53652611463688E-03
 cg2d: Sum(rhs),rhsMax =  -1.75981625889742E+00  2.58504763845508E-03
 cg2d: Sum(rhs),rhsMax =  -2.43940636469665E+00  2.63568090232621E-03
 cg2d: Sum(rhs),rhsMax =  -3.03203010255963E+00  2.68092813759027E-03
 cg2d: Sum(rhs),rhsMax =  -3.40991311853895E+00  2.73286304448479E-03
 cg2d: Sum(rhs),rhsMax =  -3.48046023235813E+00  2.80943922930572E-03
 cg2d: Sum(rhs),rhsMax =  -3.32063073087968E+00  2.84054009236553E-03
 cg2d: Sum(rhs),rhsMax =  -2.96079447598354E+00  2.82589058192357E-03
 cg2d: Sum(rhs),rhsMax =  -2.32992811105143E+00  2.92147975447442E-03
 cg2d: Sum(rhs),rhsMax =  -1.72242456195865E+00  2.94384963610313E-03
 cg2d: Sum(rhs),rhsMax =  -1.21221903664747E+00  2.89157780595210E-03
 cg2d: Sum(rhs),rhsMax =  -8.69698394722446E-01  2.78046458206125E-03
 cg2d: Sum(rhs),rhsMax =  -7.64867805246178E-01  2.63730950806144E-03
 cg2d: Sum(rhs),rhsMax =  -9.31747849420069E-01  2.54529703304591E-03
 cg2d: Sum(rhs),rhsMax =  -1.31074338891562E+00  2.59464768533879E-03
 cg2d: Sum(rhs),rhsMax =  -1.82960843215037E+00  2.67470088166806E-03
 cg2d: Sum(rhs),rhsMax =  -2.36415409295801E+00  2.77096212192829E-03
 cg2d: Sum(rhs),rhsMax =  -2.80794779573480E+00  2.86583706110111E-03
 cg2d: Sum(rhs),rhsMax =  -3.09076538041143E+00  2.94225354196761E-03
 cg2d: Sum(rhs),rhsMax =  -3.17911023925362E+00  2.98708407054007E-03
 cg2d: Sum(rhs),rhsMax =  -3.06968980756676E+00  2.99369701908629E-03
 cg2d: Sum(rhs),rhsMax =  -2.74200030638382E+00  3.00868116540025E-03
 cg2d: Sum(rhs),rhsMax =  -2.22987018400976E+00  3.08320497040955E-03
 cg2d: Sum(rhs),rhsMax =  -1.72892384261745E+00  3.09216603140173E-03
 cg2d: Sum(rhs),rhsMax =  -1.30661126211157E+00  3.03707924765660E-03
 cg2d: Sum(rhs),rhsMax =  -1.02724587665588E+00  2.93201255430206E-03
 cg2d: Sum(rhs),rhsMax =  -9.49612083397459E-01  2.80059569221643E-03
 cg2d: Sum(rhs),rhsMax =  -1.10546681688713E+00  2.68802011902946E-03
 cg2d: Sum(rhs),rhsMax =  -1.41911846031704E+00  2.73183503865474E-03
 cg2d: Sum(rhs),rhsMax =  -1.85263652552146E+00  2.80075124009607E-03
 cg2d: Sum(rhs),rhsMax =  -2.30607105577735E+00  2.88121984326693E-03
 cg2d: Sum(rhs),rhsMax =  -2.69038333389264E+00  2.95745898573297E-03
 cg2d: Sum(rhs),rhsMax =  -2.94313285401577E+00  3.01465309603792E-03
 cg2d: Sum(rhs),rhsMax =  -3.03123924248593E+00  3.04190025811532E-03
 cg2d: Sum(rhs),rhsMax =  -2.94785322566254E+00  3.03433140059537E-03
 cg2d: Sum(rhs),rhsMax =  -2.61356655263080E+00  3.10365978565920E-03
 cg2d: Sum(rhs),rhsMax =  -2.18161317311311E+00  3.16115505489440E-03
 cg2d: Sum(rhs),rhsMax =  -1.75526123517825E+00  3.15966313972236E-03
 cg2d: Sum(rhs),rhsMax =  -1.39603742971191E+00  3.10114912749769E-03
 cg2d: Sum(rhs),rhsMax =  -1.16177139472067E+00  2.99876546018409E-03
 cg2d: Sum(rhs),rhsMax =  -1.10293746482209E+00  2.87411083831751E-03
 cg2d: Sum(rhs),rhsMax =  -1.24975133363519E+00  2.75286355082882E-03
 cg2d: Sum(rhs),rhsMax =  -1.53840868920579E+00  2.75098215542075E-03
 cg2d: Sum(rhs),rhsMax =  -1.91301872651488E+00  2.81271668012764E-03
 cg2d: Sum(rhs),rhsMax =  -2.30705941137173E+00  2.88449380033002E-03
 cg2d: Sum(rhs),rhsMax =  -2.64297554250667E+00  2.95188724418163E-03
 cg2d: Sum(rhs),rhsMax =  -2.86495130756344E+00  3.00154117451826E-03
 cg2d: Sum(rhs),rhsMax =  -2.94238810044230E+00  3.02377925014881E-03
 cg2d: Sum(rhs),rhsMax =  -2.84207312153502E+00  3.04217207355397E-03
 cg2d: Sum(rhs),rhsMax =  -2.51902174703873E+00  3.13830805734543E-03
 cg2d: Sum(rhs),rhsMax =  -2.14123729035296E+00  3.18959324319445E-03
 cg2d: Sum(rhs),rhsMax =  -1.76835917692949E+00  3.18714933359249E-03
 cg2d: Sum(rhs),rhsMax =  -1.45590348225886E+00  3.13272230350787E-03
 cg2d: Sum(rhs),rhsMax =  -1.25508069255493E+00  3.03818418537005E-03
 cg2d: Sum(rhs),rhsMax =  -1.20874902175834E+00  2.92305993444262E-03
 cg2d: Sum(rhs),rhsMax =  -1.34034308737610E+00  2.81059307777592E-03
 cg2d: Sum(rhs),rhsMax =  -1.62624329945763E+00  2.74190571580753E-03
(PID.TID 0000.0001) %CHECKPOINT       100 ckptB
(PID.TID 0000.0001) %CHECKPOINT       100 ckptA
(PID.TID 0000.0001) %CHECKPOINT       100 ckptB
(PID.TID 0000.0001)  MDS_READ_FIELD: opening global file: noWalls.bigRidge
(PID.TID 0000.0001) // =======================================================
(PID.TID 0000.0001) // Field Model R_low (ini_masks_etc) at iteration          1
(PID.TID 0000.0001) // CMIN =         -5.000000000000000E+03
(PID.TID 0000.0001) // CMAX =         -2.000000000000000E+03
(PID.TID 0000.0001) // CINT =          1.111111111111111E+02
(PID.TID 0000.0001) // SYMBOLS (CMIN->CMAX): -abcdefghijklmnopqrstuvwxyz+
(PID.TID 0000.0001) //                  0.0: .
(PID.TID 0000.0001) // RANGE I (Lo:Hi:Step):(  -1:   7:   1)
(PID.TID 0000.0001) // RANGE J (Lo:Hi:Step):(   7:  -1:  -1)
(PID.TID 0000.0001) // RANGE K (Lo:Hi:Step):(   1:   1:   1)
(PID.TID 0000.0001) // =======================================================
(PID.TID 0000.0001) K =   1
(PID.TID 0000.0001) //
(PID.TID 0000.0001) // |--J--|101234567
(PID.TID 0000.0001) //      7 ----+----
(PID.TID 0000.0001) //      6 ----+----
(PID.TID 0000.0001) //      5 ----+----
(PID.TID 0000.0001) //      4 ----+----
(PID.TID 0000.0001) //      3 ----+----
(PID.TID 0000.0001) //      2 ----+----
(PID.TID 0000.0001) //      1 ----+----
(PID.TID 0000.0001) //      0 ----+----
(PID.TID 0000.0001) //     -1 ----+----
(PID.TID 0000.0001) // =======================================================
(PID.TID 0000.0001) // END OF FIELD                                          =
(PID.TID 0000.0001) // =======================================================
(PID.TID 0000.0001) 
(PID.TID 0000.0001) // =======================================================
(PID.TID 0000.0001) // Field Model Ro_surf (ini_masks_etc) at iteration          1
(PID.TID 0000.0001) // CMIN =          1.000000000000000E+32
(PID.TID 0000.0001) // CMAX =         -1.000000000000000E+32
(PID.TID 0000.0001) // CINT =          0.000000000000000E+00
(PID.TID 0000.0001) // SYMBOLS (CMIN->CMAX): -abcdefghijklmnopqrstuvwxyz+
(PID.TID 0000.0001) //                  0.0: .
(PID.TID 0000.0001) // RANGE I (Lo:Hi:Step):(  -1:   7:   1)
(PID.TID 0000.0001) // RANGE J (Lo:Hi:Step):(   7:  -1:  -1)
(PID.TID 0000.0001) // RANGE K (Lo:Hi:Step):(   1:   1:   1)
(PID.TID 0000.0001) // =======================================================
(PID.TID 0000.0001) // =======================================================
(PID.TID 0000.0001) // END OF FIELD                                          =
(PID.TID 0000.0001) // =======================================================
(PID.TID 0000.0001) 
(PID.TID 0000.0001) // =======================================================
(PID.TID 0000.0001) // Field hFacC at iteration          1
(PID.TID 0000.0001) // CMIN =          1.000000000000000E+00
(PID.TID 0000.0001) // CMAX =          1.000000000000000E+00
(PID.TID 0000.0001) // CINT =          0.000000000000000E+00
(PID.TID 0000.0001) // SYMBOLS (CMIN->CMAX): -abcdefghijklmnopqrstuvwxyz+
(PID.TID 0000.0001) //                  0.0: .
(PID.TID 0000.0001) // RANGE I (Lo:Hi:Step):(  -1:   7:   1)
(PID.TID 0000.0001) // RANGE J (Lo:Hi:Step):(   7:  -1:  -1)
(PID.TID 0000.0001) // RANGE K (Lo:Hi:Step):(   1:   1:   1)
(PID.TID 0000.0001) // =======================================================
(PID.TID 0000.0001) // =======================================================
(PID.TID 0000.0001) // END OF FIELD                                          =
(PID.TID 0000.0001) // =======================================================
(PID.TID 0000.0001) 
(PID.TID 0000.0001) // =======================================================
(PID.TID 0000.0001) // Field hFacW at iteration          1
(PID.TID 0000.0001) // CMIN =          1.000000000000000E+00
(PID.TID 0000.0001) // CMAX =          1.000000000000000E+00
(PID.TID 0000.0001) // CINT =          0.000000000000000E+00
(PID.TID 0000.0001) // SYMBOLS (CMIN->CMAX): -abcdefghijklmnopqrstuvwxyz+
(PID.TID 0000.0001) //                  0.0: .
(PID.TID 0000.0001) // RANGE I (Lo:Hi:Step):(  -1:   7:   1)
(PID.TID 0000.0001) // RANGE J (Lo:Hi:Step):(   7:  -1:  -1)
(PID.TID 0000.0001) // RANGE K (Lo:Hi:Step):(   1:   1:   1)
(PID.TID 0000.0001) // =======================================================
(PID.TID 0000.0001) // =======================================================
(PID.TID 0000.0001) // END OF FIELD                                          =
(PID.TID 0000.0001) // =======================================================
(PID.TID 0000.0001) 
(PID.TID 0000.0001) // =======================================================
(PID.TID 0000.0001) // Field hFacS at iteration          1
(PID.TID 0000.0001) // CMIN =          1.000000000000000E+00
(PID.TID 0000.0001) // CMAX =          1.000000000000000E+00
(PID.TID 0000.0001) // CINT =          0.000000000000000E+00
(PID.TID 0000.0001) // SYMBOLS (CMIN->CMAX): -abcdefghijklmnopqrstuvwxyz+
(PID.TID 0000.0001) //                  0.0: .
(PID.TID 0000.0001) // RANGE I (Lo:Hi:Step):(  -1:   7:   1)
(PID.TID 0000.0001) // RANGE J (Lo:Hi:Step):(   7:  -1:  -1)
(PID.TID 0000.0001) // RANGE K (Lo:Hi:Step):(   1:   1:   1)
(PID.TID 0000.0001) // =======================================================
(PID.TID 0000.0001) // =======================================================
(PID.TID 0000.0001) // END OF FIELD                                          =
(PID.TID 0000.0001) // =======================================================
(PID.TID 0000.0001) 
                     ctrl_depth_ini: ctrl update R_low,
                                     adding the control vector.
(PID.TID 0000.0001)  MDS_READ_FIELD: opening file: xx_depth.0000000000.001.001.data
(PID.TID 0000.0001) // =======================================================
(PID.TID 0000.0001) // Field Model Ro_surf (update_masks_etc) at iteration          1
(PID.TID 0000.0001) // CMIN =          1.000000000000000E+32
(PID.TID 0000.0001) // CMAX =         -1.000000000000000E+32
(PID.TID 0000.0001) // CINT =          0.000000000000000E+00
(PID.TID 0000.0001) // SYMBOLS (CMIN->CMAX): -abcdefghijklmnopqrstuvwxyz+
(PID.TID 0000.0001) //                  0.0: .
(PID.TID 0000.0001) // RANGE I (Lo:Hi:Step):(  -1:   7:   1)
(PID.TID 0000.0001) // RANGE J (Lo:Hi:Step):(   7:  -1:  -1)
(PID.TID 0000.0001) // RANGE K (Lo:Hi:Step):(   1:   1:   1)
(PID.TID 0000.0001) // =======================================================
(PID.TID 0000.0001) // =======================================================
(PID.TID 0000.0001) // END OF FIELD                                          =
(PID.TID 0000.0001) // =======================================================
(PID.TID 0000.0001) 
(PID.TID 0000.0001) // =======================================================
(PID.TID 0000.0001) // Field hFacC at iteration          1
(PID.TID 0000.0001) // CMIN =          1.000000000000000E+00
(PID.TID 0000.0001) // CMAX =          1.000000000000000E+00
(PID.TID 0000.0001) // CINT =          0.000000000000000E+00
(PID.TID 0000.0001) // SYMBOLS (CMIN->CMAX): -abcdefghijklmnopqrstuvwxyz+
(PID.TID 0000.0001) //                  0.0: .
(PID.TID 0000.0001) // RANGE I (Lo:Hi:Step):(  -1:   7:   1)
(PID.TID 0000.0001) // RANGE J (Lo:Hi:Step):(   7:  -1:  -1)
(PID.TID 0000.0001) // RANGE K (Lo:Hi:Step):(   1:   1:   1)
(PID.TID 0000.0001) // =======================================================
(PID.TID 0000.0001) // =======================================================
(PID.TID 0000.0001) // END OF FIELD                                          =
(PID.TID 0000.0001) // =======================================================
(PID.TID 0000.0001) 
(PID.TID 0000.0001) // =======================================================
(PID.TID 0000.0001) // Field hFacW at iteration          1
(PID.TID 0000.0001) // CMIN =          1.000000000000000E+00
(PID.TID 0000.0001) // CMAX =          1.000000000000000E+00
(PID.TID 0000.0001) // CINT =          0.000000000000000E+00
(PID.TID 0000.0001) // SYMBOLS (CMIN->CMAX): -abcdefghijklmnopqrstuvwxyz+
(PID.TID 0000.0001) //                  0.0: .
(PID.TID 0000.0001) // RANGE I (Lo:Hi:Step):(  -1:   7:   1)
(PID.TID 0000.0001) // RANGE J (Lo:Hi:Step):(   7:  -1:  -1)
(PID.TID 0000.0001) // RANGE K (Lo:Hi:Step):(   1:   1:   1)
(PID.TID 0000.0001) // =======================================================
(PID.TID 0000.0001) // =======================================================
(PID.TID 0000.0001) // END OF FIELD                                          =
(PID.TID 0000.0001) // =======================================================
(PID.TID 0000.0001) 
(PID.TID 0000.0001) // =======================================================
(PID.TID 0000.0001) // Field hFacS at iteration          1
(PID.TID 0000.0001) // CMIN =          1.000000000000000E+00
(PID.TID 0000.0001) // CMAX =          1.000000000000000E+00
(PID.TID 0000.0001) // CINT =          0.000000000000000E+00
(PID.TID 0000.0001) // SYMBOLS (CMIN->CMAX): -abcdefghijklmnopqrstuvwxyz+
(PID.TID 0000.0001) //                  0.0: .
(PID.TID 0000.0001) // RANGE I (Lo:Hi:Step):(  -1:   7:   1)
(PID.TID 0000.0001) // RANGE J (Lo:Hi:Step):(   7:  -1:  -1)
(PID.TID 0000.0001) // RANGE K (Lo:Hi:Step):(   1:   1:   1)
(PID.TID 0000.0001) // =======================================================
(PID.TID 0000.0001) // =======================================================
(PID.TID 0000.0001) // END OF FIELD                                          =
(PID.TID 0000.0001) // =======================================================
(PID.TID 0000.0001) 
(PID.TID 0000.0001) // =======================================================
(PID.TID 0000.0001) // Field Initial Temperature at iteration          1
(PID.TID 0000.0001) // CMIN =          4.000000000000000E+00
(PID.TID 0000.0001) // CMAX =          4.000000000000000E+00
(PID.TID 0000.0001) // CINT =          0.000000000000000E+00
(PID.TID 0000.0001) // SYMBOLS (CMIN->CMAX): -abcdefghijklmnopqrstuvwxyz+
(PID.TID 0000.0001) //                  0.0: .
(PID.TID 0000.0001) // RANGE I (Lo:Hi:Step):(   1:   5:   1)
(PID.TID 0000.0001) // RANGE J (Lo:Hi:Step):(   5:   1:  -1)
(PID.TID 0000.0001) // RANGE K (Lo:Hi:Step):(   1:   1:   1)
(PID.TID 0000.0001) // =======================================================
(PID.TID 0000.0001) // =======================================================
(PID.TID 0000.0001) // END OF FIELD                                          =
(PID.TID 0000.0001) // =======================================================
(PID.TID 0000.0001) 
(PID.TID 0000.0001) // =======================================================
(PID.TID 0000.0001) // Field Initial Salinity at iteration          1
(PID.TID 0000.0001) // CMIN =          3.500000000000000E+01
(PID.TID 0000.0001) // CMAX =          3.500000000000000E+01
(PID.TID 0000.0001) // CINT =          0.000000000000000E+00
(PID.TID 0000.0001) // SYMBOLS (CMIN->CMAX): -abcdefghijklmnopqrstuvwxyz+
(PID.TID 0000.0001) //                  0.0: .
(PID.TID 0000.0001) // RANGE I (Lo:Hi:Step):(   1:   5:   1)
(PID.TID 0000.0001) // RANGE J (Lo:Hi:Step):(   5:   1:  -1)
(PID.TID 0000.0001) // RANGE K (Lo:Hi:Step):(   1:   1:   1)
(PID.TID 0000.0001) // =======================================================
(PID.TID 0000.0001) // =======================================================
(PID.TID 0000.0001) // END OF FIELD                                          =
(PID.TID 0000.0001) // =======================================================
(PID.TID 0000.0001) 
(PID.TID 0000.0001) Start initial hydrostatic pressure computation
(PID.TID 0000.0001) Pressure is predetermined for buoyancyRelation OCEANIC
(PID.TID 0000.0001) 
(PID.TID 0000.0001)  MDS_READ_FIELD: opening file: adxx_depth.0000000000.001.001.data
 ph-pack: packing ecco_cost
(PID.TID 0000.0001)  MDSREADFIELD_GL: opening file: maskCtrlC.001.001.data
(PID.TID 0000.0001)  MDSREADFIELD_GL: opening file: adxx_depth.0000000000.001.001.data
 ph-pack: packing ecco_ctrl
(PID.TID 0000.0001)  MDSREADFIELD_GL: opening file: maskCtrlC.001.001.data
(PID.TID 0000.0001)  MDSREADFIELD_GL: opening file: xx_depth.0000000000.001.001.data
 ph-check entering grdchk_main 
 ph-check fcref =   0.0509071982
grad-res -------------------------------
 grad-res  proc    #    i    j    k   bi   bj iobc               fc ref           fc + eps           fc - eps
 grad-res  proc    #    i    j    k   bi   bj iobc             adj grad            fd grad         1 - fd/adj
 ph-grd -->hit<--  1 1 1 1
(PID.TID 0000.0001)  MDS_READ_FIELD: opening file: adxx_depth.0000000000.001.001.data
(PID.TID 0000.0001)  MDS_READ_FIELD: opening file: xx_depth.0000000000.001.001.data
(PID.TID 0000.0001)  MDS_READ_FIELD: opening global file: noWalls.bigRidge
(PID.TID 0000.0001) // =======================================================
(PID.TID 0000.0001) // Field Model R_low (ini_masks_etc) at iteration          1
(PID.TID 0000.0001) // CMIN =         -5.000000000000000E+03
(PID.TID 0000.0001) // CMAX =         -2.000000000000000E+03
(PID.TID 0000.0001) // CINT =          1.111111111111111E+02
(PID.TID 0000.0001) // SYMBOLS (CMIN->CMAX): -abcdefghijklmnopqrstuvwxyz+
(PID.TID 0000.0001) //                  0.0: .
(PID.TID 0000.0001) // RANGE I (Lo:Hi:Step):(  -1:   7:   1)
(PID.TID 0000.0001) // RANGE J (Lo:Hi:Step):(   7:  -1:  -1)
(PID.TID 0000.0001) // RANGE K (Lo:Hi:Step):(   1:   1:   1)
(PID.TID 0000.0001) // =======================================================
(PID.TID 0000.0001) K =   1
(PID.TID 0000.0001) //
(PID.TID 0000.0001) // |--J--|101234567
(PID.TID 0000.0001) //      7 ----+----
(PID.TID 0000.0001) //      6 ----+----
(PID.TID 0000.0001) //      5 ----+----
(PID.TID 0000.0001) //      4 ----+----
(PID.TID 0000.0001) //      3 ----+----
(PID.TID 0000.0001) //      2 ----+----
(PID.TID 0000.0001) //      1 ----+----
(PID.TID 0000.0001) //      0 ----+----
(PID.TID 0000.0001) //     -1 ----+----
(PID.TID 0000.0001) // =======================================================
(PID.TID 0000.0001) // END OF FIELD                                          =
(PID.TID 0000.0001) // =======================================================
(PID.TID 0000.0001) 
(PID.TID 0000.0001) // =======================================================
(PID.TID 0000.0001) // Field Model Ro_surf (ini_masks_etc) at iteration          1
(PID.TID 0000.0001) // CMIN =          1.000000000000000E+32
(PID.TID 0000.0001) // CMAX =         -1.000000000000000E+32
(PID.TID 0000.0001) // CINT =          0.000000000000000E+00
(PID.TID 0000.0001) // SYMBOLS (CMIN->CMAX): -abcdefghijklmnopqrstuvwxyz+
(PID.TID 0000.0001) //                  0.0: .
(PID.TID 0000.0001) // RANGE I (Lo:Hi:Step):(  -1:   7:   1)
(PID.TID 0000.0001) // RANGE J (Lo:Hi:Step):(   7:  -1:  -1)
(PID.TID 0000.0001) // RANGE K (Lo:Hi:Step):(   1:   1:   1)
(PID.TID 0000.0001) // =======================================================
(PID.TID 0000.0001) // =======================================================
(PID.TID 0000.0001) // END OF FIELD                                          =
(PID.TID 0000.0001) // =======================================================
(PID.TID 0000.0001) 
(PID.TID 0000.0001) // =======================================================
(PID.TID 0000.0001) // Field hFacC at iteration          1
(PID.TID 0000.0001) // CMIN =          1.000000000000000E+00
(PID.TID 0000.0001) // CMAX =          1.000000000000000E+00
(PID.TID 0000.0001) // CINT =          0.000000000000000E+00
(PID.TID 0000.0001) // SYMBOLS (CMIN->CMAX): -abcdefghijklmnopqrstuvwxyz+
(PID.TID 0000.0001) //                  0.0: .
(PID.TID 0000.0001) // RANGE I (Lo:Hi:Step):(  -1:   7:   1)
(PID.TID 0000.0001) // RANGE J (Lo:Hi:Step):(   7:  -1:  -1)
(PID.TID 0000.0001) // RANGE K (Lo:Hi:Step):(   1:   1:   1)
(PID.TID 0000.0001) // =======================================================
(PID.TID 0000.0001) // =======================================================
(PID.TID 0000.0001) // END OF FIELD                                          =
(PID.TID 0000.0001) // =======================================================
(PID.TID 0000.0001) 
(PID.TID 0000.0001) // =======================================================
(PID.TID 0000.0001) // Field hFacW at iteration          1
(PID.TID 0000.0001) // CMIN =          1.000000000000000E+00
(PID.TID 0000.0001) // CMAX =          1.000000000000000E+00
(PID.TID 0000.0001) // CINT =          0.000000000000000E+00
(PID.TID 0000.0001) // SYMBOLS (CMIN->CMAX): -abcdefghijklmnopqrstuvwxyz+
(PID.TID 0000.0001) //                  0.0: .
(PID.TID 0000.0001) // RANGE I (Lo:Hi:Step):(  -1:   7:   1)
(PID.TID 0000.0001) // RANGE J (Lo:Hi:Step):(   7:  -1:  -1)
(PID.TID 0000.0001) // RANGE K (Lo:Hi:Step):(   1:   1:   1)
(PID.TID 0000.0001) // =======================================================
(PID.TID 0000.0001) // =======================================================
(PID.TID 0000.0001) // END OF FIELD                                          =
(PID.TID 0000.0001) // =======================================================
(PID.TID 0000.0001) 
(PID.TID 0000.0001) // =======================================================
(PID.TID 0000.0001) // Field hFacS at iteration          1
(PID.TID 0000.0001) // CMIN =          1.000000000000000E+00
(PID.TID 0000.0001) // CMAX =          1.000000000000000E+00
(PID.TID 0000.0001) // CINT =          0.000000000000000E+00
(PID.TID 0000.0001) // SYMBOLS (CMIN->CMAX): -abcdefghijklmnopqrstuvwxyz+
(PID.TID 0000.0001) //                  0.0: .
(PID.TID 0000.0001) // RANGE I (Lo:Hi:Step):(  -1:   7:   1)
(PID.TID 0000.0001) // RANGE J (Lo:Hi:Step):(   7:  -1:  -1)
(PID.TID 0000.0001) // RANGE K (Lo:Hi:Step):(   1:   1:   1)
(PID.TID 0000.0001) // =======================================================
(PID.TID 0000.0001) // =======================================================
(PID.TID 0000.0001) // END OF FIELD                                          =
(PID.TID 0000.0001) // =======================================================
(PID.TID 0000.0001) 
(PID.TID 0000.0001) %MON surfExpanfCori_max           =  -1.0735540000000E-04
(PID.TID 0000.0001) %MON surfExpanfCori_min           =  -1.1783060000000E-04
(PID.TID 0000.0001) %MON surfExpanfCori_mean          =  -1.1259300000000E-04
(PID.TID 0000.0001) %MON surfExpanfCori_sd            =   3.7035424771427E-06
(PID.TID 0000.0001) %MON surfExpanfCoriG_max          =  -1.0866480000000E-04
(PID.TID 0000.0001) %MON surfExpanfCoriG_min          =  -1.1914000000000E-04
(PID.TID 0000.0001) %MON surfExpanfCoriG_mean         =  -1.1390240000000E-04
(PID.TID 0000.0001) %MON surfExpanfCoriG_sd           =   3.7035424771427E-06
(PID.TID 0000.0001) %MON surfExpanfCoriCos_max        =   0.0000000000000E+00
(PID.TID 0000.0001) %MON surfExpanfCoriCos_min        =   0.0000000000000E+00
(PID.TID 0000.0001) %MON surfExpanfCoriCos_mean       =   0.0000000000000E+00
(PID.TID 0000.0001) %MON surfExpanfCoriCos_sd         =   0.0000000000000E+00
(PID.TID 0000.0001) INI_CG2D: CG2D normalisation factor =  1.9999999999999996E-04
(PID.TID 0000.0001) 
                     ctrl_depth_ini: ctrl update R_low,
                                     adding the control vector.
(PID.TID 0000.0001)  MDS_READ_FIELD: opening file: xx_depth.0000000000.001.001.data
(PID.TID 0000.0001) // =======================================================
(PID.TID 0000.0001) // Field Model Ro_surf (update_masks_etc) at iteration          1
(PID.TID 0000.0001) // CMIN =          1.000000000000000E+32
(PID.TID 0000.0001) // CMAX =         -1.000000000000000E+32
(PID.TID 0000.0001) // CINT =          0.000000000000000E+00
(PID.TID 0000.0001) // SYMBOLS (CMIN->CMAX): -abcdefghijklmnopqrstuvwxyz+
(PID.TID 0000.0001) //                  0.0: .
(PID.TID 0000.0001) // RANGE I (Lo:Hi:Step):(  -1:   7:   1)
(PID.TID 0000.0001) // RANGE J (Lo:Hi:Step):(   7:  -1:  -1)
(PID.TID 0000.0001) // RANGE K (Lo:Hi:Step):(   1:   1:   1)
(PID.TID 0000.0001) // =======================================================
(PID.TID 0000.0001) // =======================================================
(PID.TID 0000.0001) // END OF FIELD                                          =
(PID.TID 0000.0001) // =======================================================
(PID.TID 0000.0001) 
(PID.TID 0000.0001) // =======================================================
(PID.TID 0000.0001) // Field hFacC at iteration          1
(PID.TID 0000.0001) // CMIN =          1.000000000000000E+00
(PID.TID 0000.0001) // CMAX =          1.000000000000000E+00
(PID.TID 0000.0001) // CINT =          0.000000000000000E+00
(PID.TID 0000.0001) // SYMBOLS (CMIN->CMAX): -abcdefghijklmnopqrstuvwxyz+
(PID.TID 0000.0001) //                  0.0: .
(PID.TID 0000.0001) // RANGE I (Lo:Hi:Step):(  -1:   7:   1)
(PID.TID 0000.0001) // RANGE J (Lo:Hi:Step):(   7:  -1:  -1)
(PID.TID 0000.0001) // RANGE K (Lo:Hi:Step):(   1:   1:   1)
(PID.TID 0000.0001) // =======================================================
(PID.TID 0000.0001) // =======================================================
(PID.TID 0000.0001) // END OF FIELD                                          =
(PID.TID 0000.0001) // =======================================================
(PID.TID 0000.0001) 
(PID.TID 0000.0001) // =======================================================
(PID.TID 0000.0001) // Field hFacW at iteration          1
(PID.TID 0000.0001) // CMIN =          1.000000000000000E+00
(PID.TID 0000.0001) // CMAX =          1.000000000000000E+00
(PID.TID 0000.0001) // CINT =          0.000000000000000E+00
(PID.TID 0000.0001) // SYMBOLS (CMIN->CMAX): -abcdefghijklmnopqrstuvwxyz+
(PID.TID 0000.0001) //                  0.0: .
(PID.TID 0000.0001) // RANGE I (Lo:Hi:Step):(  -1:   7:   1)
(PID.TID 0000.0001) // RANGE J (Lo:Hi:Step):(   7:  -1:  -1)
(PID.TID 0000.0001) // RANGE K (Lo:Hi:Step):(   1:   1:   1)
(PID.TID 0000.0001) // =======================================================
(PID.TID 0000.0001) // =======================================================
(PID.TID 0000.0001) // END OF FIELD                                          =
(PID.TID 0000.0001) // =======================================================
(PID.TID 0000.0001) 
(PID.TID 0000.0001) // =======================================================
(PID.TID 0000.0001) // Field hFacS at iteration          1
(PID.TID 0000.0001) // CMIN =          1.000000000000000E+00
(PID.TID 0000.0001) // CMAX =          1.000000000000000E+00
(PID.TID 0000.0001) // CINT =          0.000000000000000E+00
(PID.TID 0000.0001) // SYMBOLS (CMIN->CMAX): -abcdefghijklmnopqrstuvwxyz+
(PID.TID 0000.0001) //                  0.0: .
(PID.TID 0000.0001) // RANGE I (Lo:Hi:Step):(  -1:   7:   1)
(PID.TID 0000.0001) // RANGE J (Lo:Hi:Step):(   7:  -1:  -1)
(PID.TID 0000.0001) // RANGE K (Lo:Hi:Step):(   1:   1:   1)
(PID.TID 0000.0001) // =======================================================
(PID.TID 0000.0001) // =======================================================
(PID.TID 0000.0001) // END OF FIELD                                          =
(PID.TID 0000.0001) // =======================================================
(PID.TID 0000.0001) 
(PID.TID 0000.0001) // =======================================================
(PID.TID 0000.0001) // Field Initial Temperature at iteration          1
(PID.TID 0000.0001) // CMIN =          4.000000000000000E+00
(PID.TID 0000.0001) // CMAX =          4.000000000000000E+00
(PID.TID 0000.0001) // CINT =          0.000000000000000E+00
(PID.TID 0000.0001) // SYMBOLS (CMIN->CMAX): -abcdefghijklmnopqrstuvwxyz+
(PID.TID 0000.0001) //                  0.0: .
(PID.TID 0000.0001) // RANGE I (Lo:Hi:Step):(   1:   5:   1)
(PID.TID 0000.0001) // RANGE J (Lo:Hi:Step):(   5:   1:  -1)
(PID.TID 0000.0001) // RANGE K (Lo:Hi:Step):(   1:   1:   1)
(PID.TID 0000.0001) // =======================================================
(PID.TID 0000.0001) // =======================================================
(PID.TID 0000.0001) // END OF FIELD                                          =
(PID.TID 0000.0001) // =======================================================
(PID.TID 0000.0001) 
(PID.TID 0000.0001) // =======================================================
(PID.TID 0000.0001) // Field Initial Salinity at iteration          1
(PID.TID 0000.0001) // CMIN =          3.500000000000000E+01
(PID.TID 0000.0001) // CMAX =          3.500000000000000E+01
(PID.TID 0000.0001) // CINT =          0.000000000000000E+00
(PID.TID 0000.0001) // SYMBOLS (CMIN->CMAX): -abcdefghijklmnopqrstuvwxyz+
(PID.TID 0000.0001) //                  0.0: .
(PID.TID 0000.0001) // RANGE I (Lo:Hi:Step):(   1:   5:   1)
(PID.TID 0000.0001) // RANGE J (Lo:Hi:Step):(   5:   1:  -1)
(PID.TID 0000.0001) // RANGE K (Lo:Hi:Step):(   1:   1:   1)
(PID.TID 0000.0001) // =======================================================
(PID.TID 0000.0001) // =======================================================
(PID.TID 0000.0001) // END OF FIELD                                          =
(PID.TID 0000.0001) // =======================================================
(PID.TID 0000.0001) 
(PID.TID 0000.0001) Start initial hydrostatic pressure computation
(PID.TID 0000.0001) Pressure is predetermined for buoyancyRelation OCEANIC
(PID.TID 0000.0001) 
(PID.TID 0000.0001)  MDS_READ_FIELD: opening global file: windx.sin_y
(PID.TID 0000.0001) // =======================================================
(PID.TID 0000.0001) // Model current state
(PID.TID 0000.0001) // =======================================================
(PID.TID 0000.0001) 
 cg2d: Sum(rhs),rhsMax =   0.00000000000000E+00  0.00000000000000E+00
 cg2d: Sum(rhs),rhsMax =  -2.49999999999996E+01  6.03492218443698E-05
 cg2d: Sum(rhs),rhsMax =  -1.81034404639062E+01  2.18766023587219E-04
 cg2d: Sum(rhs),rhsMax =  -1.54955563053272E+01  4.32479835680203E-04
 cg2d: Sum(rhs),rhsMax =  -1.41111452562852E+01  6.49958987247206E-04
 cg2d: Sum(rhs),rhsMax =  -1.31144322506233E+01  8.30737101724766E-04
 cg2d: Sum(rhs),rhsMax =  -1.21209090397491E+01  9.52510661391560E-04
 cg2d: Sum(rhs),rhsMax =  -1.07124742363595E+01  1.02806631170213E-03
 cg2d: Sum(rhs),rhsMax =  -7.41375936832815E+00  1.27086596303475E-03
 cg2d: Sum(rhs),rhsMax =  -4.70217533515009E+00  1.51019014071476E-03
 cg2d: Sum(rhs),rhsMax =  -2.72440685909778E+00  1.65833738316240E-03
 cg2d: Sum(rhs),rhsMax =  -1.27958668997902E+00  1.70565508886198E-03
 cg2d: Sum(rhs),rhsMax =  -3.29564698869095E-01  1.66071960751689E-03
 cg2d: Sum(rhs),rhsMax =   5.21320405511135E-02  1.54812756397473E-03
 cg2d: Sum(rhs),rhsMax =  -2.86625373789518E-01  1.40338816445427E-03
 cg2d: Sum(rhs),rhsMax =  -1.30315843448688E+00  1.44268599614768E-03
 cg2d: Sum(rhs),rhsMax =  -2.68067690527123E+00  1.50836886510308E-03
 cg2d: Sum(rhs),rhsMax =  -4.07407453789154E+00  1.58424366750065E-03
 cg2d: Sum(rhs),rhsMax =  -5.18272348585381E+00  1.66593592675274E-03
 cg2d: Sum(rhs),rhsMax =  -5.80990598978346E+00  1.74846175152580E-03
 cg2d: Sum(rhs),rhsMax =  -5.87740628239587E+00  1.82725970981272E-03
 cg2d: Sum(rhs),rhsMax =  -5.41358311922755E+00  1.89900434477565E-03
 cg2d: Sum(rhs),rhsMax =  -4.53080677154878E+00  1.96213934359427E-03
 cg2d: Sum(rhs),rhsMax =  -3.22587897556229E+00  2.12611203567567E-03
 cg2d: Sum(rhs),rhsMax =  -2.04447210973957E+00  2.24837954786821E-03
 cg2d: Sum(rhs),rhsMax =  -1.10818136723703E+00  2.30404050297156E-03
 cg2d: Sum(rhs),rhsMax =  -4.90484877349996E-01  2.29576533682777E-03
 cg2d: Sum(rhs),rhsMax =  -2.61247061678017E-01  2.23814843607114E-03
 cg2d: Sum(rhs),rhsMax =  -4.50921968156699E-01  2.26266906827964E-03
 cg2d: Sum(rhs),rhsMax =  -1.00469610603884E+00  2.31946122869944E-03
 cg2d: Sum(rhs),rhsMax =  -1.78565331459873E+00  2.37599941350944E-03
 cg2d: Sum(rhs),rhsMax =  -2.62429308987649E+00  2.42805543110742E-03
 cg2d: Sum(rhs),rhsMax =  -3.35748486991844E+00  2.47123044664491E-03
 cg2d: Sum(rhs),rhsMax =  -3.85508918249991E+00  2.50195597901767E-03
 cg2d: Sum(rhs),rhsMax =  -4.03589978656044E+00  2.51830322060373E-03
 cg2d: Sum(rhs),rhsMax =  -3.87512848551850E+00  2.52047518589938E-03
 cg2d: Sum(rhs),rhsMax =  -3.40600369034570E+00  2.51092921257506E-03
 cg2d: Sum(rhs),rhsMax =  -2.61682442423885E+00  2.58874087816785E-03
 cg2d: Sum(rhs),rhsMax =  -1.83238711380670E+00  2.61669730449344E-03
 cg2d: Sum(rhs),rhsMax =  -1.17513337426483E+00  2.56005946664406E-03
 cg2d: Sum(rhs),rhsMax =  -7.11994603006292E-01  2.47855833361188E-03
 cg2d: Sum(rhs),rhsMax =  -5.26422146000801E-01  2.47042092135889E-03
 cg2d: Sum(rhs),rhsMax =  -6.78930209790089E-01  2.49676869905945E-03
 cg2d: Sum(rhs),rhsMax =  -1.12673721690934E+00  2.53652611003382E-03
 cg2d: Sum(rhs),rhsMax =  -1.75981625267592E+00  2.58504763357738E-03
 cg2d: Sum(rhs),rhsMax =  -2.43940635934209E+00  2.63568089714716E-03
 cg2d: Sum(rhs),rhsMax =  -3.03203009792242E+00  2.68092813213142E-03
 cg2d: Sum(rhs),rhsMax =  -3.40991318113143E+00  2.73286298511365E-03
 cg2d: Sum(rhs),rhsMax =  -3.48046029579075E+00  2.80943916833853E-03
 cg2d: Sum(rhs),rhsMax =  -3.32063079186180E+00  2.84054002913351E-03
 cg2d: Sum(rhs),rhsMax =  -2.96079453116874E+00  2.82589051585429E-03
 cg2d: Sum(rhs),rhsMax =  -2.32992809406433E+00  2.92147975743620E-03
 cg2d: Sum(rhs),rhsMax =  -1.72242454477313E+00  2.94384963883220E-03
 cg2d: Sum(rhs),rhsMax =  -1.21221901874151E+00  2.89157780812860E-03
 cg2d: Sum(rhs),rhsMax =  -8.69698375425630E-01  2.78046458344594E-03
 cg2d: Sum(rhs),rhsMax =  -7.64867783942572E-01  2.63730950854063E-03
 cg2d: Sum(rhs),rhsMax =  -9.31747856150087E-01  2.54529695107744E-03
 cg2d: Sum(rhs),rhsMax =  -1.31074340671596E+00  2.59464760223538E-03
 cg2d: Sum(rhs),rhsMax =  -1.82960846482960E+00  2.67470079764045E-03
 cg2d: Sum(rhs),rhsMax =  -2.36415414020593E+00  2.77096203692711E-03
 cg2d: Sum(rhs),rhsMax =  -2.80794785448616E+00  2.86583697483012E-03
 cg2d: Sum(rhs),rhsMax =  -3.09076544640765E+00  2.94225345395065E-03
 cg2d: Sum(rhs),rhsMax =  -3.17911030791844E+00  2.98708398022701E-03
 cg2d: Sum(rhs),rhsMax =  -3.06968987421363E+00  2.99369692597478E-03
 cg2d: Sum(rhs),rhsMax =  -2.74200027692951E+00  3.00868116462948E-03
 cg2d: Sum(rhs),rhsMax =  -2.22987015384475E+00  3.08320496939327E-03
 cg2d: Sum(rhs),rhsMax =  -1.72892381118357E+00  3.09216602984354E-03
 cg2d: Sum(rhs),rhsMax =  -1.30661122869220E+00  3.03707924530388E-03
 cg2d: Sum(rhs),rhsMax =  -1.02724584054015E+00  2.93201255099671E-03
 cg2d: Sum(rhs),rhsMax =  -9.49612044136453E-01  2.80059568792457E-03
 cg2d: Sum(rhs),rhsMax =  -1.10546681800583E+00  2.68802000884373E-03
 cg2d: Sum(rhs),rhsMax =  -1.41911847273218E+00  2.73183492765418E-03
 cg2d: Sum(rhs),rhsMax =  -1.85263655359322E+00  2.80075112831434E-03
 cg2d: Sum(rhs),rhsMax =  -2.30607109976230E+00  2.88121973046191E-03
 cg2d: Sum(rhs),rhsMax =  -2.69038339106482E+00  2.95745887142921E-03
 cg2d: Sum(rhs),rhsMax =  -2.94313292004918E+00  3.01465297961792E-03
 cg2d: Sum(rhs),rhsMax =  -3.03123931232142E+00  3.04190013894103E-03
 cg2d: Sum(rhs),rhsMax =  -2.94785329382993E+00  3.03433127813545E-03
 cg2d: Sum(rhs),rhsMax =  -2.61356650711798E+00  3.10365977865342E-03
 cg2d: Sum(rhs),rhsMax =  -2.18161312623204E+00  3.16115504717868E-03
 cg2d: Sum(rhs),rhsMax =  -1.75526118604576E+00  3.15966313102075E-03
 cg2d: Sum(rhs),rhsMax =  -1.39603737741002E+00  3.10114911761465E-03
 cg2d: Sum(rhs),rhsMax =  -1.16177133853017E+00  2.99876544904509E-03
 cg2d: Sum(rhs),rhsMax =  -1.10293740454120E+00  2.87411082598446E-03
 cg2d: Sum(rhs),rhsMax =  -1.24975126986082E+00  2.75286353748705E-03
 cg2d: Sum(rhs),rhsMax =  -1.53840869665190E+00  2.75098201366442E-03
 cg2d: Sum(rhs),rhsMax =  -1.91301875126785E+00  2.81271653764186E-03
 cg2d: Sum(rhs),rhsMax =  -2.30705945389236E+00  2.88449365686167E-03
 cg2d: Sum(rhs),rhsMax =  -2.64297559986549E+00  2.95188709923620E-03
 cg2d: Sum(rhs),rhsMax =  -2.86495137488353E+00  3.00154102745630E-03
 cg2d: Sum(rhs),rhsMax =  -2.94238817189877E+00  3.02377910031026E-03
 cg2d: Sum(rhs),rhsMax =  -2.84207305995232E+00  3.04217205839789E-03
 cg2d: Sum(rhs),rhsMax =  -2.51902168451873E+00  3.13830804152659E-03
 cg2d: Sum(rhs),rhsMax =  -2.14123722587219E+00  3.18959322637134E-03
 cg2d: Sum(rhs),rhsMax =  -1.76835910939434E+00  3.18714931547073E-03
 cg2d: Sum(rhs),rhsMax =  -1.45590341066732E+00  3.13272228389841E-03
 cg2d: Sum(rhs),rhsMax =  -1.25508061628031E+00  3.03818416422641E-03
 cg2d: Sum(rhs),rhsMax =  -1.20874894090579E+00  2.92305991186991E-03
 cg2d: Sum(rhs),rhsMax =  -1.34034300304585E+00  2.81059305400943E-03
 cg2d: Sum(rhs),rhsMax =  -1.62624330268161E+00  2.74190554185836E-03
(PID.TID 0000.0001) %CHECKPOINT       100 ckptA
 --> objf_test(bi,bj)   =  0.509071989555270E-01
 --> objf_tracer(bi,bj) =  0.000000000000000E+00
 --> objf_atl(bi,bj)    =  0.000000000000000E+00
  local fc =  0.509071989555270E-01
 global fc =  0.509071989555270E-01
 ph-check fcpertplus =   0.050907199
(PID.TID 0000.0001)  MDS_READ_FIELD: opening file: xx_depth.0000000000.001.001.data
 ph-check fcpertminus =   0.0509071982
(PID.TID 0000.0001)  MDS_READ_FIELD: opening file: xx_depth.0000000000.001.001.data
(PID.TID 0000.0001)  MDS_READ_FIELD: opening global file: noWalls.bigRidge
(PID.TID 0000.0001) // =======================================================
(PID.TID 0000.0001) // Field Model R_low (ini_masks_etc) at iteration          1
(PID.TID 0000.0001) // CMIN =         -5.000000000000000E+03
(PID.TID 0000.0001) // CMAX =         -2.000000000000000E+03
(PID.TID 0000.0001) // CINT =          1.111111111111111E+02
(PID.TID 0000.0001) // SYMBOLS (CMIN->CMAX): -abcdefghijklmnopqrstuvwxyz+
(PID.TID 0000.0001) //                  0.0: .
(PID.TID 0000.0001) // RANGE I (Lo:Hi:Step):(  -1:   7:   1)
(PID.TID 0000.0001) // RANGE J (Lo:Hi:Step):(   7:  -1:  -1)
(PID.TID 0000.0001) // RANGE K (Lo:Hi:Step):(   1:   1:   1)
(PID.TID 0000.0001) // =======================================================
(PID.TID 0000.0001) K =   1
(PID.TID 0000.0001) //
(PID.TID 0000.0001) // |--J--|101234567
(PID.TID 0000.0001) //      7 ----+----
(PID.TID 0000.0001) //      6 ----+----
(PID.TID 0000.0001) //      5 ----+----
(PID.TID 0000.0001) //      4 ----+----
(PID.TID 0000.0001) //      3 ----+----
(PID.TID 0000.0001) //      2 ----+----
(PID.TID 0000.0001) //      1 ----+----
(PID.TID 0000.0001) //      0 ----+----
(PID.TID 0000.0001) //     -1 ----+----
(PID.TID 0000.0001) // =======================================================
(PID.TID 0000.0001) // END OF FIELD                                          =
(PID.TID 0000.0001) // =======================================================
(PID.TID 0000.0001) 
(PID.TID 0000.0001) // =======================================================
(PID.TID 0000.0001) // Field Model Ro_surf (ini_masks_etc) at iteration          1
(PID.TID 0000.0001) // CMIN =          1.000000000000000E+32
(PID.TID 0000.0001) // CMAX =         -1.000000000000000E+32
(PID.TID 0000.0001) // CINT =          0.000000000000000E+00
(PID.TID 0000.0001) // SYMBOLS (CMIN->CMAX): -abcdefghijklmnopqrstuvwxyz+
(PID.TID 0000.0001) //                  0.0: .
(PID.TID 0000.0001) // RANGE I (Lo:Hi:Step):(  -1:   7:   1)
(PID.TID 0000.0001) // RANGE J (Lo:Hi:Step):(   7:  -1:  -1)
(PID.TID 0000.0001) // RANGE K (Lo:Hi:Step):(   1:   1:   1)
(PID.TID 0000.0001) // =======================================================
(PID.TID 0000.0001) // =======================================================
(PID.TID 0000.0001) // END OF FIELD                                          =
(PID.TID 0000.0001) // =======================================================
(PID.TID 0000.0001) 
(PID.TID 0000.0001) // =======================================================
(PID.TID 0000.0001) // Field hFacC at iteration          1
(PID.TID 0000.0001) // CMIN =          1.000000000000000E+00
(PID.TID 0000.0001) // CMAX =          1.000000000000000E+00
(PID.TID 0000.0001) // CINT =          0.000000000000000E+00
(PID.TID 0000.0001) // SYMBOLS (CMIN->CMAX): -abcdefghijklmnopqrstuvwxyz+
(PID.TID 0000.0001) //                  0.0: .
(PID.TID 0000.0001) // RANGE I (Lo:Hi:Step):(  -1:   7:   1)
(PID.TID 0000.0001) // RANGE J (Lo:Hi:Step):(   7:  -1:  -1)
(PID.TID 0000.0001) // RANGE K (Lo:Hi:Step):(   1:   1:   1)
(PID.TID 0000.0001) // =======================================================
(PID.TID 0000.0001) // =======================================================
(PID.TID 0000.0001) // END OF FIELD                                          =
(PID.TID 0000.0001) // =======================================================
(PID.TID 0000.0001) 
(PID.TID 0000.0001) // =======================================================
(PID.TID 0000.0001) // Field hFacW at iteration          1
(PID.TID 0000.0001) // CMIN =          1.000000000000000E+00
(PID.TID 0000.0001) // CMAX =          1.000000000000000E+00
(PID.TID 0000.0001) // CINT =          0.000000000000000E+00
(PID.TID 0000.0001) // SYMBOLS (CMIN->CMAX): -abcdefghijklmnopqrstuvwxyz+
(PID.TID 0000.0001) //                  0.0: .
(PID.TID 0000.0001) // RANGE I (Lo:Hi:Step):(  -1:   7:   1)
(PID.TID 0000.0001) // RANGE J (Lo:Hi:Step):(   7:  -1:  -1)
(PID.TID 0000.0001) // RANGE K (Lo:Hi:Step):(   1:   1:   1)
(PID.TID 0000.0001) // =======================================================
(PID.TID 0000.0001) // =======================================================
(PID.TID 0000.0001) // END OF FIELD                                          =
(PID.TID 0000.0001) // =======================================================
(PID.TID 0000.0001) 
(PID.TID 0000.0001) // =======================================================
(PID.TID 0000.0001) // Field hFacS at iteration          1
(PID.TID 0000.0001) // CMIN =          1.000000000000000E+00
(PID.TID 0000.0001) // CMAX =          1.000000000000000E+00
(PID.TID 0000.0001) // CINT =          0.000000000000000E+00
(PID.TID 0000.0001) // SYMBOLS (CMIN->CMAX): -abcdefghijklmnopqrstuvwxyz+
(PID.TID 0000.0001) //                  0.0: .
(PID.TID 0000.0001) // RANGE I (Lo:Hi:Step):(  -1:   7:   1)
(PID.TID 0000.0001) // RANGE J (Lo:Hi:Step):(   7:  -1:  -1)
(PID.TID 0000.0001) // RANGE K (Lo:Hi:Step):(   1:   1:   1)
(PID.TID 0000.0001) // =======================================================
(PID.TID 0000.0001) // =======================================================
(PID.TID 0000.0001) // END OF FIELD                                          =
(PID.TID 0000.0001) // =======================================================
(PID.TID 0000.0001) 
(PID.TID 0000.0001) %MON surfExpanfCori_max           =  -1.0735540000000E-04
(PID.TID 0000.0001) %MON surfExpanfCori_min           =  -1.1783060000000E-04
(PID.TID 0000.0001) %MON surfExpanfCori_mean          =  -1.1259300000000E-04
(PID.TID 0000.0001) %MON surfExpanfCori_sd            =   3.7035424771427E-06
(PID.TID 0000.0001) %MON surfExpanfCoriG_max          =  -1.0866480000000E-04
(PID.TID 0000.0001) %MON surfExpanfCoriG_min          =  -1.1914000000000E-04
(PID.TID 0000.0001) %MON surfExpanfCoriG_mean         =  -1.1390240000000E-04
(PID.TID 0000.0001) %MON surfExpanfCoriG_sd           =   3.7035424771427E-06
(PID.TID 0000.0001) %MON surfExpanfCoriCos_max        =   0.0000000000000E+00
(PID.TID 0000.0001) %MON surfExpanfCoriCos_min        =   0.0000000000000E+00
(PID.TID 0000.0001) %MON surfExpanfCoriCos_mean       =   0.0000000000000E+00
(PID.TID 0000.0001) %MON surfExpanfCoriCos_sd         =   0.0000000000000E+00
(PID.TID 0000.0001) INI_CG2D: CG2D normalisation factor =  1.9999999999999996E-04
(PID.TID 0000.0001) 
                     ctrl_depth_ini: ctrl update R_low,
                                     adding the control vector.
(PID.TID 0000.0001)  MDS_READ_FIELD: opening file: xx_depth.0000000000.001.001.data
(PID.TID 0000.0001) // =======================================================
(PID.TID 0000.0001) // Field Model Ro_surf (update_masks_etc) at iteration          1
(PID.TID 0000.0001) // CMIN =          1.000000000000000E+32
(PID.TID 0000.0001) // CMAX =         -1.000000000000000E+32
(PID.TID 0000.0001) // CINT =          0.000000000000000E+00
(PID.TID 0000.0001) // SYMBOLS (CMIN->CMAX): -abcdefghijklmnopqrstuvwxyz+
(PID.TID 0000.0001) //                  0.0: .
(PID.TID 0000.0001) // RANGE I (Lo:Hi:Step):(  -1:   7:   1)
(PID.TID 0000.0001) // RANGE J (Lo:Hi:Step):(   7:  -1:  -1)
(PID.TID 0000.0001) // RANGE K (Lo:Hi:Step):(   1:   1:   1)
(PID.TID 0000.0001) // =======================================================
(PID.TID 0000.0001) // =======================================================
(PID.TID 0000.0001) // END OF FIELD                                          =
(PID.TID 0000.0001) // =======================================================
(PID.TID 0000.0001) 
(PID.TID 0000.0001) // =======================================================
(PID.TID 0000.0001) // Field hFacC at iteration          1
(PID.TID 0000.0001) // CMIN =          1.000000000000000E+00
(PID.TID 0000.0001) // CMAX =          1.000000000000000E+00
(PID.TID 0000.0001) // CINT =          0.000000000000000E+00
(PID.TID 0000.0001) // SYMBOLS (CMIN->CMAX): -abcdefghijklmnopqrstuvwxyz+
(PID.TID 0000.0001) //                  0.0: .
(PID.TID 0000.0001) // RANGE I (Lo:Hi:Step):(  -1:   7:   1)
(PID.TID 0000.0001) // RANGE J (Lo:Hi:Step):(   7:  -1:  -1)
(PID.TID 0000.0001) // RANGE K (Lo:Hi:Step):(   1:   1:   1)
(PID.TID 0000.0001) // =======================================================
(PID.TID 0000.0001) // =======================================================
(PID.TID 0000.0001) // END OF FIELD                                          =
(PID.TID 0000.0001) // =======================================================
(PID.TID 0000.0001) 
(PID.TID 0000.0001) // =======================================================
(PID.TID 0000.0001) // Field hFacW at iteration          1
(PID.TID 0000.0001) // CMIN =          1.000000000000000E+00
(PID.TID 0000.0001) // CMAX =          1.000000000000000E+00
(PID.TID 0000.0001) // CINT =          0.000000000000000E+00
(PID.TID 0000.0001) // SYMBOLS (CMIN->CMAX): -abcdefghijklmnopqrstuvwxyz+
(PID.TID 0000.0001) //                  0.0: .
(PID.TID 0000.0001) // RANGE I (Lo:Hi:Step):(  -1:   7:   1)
(PID.TID 0000.0001) // RANGE J (Lo:Hi:Step):(   7:  -1:  -1)
(PID.TID 0000.0001) // RANGE K (Lo:Hi:Step):(   1:   1:   1)
(PID.TID 0000.0001) // =======================================================
(PID.TID 0000.0001) // =======================================================
(PID.TID 0000.0001) // END OF FIELD                                          =
(PID.TID 0000.0001) // =======================================================
(PID.TID 0000.0001) 
(PID.TID 0000.0001) // =======================================================
(PID.TID 0000.0001) // Field hFacS at iteration          1
(PID.TID 0000.0001) // CMIN =          1.000000000000000E+00
(PID.TID 0000.0001) // CMAX =          1.000000000000000E+00
(PID.TID 0000.0001) // CINT =          0.000000000000000E+00
(PID.TID 0000.0001) // SYMBOLS (CMIN->CMAX): -abcdefghijklmnopqrstuvwxyz+
(PID.TID 0000.0001) //                  0.0: .
(PID.TID 0000.0001) // RANGE I (Lo:Hi:Step):(  -1:   7:   1)
(PID.TID 0000.0001) // RANGE J (Lo:Hi:Step):(   7:  -1:  -1)
(PID.TID 0000.0001) // RANGE K (Lo:Hi:Step):(   1:   1:   1)
(PID.TID 0000.0001) // =======================================================
(PID.TID 0000.0001) // =======================================================
(PID.TID 0000.0001) // END OF FIELD                                          =
(PID.TID 0000.0001) // =======================================================
(PID.TID 0000.0001) 
(PID.TID 0000.0001) // =======================================================
(PID.TID 0000.0001) // Field Initial Temperature at iteration          1
(PID.TID 0000.0001) // CMIN =          4.000000000000000E+00
(PID.TID 0000.0001) // CMAX =          4.000000000000000E+00
(PID.TID 0000.0001) // CINT =          0.000000000000000E+00
(PID.TID 0000.0001) // SYMBOLS (CMIN->CMAX): -abcdefghijklmnopqrstuvwxyz+
(PID.TID 0000.0001) //                  0.0: .
(PID.TID 0000.0001) // RANGE I (Lo:Hi:Step):(   1:   5:   1)
(PID.TID 0000.0001) // RANGE J (Lo:Hi:Step):(   5:   1:  -1)
(PID.TID 0000.0001) // RANGE K (Lo:Hi:Step):(   1:   1:   1)
(PID.TID 0000.0001) // =======================================================
(PID.TID 0000.0001) // =======================================================
(PID.TID 0000.0001) // END OF FIELD                                          =
(PID.TID 0000.0001) // =======================================================
(PID.TID 0000.0001) 
(PID.TID 0000.0001) // =======================================================
(PID.TID 0000.0001) // Field Initial Salinity at iteration          1
(PID.TID 0000.0001) // CMIN =          3.500000000000000E+01
(PID.TID 0000.0001) // CMAX =          3.500000000000000E+01
(PID.TID 0000.0001) // CINT =          0.000000000000000E+00
(PID.TID 0000.0001) // SYMBOLS (CMIN->CMAX): -abcdefghijklmnopqrstuvwxyz+
(PID.TID 0000.0001) //                  0.0: .
(PID.TID 0000.0001) // RANGE I (Lo:Hi:Step):(   1:   5:   1)
(PID.TID 0000.0001) // RANGE J (Lo:Hi:Step):(   5:   1:  -1)
(PID.TID 0000.0001) // RANGE K (Lo:Hi:Step):(   1:   1:   1)
(PID.TID 0000.0001) // =======================================================
(PID.TID 0000.0001) // =======================================================
(PID.TID 0000.0001) // END OF FIELD                                          =
(PID.TID 0000.0001) // =======================================================
(PID.TID 0000.0001) 
(PID.TID 0000.0001) Start initial hydrostatic pressure computation
(PID.TID 0000.0001) Pressure is predetermined for buoyancyRelation OCEANIC
(PID.TID 0000.0001) 
(PID.TID 0000.0001)  MDS_READ_FIELD: opening global file: windx.sin_y
(PID.TID 0000.0001) // =======================================================
(PID.TID 0000.0001) // Model current state
(PID.TID 0000.0001) // =======================================================
(PID.TID 0000.0001) 
 cg2d: Sum(rhs),rhsMax =   0.00000000000000E+00  0.00000000000000E+00
 cg2d: Sum(rhs),rhsMax =  -2.49999999999996E+01  6.03492218443698E-05
 cg2d: Sum(rhs),rhsMax =  -1.81034404639062E+01  2.18766023587219E-04
 cg2d: Sum(rhs),rhsMax =  -1.54955562611023E+01  4.32479836914688E-04
 cg2d: Sum(rhs),rhsMax =  -1.41111452096139E+01  6.49958989399634E-04
 cg2d: Sum(rhs),rhsMax =  -1.31144322158993E+01  8.30737103931998E-04
 cg2d: Sum(rhs),rhsMax =  -1.21209090253285E+01  9.52510662539020E-04
 cg2d: Sum(rhs),rhsMax =  -1.07124742380544E+01  1.02806631156200E-03
 cg2d: Sum(rhs),rhsMax =  -7.41375936498598E+00  1.27086596364668E-03
 cg2d: Sum(rhs),rhsMax =  -4.70217533395797E+00  1.51019014116142E-03
 cg2d: Sum(rhs),rhsMax =  -2.72440685946061E+00  1.65833738303780E-03
 cg2d: Sum(rhs),rhsMax =  -1.27958669096704E+00  1.70565508768072E-03
 cg2d: Sum(rhs),rhsMax =  -3.29564699435918E-01  1.66071960479091E-03
 cg2d: Sum(rhs),rhsMax =   5.21320407797973E-02  1.54812755929790E-03
 cg2d: Sum(rhs),rhsMax =  -2.86625375011473E-01  1.40338815757684E-03
 cg2d: Sum(rhs),rhsMax =  -1.30315843291673E+00  1.44268599760967E-03
 cg2d: Sum(rhs),rhsMax =  -2.68067690071719E+00  1.50836886752202E-03
 cg2d: Sum(rhs),rhsMax =  -4.07407452913925E+00  1.58424367083072E-03
 cg2d: Sum(rhs),rhsMax =  -5.18272347312476E+00  1.66593593082888E-03
 cg2d: Sum(rhs),rhsMax =  -5.80990597477798E+00  1.74846175608975E-03
 cg2d: Sum(rhs),rhsMax =  -5.87740626755528E+00  1.82725971455844E-03
 cg2d: Sum(rhs),rhsMax =  -5.41358310675817E+00  1.89900434940589E-03
 cg2d: Sum(rhs),rhsMax =  -4.53080676272218E+00  1.96213934787755E-03
 cg2d: Sum(rhs),rhsMax =  -3.22587900260737E+00  2.12611201873352E-03
 cg2d: Sum(rhs),rhsMax =  -2.04447212792511E+00  2.24837952964953E-03
 cg2d: Sum(rhs),rhsMax =  -1.10818137888140E+00  2.30404048277802E-03
 cg2d: Sum(rhs),rhsMax =  -4.90484884542612E-01  2.29576531392616E-03
 cg2d: Sum(rhs),rhsMax =  -2.61247067488872E-01  2.23814840980803E-03
 cg2d: Sum(rhs),rhsMax =  -4.50921970486371E-01  2.26266907229057E-03
 cg2d: Sum(rhs),rhsMax =  -1.00469610740181E+00  2.31946123364828E-03
 cg2d: Sum(rhs),rhsMax =  -1.78565331397634E+00  2.37599941957830E-03
 cg2d: Sum(rhs),rhsMax =  -2.62429308650663E+00  2.42805543834240E-03
 cg2d: Sum(rhs),rhsMax =  -3.35748486369830E+00  2.47123045495001E-03
 cg2d: Sum(rhs),rhsMax =  -3.85508917418860E+00  2.50195598817464E-03
 cg2d: Sum(rhs),rhsMax =  -4.03589977766546E+00  2.51830323031360E-03
 cg2d: Sum(rhs),rhsMax =  -3.87512847791238E+00  2.52047519583721E-03
 cg2d: Sum(rhs),rhsMax =  -3.40600368576626E+00  2.51092922244742E-03
 cg2d: Sum(rhs),rhsMax =  -2.61682444203096E+00  2.58874087016069E-03
 cg2d: Sum(rhs),rhsMax =  -1.83238713020463E+00  2.61669729648411E-03
 cg2d: Sum(rhs),rhsMax =  -1.17513338993322E+00  2.56005945928966E-03
 cg2d: Sum(rhs),rhsMax =  -7.11994634984435E-01  2.47855827116471E-03
 cg2d: Sum(rhs),rhsMax =  -5.26422159638015E-01  2.47042092995893E-03
 cg2d: Sum(rhs),rhsMax =  -6.78930224118747E-01  2.49676870785934E-03
 cg2d: Sum(rhs),rhsMax =  -1.12673723073328E+00  2.53652611923993E-03
 cg2d: Sum(rhs),rhsMax =  -1.75981626511890E+00  2.58504764333279E-03
 cg2d: Sum(rhs),rhsMax =  -2.43940637005118E+00  2.63568090750527E-03
 cg2d: Sum(rhs),rhsMax =  -3.03203010719683E+00  2.68092814304912E-03
 cg2d: Sum(rhs),rhsMax =  -3.40991305594644E+00  2.73286310385594E-03
 cg2d: Sum(rhs),rhsMax =  -3.48046016892549E+00  2.80943929027293E-03
 cg2d: Sum(rhs),rhsMax =  -3.32063066989755E+00  2.84054015559755E-03
 cg2d: Sum(rhs),rhsMax =  -2.96079442079833E+00  2.82589064799286E-03
 cg2d: Sum(rhs),rhsMax =  -2.32992812803857E+00  2.92147975151262E-03
 cg2d: Sum(rhs),rhsMax =  -1.72242457914418E+00  2.94384963337405E-03
 cg2d: Sum(rhs),rhsMax =  -1.21221905455344E+00  2.89157780377560E-03
 cg2d: Sum(rhs),rhsMax =  -8.69698414019271E-01  2.78046458067656E-03
 cg2d: Sum(rhs),rhsMax =  -7.64867826549797E-01  2.63730950758224E-03
 cg2d: Sum(rhs),rhsMax =  -9.31747842690053E-01  2.54529711501439E-03
 cg2d: Sum(rhs),rhsMax =  -1.31074337111528E+00  2.59464776844219E-03
 cg2d: Sum(rhs),rhsMax =  -1.82960839947114E+00  2.67470096569569E-03
 cg2d: Sum(rhs),rhsMax =  -2.36415404571009E+00  2.77096220692947E-03
 cg2d: Sum(rhs),rhsMax =  -2.80794773698342E+00  2.86583714737212E-03
 cg2d: Sum(rhs),rhsMax =  -3.09076531441517E+00  2.94225362998461E-03
 cg2d: Sum(rhs),rhsMax =  -3.17911017058879E+00  2.98708416085314E-03
 cg2d: Sum(rhs),rhsMax =  -3.06968974091992E+00  2.99369711219780E-03
 cg2d: Sum(rhs),rhsMax =  -2.74200033583812E+00  3.00868116617104E-03
 cg2d: Sum(rhs),rhsMax =  -2.22987021417478E+00  3.08320497142585E-03
 cg2d: Sum(rhs),rhsMax =  -1.72892387405135E+00  3.09216603295992E-03
 cg2d: Sum(rhs),rhsMax =  -1.30661129553098E+00  3.03707925000929E-03
 cg2d: Sum(rhs),rhsMax =  -1.02724591277164E+00  2.93201255760741E-03
 cg2d: Sum(rhs),rhsMax =  -9.49612122658493E-01  2.80059569650829E-03
 cg2d: Sum(rhs),rhsMax =  -1.10546681576847E+00  2.68802022921519E-03
 cg2d: Sum(rhs),rhsMax =  -1.41911844790192E+00  2.73183514965530E-03
 cg2d: Sum(rhs),rhsMax =  -1.85263649744972E+00  2.80075135187781E-03
 cg2d: Sum(rhs),rhsMax =  -2.30607101179242E+00  2.88121995607197E-03
 cg2d: Sum(rhs),rhsMax =  -2.69038327672048E+00  2.95745910003672E-03
 cg2d: Sum(rhs),rhsMax =  -2.94313278798239E+00  3.01465321245792E-03
 cg2d: Sum(rhs),rhsMax =  -3.03123917265045E+00  3.04190037728964E-03
 cg2d: Sum(rhs),rhsMax =  -2.94785315749515E+00  3.03433152305530E-03
 cg2d: Sum(rhs),rhsMax =  -2.61356659814366E+00  3.10365979266495E-03
 cg2d: Sum(rhs),rhsMax =  -2.18161321999421E+00  3.16115506261012E-03
 cg2d: Sum(rhs),rhsMax =  -1.75526128431075E+00  3.15966314842398E-03
 cg2d: Sum(rhs),rhsMax =  -1.39603748201381E+00  3.10114913738073E-03
 cg2d: Sum(rhs),rhsMax =  -1.16177145091119E+00  2.99876547132308E-03
 cg2d: Sum(rhs),rhsMax =  -1.10293752510301E+00  2.87411085065054E-03
 cg2d: Sum(rhs),rhsMax =  -1.24975139740957E+00  2.75286356417058E-03
 cg2d: Sum(rhs),rhsMax =  -1.53840868175969E+00  2.75098229717710E-03
 cg2d: Sum(rhs),rhsMax =  -1.91301870176192E+00  2.81271682261342E-03
 cg2d: Sum(rhs),rhsMax =  -2.30705936885112E+00  2.88449394379838E-03
 cg2d: Sum(rhs),rhsMax =  -2.64297548514785E+00  2.95188738912708E-03
 cg2d: Sum(rhs),rhsMax =  -2.86495124024338E+00  3.00154132158021E-03
 cg2d: Sum(rhs),rhsMax =  -2.94238802898583E+00  3.02377939998738E-03
 cg2d: Sum(rhs),rhsMax =  -2.84207318311772E+00  3.04217208871005E-03
 cg2d: Sum(rhs),rhsMax =  -2.51902180955875E+00  3.13830807316425E-03
 cg2d: Sum(rhs),rhsMax =  -2.14123735483376E+00  3.18959326001755E-03
 cg2d: Sum(rhs),rhsMax =  -1.76835924446465E+00  3.18714935171424E-03
 cg2d: Sum(rhs),rhsMax =  -1.45590355385042E+00  3.13272232311733E-03
 cg2d: Sum(rhs),rhsMax =  -1.25508076882957E+00  3.03818420651366E-03
 cg2d: Sum(rhs),rhsMax =  -1.20874910261088E+00  2.92305995701530E-03
 cg2d: Sum(rhs),rhsMax =  -1.34034317170634E+00  2.81059310154240E-03
 cg2d: Sum(rhs),rhsMax =  -1.62624329623365E+00  2.74190588975672E-03
(PID.TID 0000.0001) %CHECKPOINT       100 ckptB
 --> objf_test(bi,bj)   =  0.509071974567759E-01
 --> objf_tracer(bi,bj) =  0.000000000000000E+00
 --> objf_atl(bi,bj)    =  0.000000000000000E+00
  local fc =  0.509071974567759E-01
 global fc =  0.509071974567759E-01
(PID.TID 0000.0001)  MDS_READ_FIELD: opening file: xx_depth.0000000000.001.001.data
grad-res -------------------------------
 grad-res     0    1    1    1    1    1    1    1   0.509071982062E-01 0.509071989555E-01 0.509071974568E-01
 grad-res     0    1    1    1   25    1    1    1   0.749377788757E-05 0.749375554665E-05 0.298126306764E-05
(PID.TID 0000.0001)   ADM  precision_derivative_cost =    5.09071982061515E-02
(PID.TID 0000.0001)   ADM  precision_derivative_grad =    7.49377788757358E-06
 ph-grd  ierr ---------------------------
 ph-grd  ierr =  0, icomp =  1, ichknum =  1
 ph-grd -->hit<--  2 1 1 1
(PID.TID 0000.0001)  MDS_READ_FIELD: opening file: adxx_depth.0000000000.001.001.data
(PID.TID 0000.0001)  MDS_READ_FIELD: opening file: xx_depth.0000000000.001.001.data
(PID.TID 0000.0001)  MDS_READ_FIELD: opening global file: noWalls.bigRidge
(PID.TID 0000.0001) // =======================================================
(PID.TID 0000.0001) // Field Model R_low (ini_masks_etc) at iteration          1
(PID.TID 0000.0001) // CMIN =         -5.000000000000000E+03
(PID.TID 0000.0001) // CMAX =         -2.000000000000000E+03
(PID.TID 0000.0001) // CINT =          1.111111111111111E+02
(PID.TID 0000.0001) // SYMBOLS (CMIN->CMAX): -abcdefghijklmnopqrstuvwxyz+
(PID.TID 0000.0001) //                  0.0: .
(PID.TID 0000.0001) // RANGE I (Lo:Hi:Step):(  -1:   7:   1)
(PID.TID 0000.0001) // RANGE J (Lo:Hi:Step):(   7:  -1:  -1)
(PID.TID 0000.0001) // RANGE K (Lo:Hi:Step):(   1:   1:   1)
(PID.TID 0000.0001) // =======================================================
(PID.TID 0000.0001) K =   1
(PID.TID 0000.0001) //
(PID.TID 0000.0001) // |--J--|101234567
(PID.TID 0000.0001) //      7 ----+----
(PID.TID 0000.0001) //      6 ----+----
(PID.TID 0000.0001) //      5 ----+----
(PID.TID 0000.0001) //      4 ----+----
(PID.TID 0000.0001) //      3 ----+----
(PID.TID 0000.0001) //      2 ----+----
(PID.TID 0000.0001) //      1 ----+----
(PID.TID 0000.0001) //      0 ----+----
(PID.TID 0000.0001) //     -1 ----+----
(PID.TID 0000.0001) // =======================================================
(PID.TID 0000.0001) // END OF FIELD                                          =
(PID.TID 0000.0001) // =======================================================
(PID.TID 0000.0001) 
(PID.TID 0000.0001) // =======================================================
(PID.TID 0000.0001) // Field Model Ro_surf (ini_masks_etc) at iteration          1
(PID.TID 0000.0001) // CMIN =          1.000000000000000E+32
(PID.TID 0000.0001) // CMAX =         -1.000000000000000E+32
(PID.TID 0000.0001) // CINT =          0.000000000000000E+00
(PID.TID 0000.0001) // SYMBOLS (CMIN->CMAX): -abcdefghijklmnopqrstuvwxyz+
(PID.TID 0000.0001) //                  0.0: .
(PID.TID 0000.0001) // RANGE I (Lo:Hi:Step):(  -1:   7:   1)
(PID.TID 0000.0001) // RANGE J (Lo:Hi:Step):(   7:  -1:  -1)
(PID.TID 0000.0001) // RANGE K (Lo:Hi:Step):(   1:   1:   1)
(PID.TID 0000.0001) // =======================================================
(PID.TID 0000.0001) // =======================================================
(PID.TID 0000.0001) // END OF FIELD                                          =
(PID.TID 0000.0001) // =======================================================
(PID.TID 0000.0001) 
(PID.TID 0000.0001) // =======================================================
(PID.TID 0000.0001) // Field hFacC at iteration          1
(PID.TID 0000.0001) // CMIN =          1.000000000000000E+00
(PID.TID 0000.0001) // CMAX =          1.000000000000000E+00
(PID.TID 0000.0001) // CINT =          0.000000000000000E+00
(PID.TID 0000.0001) // SYMBOLS (CMIN->CMAX): -abcdefghijklmnopqrstuvwxyz+
(PID.TID 0000.0001) //                  0.0: .
(PID.TID 0000.0001) // RANGE I (Lo:Hi:Step):(  -1:   7:   1)
(PID.TID 0000.0001) // RANGE J (Lo:Hi:Step):(   7:  -1:  -1)
(PID.TID 0000.0001) // RANGE K (Lo:Hi:Step):(   1:   1:   1)
(PID.TID 0000.0001) // =======================================================
(PID.TID 0000.0001) // =======================================================
(PID.TID 0000.0001) // END OF FIELD                                          =
(PID.TID 0000.0001) // =======================================================
(PID.TID 0000.0001) 
(PID.TID 0000.0001) // =======================================================
(PID.TID 0000.0001) // Field hFacW at iteration          1
(PID.TID 0000.0001) // CMIN =          1.000000000000000E+00
(PID.TID 0000.0001) // CMAX =          1.000000000000000E+00
(PID.TID 0000.0001) // CINT =          0.000000000000000E+00
(PID.TID 0000.0001) // SYMBOLS (CMIN->CMAX): -abcdefghijklmnopqrstuvwxyz+
(PID.TID 0000.0001) //                  0.0: .
(PID.TID 0000.0001) // RANGE I (Lo:Hi:Step):(  -1:   7:   1)
(PID.TID 0000.0001) // RANGE J (Lo:Hi:Step):(   7:  -1:  -1)
(PID.TID 0000.0001) // RANGE K (Lo:Hi:Step):(   1:   1:   1)
(PID.TID 0000.0001) // =======================================================
(PID.TID 0000.0001) // =======================================================
(PID.TID 0000.0001) // END OF FIELD                                          =
(PID.TID 0000.0001) // =======================================================
(PID.TID 0000.0001) 
(PID.TID 0000.0001) // =======================================================
(PID.TID 0000.0001) // Field hFacS at iteration          1
(PID.TID 0000.0001) // CMIN =          1.000000000000000E+00
(PID.TID 0000.0001) // CMAX =          1.000000000000000E+00
(PID.TID 0000.0001) // CINT =          0.000000000000000E+00
(PID.TID 0000.0001) // SYMBOLS (CMIN->CMAX): -abcdefghijklmnopqrstuvwxyz+
(PID.TID 0000.0001) //                  0.0: .
(PID.TID 0000.0001) // RANGE I (Lo:Hi:Step):(  -1:   7:   1)
(PID.TID 0000.0001) // RANGE J (Lo:Hi:Step):(   7:  -1:  -1)
(PID.TID 0000.0001) // RANGE K (Lo:Hi:Step):(   1:   1:   1)
(PID.TID 0000.0001) // =======================================================
(PID.TID 0000.0001) // =======================================================
(PID.TID 0000.0001) // END OF FIELD                                          =
(PID.TID 0000.0001) // =======================================================
(PID.TID 0000.0001) 
(PID.TID 0000.0001) %MON surfExpanfCori_max           =  -1.0735540000000E-04
(PID.TID 0000.0001) %MON surfExpanfCori_min           =  -1.1783060000000E-04
(PID.TID 0000.0001) %MON surfExpanfCori_mean          =  -1.1259300000000E-04
(PID.TID 0000.0001) %MON surfExpanfCori_sd            =   3.7035424771427E-06
(PID.TID 0000.0001) %MON surfExpanfCoriG_max          =  -1.0866480000000E-04
(PID.TID 0000.0001) %MON surfExpanfCoriG_min          =  -1.1914000000000E-04
(PID.TID 0000.0001) %MON surfExpanfCoriG_mean         =  -1.1390240000000E-04
(PID.TID 0000.0001) %MON surfExpanfCoriG_sd           =   3.7035424771427E-06
(PID.TID 0000.0001) %MON surfExpanfCoriCos_max        =   0.0000000000000E+00
(PID.TID 0000.0001) %MON surfExpanfCoriCos_min        =   0.0000000000000E+00
(PID.TID 0000.0001) %MON surfExpanfCoriCos_mean       =   0.0000000000000E+00
(PID.TID 0000.0001) %MON surfExpanfCoriCos_sd         =   0.0000000000000E+00
(PID.TID 0000.0001) INI_CG2D: CG2D normalisation factor =  1.9999999999999996E-04
(PID.TID 0000.0001) 
                     ctrl_depth_ini: ctrl update R_low,
                                     adding the control vector.
(PID.TID 0000.0001)  MDS_READ_FIELD: opening file: xx_depth.0000000000.001.001.data
(PID.TID 0000.0001) // =======================================================
(PID.TID 0000.0001) // Field Model Ro_surf (update_masks_etc) at iteration          1
(PID.TID 0000.0001) // CMIN =          1.000000000000000E+32
(PID.TID 0000.0001) // CMAX =         -1.000000000000000E+32
(PID.TID 0000.0001) // CINT =          0.000000000000000E+00
(PID.TID 0000.0001) // SYMBOLS (CMIN->CMAX): -abcdefghijklmnopqrstuvwxyz+
(PID.TID 0000.0001) //                  0.0: .
(PID.TID 0000.0001) // RANGE I (Lo:Hi:Step):(  -1:   7:   1)
(PID.TID 0000.0001) // RANGE J (Lo:Hi:Step):(   7:  -1:  -1)
(PID.TID 0000.0001) // RANGE K (Lo:Hi:Step):(   1:   1:   1)
(PID.TID 0000.0001) // =======================================================
(PID.TID 0000.0001) // =======================================================
(PID.TID 0000.0001) // END OF FIELD                                          =
(PID.TID 0000.0001) // =======================================================
(PID.TID 0000.0001) 
(PID.TID 0000.0001) // =======================================================
(PID.TID 0000.0001) // Field hFacC at iteration          1
(PID.TID 0000.0001) // CMIN =          1.000000000000000E+00
(PID.TID 0000.0001) // CMAX =          1.000000000000000E+00
(PID.TID 0000.0001) // CINT =          0.000000000000000E+00
(PID.TID 0000.0001) // SYMBOLS (CMIN->CMAX): -abcdefghijklmnopqrstuvwxyz+
(PID.TID 0000.0001) //                  0.0: .
(PID.TID 0000.0001) // RANGE I (Lo:Hi:Step):(  -1:   7:   1)
(PID.TID 0000.0001) // RANGE J (Lo:Hi:Step):(   7:  -1:  -1)
(PID.TID 0000.0001) // RANGE K (Lo:Hi:Step):(   1:   1:   1)
(PID.TID 0000.0001) // =======================================================
(PID.TID 0000.0001) // =======================================================
(PID.TID 0000.0001) // END OF FIELD                                          =
(PID.TID 0000.0001) // =======================================================
(PID.TID 0000.0001) 
(PID.TID 0000.0001) // =======================================================
(PID.TID 0000.0001) // Field hFacW at iteration          1
(PID.TID 0000.0001) // CMIN =          1.000000000000000E+00
(PID.TID 0000.0001) // CMAX =          1.000000000000000E+00
(PID.TID 0000.0001) // CINT =          0.000000000000000E+00
(PID.TID 0000.0001) // SYMBOLS (CMIN->CMAX): -abcdefghijklmnopqrstuvwxyz+
(PID.TID 0000.0001) //                  0.0: .
(PID.TID 0000.0001) // RANGE I (Lo:Hi:Step):(  -1:   7:   1)
(PID.TID 0000.0001) // RANGE J (Lo:Hi:Step):(   7:  -1:  -1)
(PID.TID 0000.0001) // RANGE K (Lo:Hi:Step):(   1:   1:   1)
(PID.TID 0000.0001) // =======================================================
(PID.TID 0000.0001) // =======================================================
(PID.TID 0000.0001) // END OF FIELD                                          =
(PID.TID 0000.0001) // =======================================================
(PID.TID 0000.0001) 
(PID.TID 0000.0001) // =======================================================
(PID.TID 0000.0001) // Field hFacS at iteration          1
(PID.TID 0000.0001) // CMIN =          1.000000000000000E+00
(PID.TID 0000.0001) // CMAX =          1.000000000000000E+00
(PID.TID 0000.0001) // CINT =          0.000000000000000E+00
(PID.TID 0000.0001) // SYMBOLS (CMIN->CMAX): -abcdefghijklmnopqrstuvwxyz+
(PID.TID 0000.0001) //                  0.0: .
(PID.TID 0000.0001) // RANGE I (Lo:Hi:Step):(  -1:   7:   1)
(PID.TID 0000.0001) // RANGE J (Lo:Hi:Step):(   7:  -1:  -1)
(PID.TID 0000.0001) // RANGE K (Lo:Hi:Step):(   1:   1:   1)
(PID.TID 0000.0001) // =======================================================
(PID.TID 0000.0001) // =======================================================
(PID.TID 0000.0001) // END OF FIELD                                          =
(PID.TID 0000.0001) // =======================================================
(PID.TID 0000.0001) 
(PID.TID 0000.0001) // =======================================================
(PID.TID 0000.0001) // Field Initial Temperature at iteration          1
(PID.TID 0000.0001) // CMIN =          4.000000000000000E+00
(PID.TID 0000.0001) // CMAX =          4.000000000000000E+00
(PID.TID 0000.0001) // CINT =          0.000000000000000E+00
(PID.TID 0000.0001) // SYMBOLS (CMIN->CMAX): -abcdefghijklmnopqrstuvwxyz+
(PID.TID 0000.0001) //                  0.0: .
(PID.TID 0000.0001) // RANGE I (Lo:Hi:Step):(   1:   5:   1)
(PID.TID 0000.0001) // RANGE J (Lo:Hi:Step):(   5:   1:  -1)
(PID.TID 0000.0001) // RANGE K (Lo:Hi:Step):(   1:   1:   1)
(PID.TID 0000.0001) // =======================================================
(PID.TID 0000.0001) // =======================================================
(PID.TID 0000.0001) // END OF FIELD                                          =
(PID.TID 0000.0001) // =======================================================
(PID.TID 0000.0001) 
(PID.TID 0000.0001) // =======================================================
(PID.TID 0000.0001) // Field Initial Salinity at iteration          1
(PID.TID 0000.0001) // CMIN =          3.500000000000000E+01
(PID.TID 0000.0001) // CMAX =          3.500000000000000E+01
(PID.TID 0000.0001) // CINT =          0.000000000000000E+00
(PID.TID 0000.0001) // SYMBOLS (CMIN->CMAX): -abcdefghijklmnopqrstuvwxyz+
(PID.TID 0000.0001) //                  0.0: .
(PID.TID 0000.0001) // RANGE I (Lo:Hi:Step):(   1:   5:   1)
(PID.TID 0000.0001) // RANGE J (Lo:Hi:Step):(   5:   1:  -1)
(PID.TID 0000.0001) // RANGE K (Lo:Hi:Step):(   1:   1:   1)
(PID.TID 0000.0001) // =======================================================
(PID.TID 0000.0001) // =======================================================
(PID.TID 0000.0001) // END OF FIELD                                          =
(PID.TID 0000.0001) // =======================================================
(PID.TID 0000.0001) 
(PID.TID 0000.0001) Start initial hydrostatic pressure computation
(PID.TID 0000.0001) Pressure is predetermined for buoyancyRelation OCEANIC
(PID.TID 0000.0001) 
(PID.TID 0000.0001)  MDS_READ_FIELD: opening global file: windx.sin_y
(PID.TID 0000.0001) // =======================================================
(PID.TID 0000.0001) // Model current state
(PID.TID 0000.0001) // =======================================================
(PID.TID 0000.0001) 
 cg2d: Sum(rhs),rhsMax =   0.00000000000000E+00  0.00000000000000E+00
 cg2d: Sum(rhs),rhsMax =  -2.49999999999996E+01  6.03492218443698E-05
 cg2d: Sum(rhs),rhsMax =  -1.81034404639062E+01  2.18766023587219E-04
 cg2d: Sum(rhs),rhsMax =  -1.54955562657313E+01  4.32479836784553E-04
 cg2d: Sum(rhs),rhsMax =  -1.41111452028022E+01  6.49958989707949E-04
 cg2d: Sum(rhs),rhsMax =  -1.31144321972237E+01  8.30737105101592E-04
 cg2d: Sum(rhs),rhsMax =  -1.21209089958725E+01  9.52510664830238E-04
 cg2d: Sum(rhs),rhsMax =  -1.07124742392387E+01  1.02806631141382E-03
 cg2d: Sum(rhs),rhsMax =  -7.41375936216871E+00  1.27086596407772E-03
 cg2d: Sum(rhs),rhsMax =  -4.70217532874752E+00  1.51019014277419E-03
 cg2d: Sum(rhs),rhsMax =  -2.72440685474510E+00  1.65833738589535E-03
 cg2d: Sum(rhs),rhsMax =  -1.27958668814347E+00  1.70565509174643E-03
 cg2d: Sum(rhs),rhsMax =  -3.29564698999524E-01  1.66071960994994E-03
 cg2d: Sum(rhs),rhsMax =   5.21320394730223E-02  1.54812756538965E-03
 cg2d: Sum(rhs),rhsMax =  -2.86625375413215E-01  1.40338816442943E-03
 cg2d: Sum(rhs),rhsMax =  -1.30315842845581E+00  1.44268600514228E-03
 cg2d: Sum(rhs),rhsMax =  -2.68067688823170E+00  1.50836887611328E-03
 cg2d: Sum(rhs),rhsMax =  -4.07407450781855E+00  1.58424368032993E-03
 cg2d: Sum(rhs),rhsMax =  -5.18272344449776E+00  1.66593594109620E-03
 cg2d: Sum(rhs),rhsMax =  -5.80990594185484E+00  1.74846176702826E-03
 cg2d: Sum(rhs),rhsMax =  -5.87740623377855E+00  1.82725972613879E-03
 cg2d: Sum(rhs),rhsMax =  -5.41358307526986E+00  1.89900436167919E-03
 cg2d: Sum(rhs),rhsMax =  -4.53080673603162E+00  1.96213936097443E-03
 cg2d: Sum(rhs),rhsMax =  -3.22587898694474E+00  2.12611203134819E-03
 cg2d: Sum(rhs),rhsMax =  -2.04447211888409E+00  2.24837954350108E-03
 cg2d: Sum(rhs),rhsMax =  -1.10818137535232E+00  2.30404049807015E-03
 cg2d: Sum(rhs),rhsMax =  -4.90484885228404E-01  2.29576533086377E-03
 cg2d: Sum(rhs),rhsMax =  -2.61247070288671E-01  2.23814842858311E-03
 cg2d: Sum(rhs),rhsMax =  -4.50921971596838E-01  2.26266909471957E-03
 cg2d: Sum(rhs),rhsMax =  -1.00469610293421E+00  2.31946125805897E-03
 cg2d: Sum(rhs),rhsMax =  -1.78565330078771E+00  2.37599944591004E-03
 cg2d: Sum(rhs),rhsMax =  -2.62429306313579E+00  2.42805546647896E-03
 cg2d: Sum(rhs),rhsMax =  -3.35748483063118E+00  2.47123048474447E-03
 cg2d: Sum(rhs),rhsMax =  -3.85508913367740E+00  2.50195601947750E-03
 cg2d: Sum(rhs),rhsMax =  -4.03589973326274E+00  2.51830326299854E-03
 cg2d: Sum(rhs),rhsMax =  -3.87512843387100E+00  2.52047522982085E-03
 cg2d: Sum(rhs),rhsMax =  -3.40600364637816E+00  2.51092925769957E-03
 cg2d: Sum(rhs),rhsMax =  -2.61682447479406E+00  2.58874084601611E-03
 cg2d: Sum(rhs),rhsMax =  -1.83238715614084E+00  2.61669727154715E-03
 cg2d: Sum(rhs),rhsMax =  -1.17513341080193E+00  2.56005943328263E-03
 cg2d: Sum(rhs),rhsMax =  -7.11994632774335E-01  2.47855831221095E-03
 cg2d: Sum(rhs),rhsMax =  -5.26422160622353E-01  2.47042097249684E-03
 cg2d: Sum(rhs),rhsMax =  -6.78930222526880E-01  2.49676875209031E-03
 cg2d: Sum(rhs),rhsMax =  -1.12673722111202E+00  2.53652616518285E-03
 cg2d: Sum(rhs),rhsMax =  -1.75981624377095E+00  2.58504769096705E-03
 cg2d: Sum(rhs),rhsMax =  -2.43940633575307E+00  2.63568095677648E-03
 cg2d: Sum(rhs),rhsMax =  -3.03203006116916E+00  2.68092819388035E-03
 cg2d: Sum(rhs),rhsMax =  -3.40991318827355E+00  2.73286300700403E-03
 cg2d: Sum(rhs),rhsMax =  -3.48046030401302E+00  2.80943919034470E-03
 cg2d: Sum(rhs),rhsMax =  -3.32063080213588E+00  2.84054005205243E-03
 cg2d: Sum(rhs),rhsMax =  -2.96079454475882E+00  2.82589054036736E-03
 cg2d: Sum(rhs),rhsMax =  -2.32992817361980E+00  2.92147970781521E-03
 cg2d: Sum(rhs),rhsMax =  -1.72242461603645E+00  2.94384958832767E-03
 cg2d: Sum(rhs),rhsMax =  -1.21221908474753E+00  2.89157775708618E-03
 cg2d: Sum(rhs),rhsMax =  -8.69698440189670E-01  2.78046453206356E-03
 cg2d: Sum(rhs),rhsMax =  -7.64867852777980E-01  2.63730945683778E-03
 cg2d: Sum(rhs),rhsMax =  -9.31747902618768E-01  2.54529698382280E-03
 cg2d: Sum(rhs),rhsMax =  -1.31074345040137E+00  2.59464763456759E-03
 cg2d: Sum(rhs),rhsMax =  -1.82960850401681E+00  2.67470082931727E-03
 cg2d: Sum(rhs),rhsMax =  -2.36415417498706E+00  2.77096206801323E-03
 cg2d: Sum(rhs),rhsMax =  -2.80794788601825E+00  2.86583700567904E-03
 cg2d: Sum(rhs),rhsMax =  -3.09076547623358E+00  2.94225348512322E-03
 cg2d: Sum(rhs),rhsMax =  -3.17911033772659E+00  2.98708401236460E-03
 cg2d: Sum(rhs),rhsMax =  -3.06968990592357E+00  2.99369695965518E-03
 cg2d: Sum(rhs),rhsMax =  -2.74200040296909E+00  3.00868110126201E-03
 cg2d: Sum(rhs),rhsMax =  -2.22987026930687E+00  3.08320490511674E-03
 cg2d: Sum(rhs),rhsMax =  -1.72892391861465E+00  3.09216596493230E-03
 cg2d: Sum(rhs),rhsMax =  -1.30661133169129E+00  3.03707917992515E-03
 cg2d: Sum(rhs),rhsMax =  -1.02724594373243E+00  2.93201248517297E-03
 cg2d: Sum(rhs),rhsMax =  -9.49612153278954E-01  2.80059562152865E-03
 cg2d: Sum(rhs),rhsMax =  -1.10546689429981E+00  2.68802004981570E-03
 cg2d: Sum(rhs),rhsMax =  -1.41911854641157E+00  2.73183496774971E-03
 cg2d: Sum(rhs),rhsMax =  -1.85263662262926E+00  2.80075116752098E-03
 cg2d: Sum(rhs),rhsMax =  -2.30607116385341E+00  2.88121976909575E-03
 cg2d: Sum(rhs),rhsMax =  -2.69038345106760E+00  2.95745891007963E-03
 cg2d: Sum(rhs),rhsMax =  -2.94313297744343E+00  3.01465301903503E-03
 cg2d: Sum(rhs),rhsMax =  -3.03123936900136E+00  3.04190017988844E-03
 cg2d: Sum(rhs),rhsMax =  -2.94785335213239E+00  3.03433132123823E-03
 cg2d: Sum(rhs),rhsMax =  -2.61356667344576E+00  3.10365970027182E-03
 cg2d: Sum(rhs),rhsMax =  -2.18161328147576E+00  3.16115496835032E-03
 cg2d: Sum(rhs),rhsMax =  -1.75526133320267E+00  3.15966305198018E-03
 cg2d: Sum(rhs),rhsMax =  -1.39603752067661E+00  3.10114903843621E-03
 cg2d: Sum(rhs),rhsMax =  -1.16177148313451E+00  2.99876536962167E-03
 cg2d: Sum(rhs),rhsMax =  -1.10293755666181E+00  2.87411074604348E-03
 cg2d: Sum(rhs),rhsMax =  -1.24975143616023E+00  2.75286345664108E-03
 cg2d: Sum(rhs),rhsMax =  -1.53840880041411E+00  2.75098206503789E-03
 cg2d: Sum(rhs),rhsMax =  -1.91301884928799E+00  2.81271658805819E-03
 cg2d: Sum(rhs),rhsMax =  -2.30705954571190E+00  2.88449370665268E-03
 cg2d: Sum(rhs),rhsMax =  -2.64297568644976E+00  2.95188714902163E-03
 cg2d: Sum(rhs),rhsMax =  -2.86495145803915E+00  3.00154107802461E-03
 cg2d: Sum(rhs),rhsMax =  -2.94238825397180E+00  3.02377915246723E-03
 cg2d: Sum(rhs),rhsMax =  -2.84207328086321E+00  3.04217196573467E-03
 cg2d: Sum(rhs),rhsMax =  -2.51902189194299E+00  3.13830794812534E-03
 cg2d: Sum(rhs),rhsMax =  -2.14123742129877E+00  3.18959313264861E-03
 cg2d: Sum(rhs),rhsMax =  -1.76835929621890E+00  3.18714922171262E-03
 cg2d: Sum(rhs),rhsMax =  -1.45590359360655E+00  3.13272219020364E-03
 cg2d: Sum(rhs),rhsMax =  -1.25508080108063E+00  3.03818407048631E-03
 cg2d: Sum(rhs),rhsMax =  -1.20874913409724E+00  2.92305981778878E-03
 cg2d: Sum(rhs),rhsMax =  -1.34034321130820E+00  2.81059295916186E-03
 cg2d: Sum(rhs),rhsMax =  -1.62624343372554E+00  2.74190560711543E-03
(PID.TID 0000.0001) %CHECKPOINT       100 ckptA
 --> objf_test(bi,bj)   =  0.509071977381878E-01
 --> objf_tracer(bi,bj) =  0.000000000000000E+00
 --> objf_atl(bi,bj)    =  0.000000000000000E+00
  local fc =  0.509071977381878E-01
 global fc =  0.509071977381878E-01
 ph-check fcpertplus =   0.0509071977
(PID.TID 0000.0001)  MDS_READ_FIELD: opening file: xx_depth.0000000000.001.001.data
 ph-check fcpertminus =   0.0509071982
(PID.TID 0000.0001)  MDS_READ_FIELD: opening file: xx_depth.0000000000.001.001.data
(PID.TID 0000.0001)  MDS_READ_FIELD: opening global file: noWalls.bigRidge
(PID.TID 0000.0001) // =======================================================
(PID.TID 0000.0001) // Field Model R_low (ini_masks_etc) at iteration          1
(PID.TID 0000.0001) // CMIN =         -5.000000000000000E+03
(PID.TID 0000.0001) // CMAX =         -2.000000000000000E+03
(PID.TID 0000.0001) // CINT =          1.111111111111111E+02
(PID.TID 0000.0001) // SYMBOLS (CMIN->CMAX): -abcdefghijklmnopqrstuvwxyz+
(PID.TID 0000.0001) //                  0.0: .
(PID.TID 0000.0001) // RANGE I (Lo:Hi:Step):(  -1:   7:   1)
(PID.TID 0000.0001) // RANGE J (Lo:Hi:Step):(   7:  -1:  -1)
(PID.TID 0000.0001) // RANGE K (Lo:Hi:Step):(   1:   1:   1)
(PID.TID 0000.0001) // =======================================================
(PID.TID 0000.0001) K =   1
(PID.TID 0000.0001) //
(PID.TID 0000.0001) // |--J--|101234567
(PID.TID 0000.0001) //      7 ----+----
(PID.TID 0000.0001) //      6 ----+----
(PID.TID 0000.0001) //      5 ----+----
(PID.TID 0000.0001) //      4 ----+----
(PID.TID 0000.0001) //      3 ----+----
(PID.TID 0000.0001) //      2 ----+----
(PID.TID 0000.0001) //      1 ----+----
(PID.TID 0000.0001) //      0 ----+----
(PID.TID 0000.0001) //     -1 ----+----
(PID.TID 0000.0001) // =======================================================
(PID.TID 0000.0001) // END OF FIELD                                          =
(PID.TID 0000.0001) // =======================================================
(PID.TID 0000.0001) 
(PID.TID 0000.0001) // =======================================================
(PID.TID 0000.0001) // Field Model Ro_surf (ini_masks_etc) at iteration          1
(PID.TID 0000.0001) // CMIN =          1.000000000000000E+32
(PID.TID 0000.0001) // CMAX =         -1.000000000000000E+32
(PID.TID 0000.0001) // CINT =          0.000000000000000E+00
(PID.TID 0000.0001) // SYMBOLS (CMIN->CMAX): -abcdefghijklmnopqrstuvwxyz+
(PID.TID 0000.0001) //                  0.0: .
(PID.TID 0000.0001) // RANGE I (Lo:Hi:Step):(  -1:   7:   1)
(PID.TID 0000.0001) // RANGE J (Lo:Hi:Step):(   7:  -1:  -1)
(PID.TID 0000.0001) // RANGE K (Lo:Hi:Step):(   1:   1:   1)
(PID.TID 0000.0001) // =======================================================
(PID.TID 0000.0001) // =======================================================
(PID.TID 0000.0001) // END OF FIELD                                          =
(PID.TID 0000.0001) // =======================================================
(PID.TID 0000.0001) 
(PID.TID 0000.0001) // =======================================================
(PID.TID 0000.0001) // Field hFacC at iteration          1
(PID.TID 0000.0001) // CMIN =          1.000000000000000E+00
(PID.TID 0000.0001) // CMAX =          1.000000000000000E+00
(PID.TID 0000.0001) // CINT =          0.000000000000000E+00
(PID.TID 0000.0001) // SYMBOLS (CMIN->CMAX): -abcdefghijklmnopqrstuvwxyz+
(PID.TID 0000.0001) //                  0.0: .
(PID.TID 0000.0001) // RANGE I (Lo:Hi:Step):(  -1:   7:   1)
(PID.TID 0000.0001) // RANGE J (Lo:Hi:Step):(   7:  -1:  -1)
(PID.TID 0000.0001) // RANGE K (Lo:Hi:Step):(   1:   1:   1)
(PID.TID 0000.0001) // =======================================================
(PID.TID 0000.0001) // =======================================================
(PID.TID 0000.0001) // END OF FIELD                                          =
(PID.TID 0000.0001) // =======================================================
(PID.TID 0000.0001) 
(PID.TID 0000.0001) // =======================================================
(PID.TID 0000.0001) // Field hFacW at iteration          1
(PID.TID 0000.0001) // CMIN =          1.000000000000000E+00
(PID.TID 0000.0001) // CMAX =          1.000000000000000E+00
(PID.TID 0000.0001) // CINT =          0.000000000000000E+00
(PID.TID 0000.0001) // SYMBOLS (CMIN->CMAX): -abcdefghijklmnopqrstuvwxyz+
(PID.TID 0000.0001) //                  0.0: .
(PID.TID 0000.0001) // RANGE I (Lo:Hi:Step):(  -1:   7:   1)
(PID.TID 0000.0001) // RANGE J (Lo:Hi:Step):(   7:  -1:  -1)
(PID.TID 0000.0001) // RANGE K (Lo:Hi:Step):(   1:   1:   1)
(PID.TID 0000.0001) // =======================================================
(PID.TID 0000.0001) // =======================================================
(PID.TID 0000.0001) // END OF FIELD                                          =
(PID.TID 0000.0001) // =======================================================
(PID.TID 0000.0001) 
(PID.TID 0000.0001) // =======================================================
(PID.TID 0000.0001) // Field hFacS at iteration          1
(PID.TID 0000.0001) // CMIN =          1.000000000000000E+00
(PID.TID 0000.0001) // CMAX =          1.000000000000000E+00
(PID.TID 0000.0001) // CINT =          0.000000000000000E+00
(PID.TID 0000.0001) // SYMBOLS (CMIN->CMAX): -abcdefghijklmnopqrstuvwxyz+
(PID.TID 0000.0001) //                  0.0: .
(PID.TID 0000.0001) // RANGE I (Lo:Hi:Step):(  -1:   7:   1)
(PID.TID 0000.0001) // RANGE J (Lo:Hi:Step):(   7:  -1:  -1)
(PID.TID 0000.0001) // RANGE K (Lo:Hi:Step):(   1:   1:   1)
(PID.TID 0000.0001) // =======================================================
(PID.TID 0000.0001) // =======================================================
(PID.TID 0000.0001) // END OF FIELD                                          =
(PID.TID 0000.0001) // =======================================================
(PID.TID 0000.0001) 
(PID.TID 0000.0001) %MON surfExpanfCori_max           =  -1.0735540000000E-04
(PID.TID 0000.0001) %MON surfExpanfCori_min           =  -1.1783060000000E-04
(PID.TID 0000.0001) %MON surfExpanfCori_mean          =  -1.1259300000000E-04
(PID.TID 0000.0001) %MON surfExpanfCori_sd            =   3.7035424771427E-06
(PID.TID 0000.0001) %MON surfExpanfCoriG_max          =  -1.0866480000000E-04
(PID.TID 0000.0001) %MON surfExpanfCoriG_min          =  -1.1914000000000E-04
(PID.TID 0000.0001) %MON surfExpanfCoriG_mean         =  -1.1390240000000E-04
(PID.TID 0000.0001) %MON surfExpanfCoriG_sd           =   3.7035424771427E-06
(PID.TID 0000.0001) %MON surfExpanfCoriCos_max        =   0.0000000000000E+00
(PID.TID 0000.0001) %MON surfExpanfCoriCos_min        =   0.0000000000000E+00
(PID.TID 0000.0001) %MON surfExpanfCoriCos_mean       =   0.0000000000000E+00
(PID.TID 0000.0001) %MON surfExpanfCoriCos_sd         =   0.0000000000000E+00
(PID.TID 0000.0001) INI_CG2D: CG2D normalisation factor =  1.9999999999999996E-04
(PID.TID 0000.0001) 
                     ctrl_depth_ini: ctrl update R_low,
                                     adding the control vector.
(PID.TID 0000.0001)  MDS_READ_FIELD: opening file: xx_depth.0000000000.001.001.data
(PID.TID 0000.0001) // =======================================================
(PID.TID 0000.0001) // Field Model Ro_surf (update_masks_etc) at iteration          1
(PID.TID 0000.0001) // CMIN =          1.000000000000000E+32
(PID.TID 0000.0001) // CMAX =         -1.000000000000000E+32
(PID.TID 0000.0001) // CINT =          0.000000000000000E+00
(PID.TID 0000.0001) // SYMBOLS (CMIN->CMAX): -abcdefghijklmnopqrstuvwxyz+
(PID.TID 0000.0001) //                  0.0: .
(PID.TID 0000.0001) // RANGE I (Lo:Hi:Step):(  -1:   7:   1)
(PID.TID 0000.0001) // RANGE J (Lo:Hi:Step):(   7:  -1:  -1)
(PID.TID 0000.0001) // RANGE K (Lo:Hi:Step):(   1:   1:   1)
(PID.TID 0000.0001) // =======================================================
(PID.TID 0000.0001) // =======================================================
(PID.TID 0000.0001) // END OF FIELD                                          =
(PID.TID 0000.0001) // =======================================================
(PID.TID 0000.0001) 
(PID.TID 0000.0001) // =======================================================
(PID.TID 0000.0001) // Field hFacC at iteration          1
(PID.TID 0000.0001) // CMIN =          1.000000000000000E+00
(PID.TID 0000.0001) // CMAX =          1.000000000000000E+00
(PID.TID 0000.0001) // CINT =          0.000000000000000E+00
(PID.TID 0000.0001) // SYMBOLS (CMIN->CMAX): -abcdefghijklmnopqrstuvwxyz+
(PID.TID 0000.0001) //                  0.0: .
(PID.TID 0000.0001) // RANGE I (Lo:Hi:Step):(  -1:   7:   1)
(PID.TID 0000.0001) // RANGE J (Lo:Hi:Step):(   7:  -1:  -1)
(PID.TID 0000.0001) // RANGE K (Lo:Hi:Step):(   1:   1:   1)
(PID.TID 0000.0001) // =======================================================
(PID.TID 0000.0001) // =======================================================
(PID.TID 0000.0001) // END OF FIELD                                          =
(PID.TID 0000.0001) // =======================================================
(PID.TID 0000.0001) 
(PID.TID 0000.0001) // =======================================================
(PID.TID 0000.0001) // Field hFacW at iteration          1
(PID.TID 0000.0001) // CMIN =          1.000000000000000E+00
(PID.TID 0000.0001) // CMAX =          1.000000000000000E+00
(PID.TID 0000.0001) // CINT =          0.000000000000000E+00
(PID.TID 0000.0001) // SYMBOLS (CMIN->CMAX): -abcdefghijklmnopqrstuvwxyz+
(PID.TID 0000.0001) //                  0.0: .
(PID.TID 0000.0001) // RANGE I (Lo:Hi:Step):(  -1:   7:   1)
(PID.TID 0000.0001) // RANGE J (Lo:Hi:Step):(   7:  -1:  -1)
(PID.TID 0000.0001) // RANGE K (Lo:Hi:Step):(   1:   1:   1)
(PID.TID 0000.0001) // =======================================================
(PID.TID 0000.0001) // =======================================================
(PID.TID 0000.0001) // END OF FIELD                                          =
(PID.TID 0000.0001) // =======================================================
(PID.TID 0000.0001) 
(PID.TID 0000.0001) // =======================================================
(PID.TID 0000.0001) // Field hFacS at iteration          1
(PID.TID 0000.0001) // CMIN =          1.000000000000000E+00
(PID.TID 0000.0001) // CMAX =          1.000000000000000E+00
(PID.TID 0000.0001) // CINT =          0.000000000000000E+00
(PID.TID 0000.0001) // SYMBOLS (CMIN->CMAX): -abcdefghijklmnopqrstuvwxyz+
(PID.TID 0000.0001) //                  0.0: .
(PID.TID 0000.0001) // RANGE I (Lo:Hi:Step):(  -1:   7:   1)
(PID.TID 0000.0001) // RANGE J (Lo:Hi:Step):(   7:  -1:  -1)
(PID.TID 0000.0001) // RANGE K (Lo:Hi:Step):(   1:   1:   1)
(PID.TID 0000.0001) // =======================================================
(PID.TID 0000.0001) // =======================================================
(PID.TID 0000.0001) // END OF FIELD                                          =
(PID.TID 0000.0001) // =======================================================
(PID.TID 0000.0001) 
(PID.TID 0000.0001) // =======================================================
(PID.TID 0000.0001) // Field Initial Temperature at iteration          1
(PID.TID 0000.0001) // CMIN =          4.000000000000000E+00
(PID.TID 0000.0001) // CMAX =          4.000000000000000E+00
(PID.TID 0000.0001) // CINT =          0.000000000000000E+00
(PID.TID 0000.0001) // SYMBOLS (CMIN->CMAX): -abcdefghijklmnopqrstuvwxyz+
(PID.TID 0000.0001) //                  0.0: .
(PID.TID 0000.0001) // RANGE I (Lo:Hi:Step):(   1:   5:   1)
(PID.TID 0000.0001) // RANGE J (Lo:Hi:Step):(   5:   1:  -1)
(PID.TID 0000.0001) // RANGE K (Lo:Hi:Step):(   1:   1:   1)
(PID.TID 0000.0001) // =======================================================
(PID.TID 0000.0001) // =======================================================
(PID.TID 0000.0001) // END OF FIELD                                          =
(PID.TID 0000.0001) // =======================================================
(PID.TID 0000.0001) 
(PID.TID 0000.0001) // =======================================================
(PID.TID 0000.0001) // Field Initial Salinity at iteration          1
(PID.TID 0000.0001) // CMIN =          3.500000000000000E+01
(PID.TID 0000.0001) // CMAX =          3.500000000000000E+01
(PID.TID 0000.0001) // CINT =          0.000000000000000E+00
(PID.TID 0000.0001) // SYMBOLS (CMIN->CMAX): -abcdefghijklmnopqrstuvwxyz+
(PID.TID 0000.0001) //                  0.0: .
(PID.TID 0000.0001) // RANGE I (Lo:Hi:Step):(   1:   5:   1)
(PID.TID 0000.0001) // RANGE J (Lo:Hi:Step):(   5:   1:  -1)
(PID.TID 0000.0001) // RANGE K (Lo:Hi:Step):(   1:   1:   1)
(PID.TID 0000.0001) // =======================================================
(PID.TID 0000.0001) // =======================================================
(PID.TID 0000.0001) // END OF FIELD                                          =
(PID.TID 0000.0001) // =======================================================
(PID.TID 0000.0001) 
(PID.TID 0000.0001) Start initial hydrostatic pressure computation
(PID.TID 0000.0001) Pressure is predetermined for buoyancyRelation OCEANIC
(PID.TID 0000.0001) 
(PID.TID 0000.0001)  MDS_READ_FIELD: opening global file: windx.sin_y
(PID.TID 0000.0001) // =======================================================
(PID.TID 0000.0001) // Model current state
(PID.TID 0000.0001) // =======================================================
(PID.TID 0000.0001) 
 cg2d: Sum(rhs),rhsMax =   0.00000000000000E+00  0.00000000000000E+00
 cg2d: Sum(rhs),rhsMax =  -2.49999999999996E+01  6.03492218443698E-05
 cg2d: Sum(rhs),rhsMax =  -1.81034404639062E+01  2.18766023587219E-04
 cg2d: Sum(rhs),rhsMax =  -1.54955563006981E+01  4.32479835810340E-04
 cg2d: Sum(rhs),rhsMax =  -1.41111452630970E+01  6.49958986938882E-04
 cg2d: Sum(rhs),rhsMax =  -1.31144322692987E+01  8.30737100555187E-04
 cg2d: Sum(rhs),rhsMax =  -1.21209090692051E+01  9.52510659100342E-04
 cg2d: Sum(rhs),rhsMax =  -1.07124742351754E+01  1.02806631185029E-03
 cg2d: Sum(rhs),rhsMax =  -7.41375937114537E+00  1.27086596260372E-03
 cg2d: Sum(rhs),rhsMax =  -4.70217534036056E+00  1.51019013910198E-03
 cg2d: Sum(rhs),rhsMax =  -2.72440686381329E+00  1.65833738030485E-03
 cg2d: Sum(rhs),rhsMax =  -1.27958669280259E+00  1.70565508479626E-03
 cg2d: Sum(rhs),rhsMax =  -3.29564699305487E-01  1.66071960235786E-03
 cg2d: Sum(rhs),rhsMax =   5.21320418578943E-02  1.54812755788298E-03
 cg2d: Sum(rhs),rhsMax =  -2.86625373387769E-01  1.40338815760167E-03
 cg2d: Sum(rhs),rhsMax =  -1.30315843894780E+00  1.44268598861507E-03
 cg2d: Sum(rhs),rhsMax =  -2.68067691775672E+00  1.50836885651182E-03
 cg2d: Sum(rhs),rhsMax =  -4.07407455921221E+00  1.58424365800145E-03
 cg2d: Sum(rhs),rhsMax =  -5.18272351448078E+00  1.66593591648543E-03
 cg2d: Sum(rhs),rhsMax =  -5.80990602270662E+00  1.74846174058727E-03
 cg2d: Sum(rhs),rhsMax =  -5.87740631617261E+00  1.82725969823237E-03
 cg2d: Sum(rhs),rhsMax =  -5.41358315071579E+00  1.89900433250237E-03
 cg2d: Sum(rhs),rhsMax =  -4.53080679823932E+00  1.96213933049740E-03
 cg2d: Sum(rhs),rhsMax =  -3.22587899122492E+00  2.12611202306098E-03
 cg2d: Sum(rhs),rhsMax =  -2.04447211878058E+00  2.24837953401667E-03
 cg2d: Sum(rhs),rhsMax =  -1.10818137076611E+00  2.30404048767942E-03
 cg2d: Sum(rhs),rhsMax =  -4.90484876664201E-01  2.29576531989016E-03
 cg2d: Sum(rhs),rhsMax =  -2.61247058878218E-01  2.23814841729606E-03
 cg2d: Sum(rhs),rhsMax =  -4.50921967046232E-01  2.26266904585064E-03
 cg2d: Sum(rhs),rhsMax =  -1.00469611050644E+00  2.31946120428875E-03
 cg2d: Sum(rhs),rhsMax =  -1.78565332778738E+00  2.37599938717768E-03
 cg2d: Sum(rhs),rhsMax =  -2.62429311324732E+00  2.42805540297088E-03
 cg2d: Sum(rhs),rhsMax =  -3.35748490298559E+00  2.47123041685043E-03
 cg2d: Sum(rhs),rhsMax =  -3.85508922301110E+00  2.50195594771483E-03
 cg2d: Sum(rhs),rhsMax =  -4.03589983096319E+00  2.51830318791879E-03
 cg2d: Sum(rhs),rhsMax =  -3.87512852955988E+00  2.52047515191575E-03
 cg2d: Sum(rhs),rhsMax =  -3.40600372973381E+00  2.51092917732292E-03
 cg2d: Sum(rhs),rhsMax =  -2.61682439147574E+00  2.58874090231244E-03
 cg2d: Sum(rhs),rhsMax =  -1.83238708787048E+00  2.61669732943040E-03
 cg2d: Sum(rhs),rhsMax =  -1.17513335339612E+00  2.56005949265109E-03
 cg2d: Sum(rhs),rhsMax =  -7.11994605216377E-01  2.47855829256564E-03
 cg2d: Sum(rhs),rhsMax =  -5.26422145016448E-01  2.47042087882099E-03
 cg2d: Sum(rhs),rhsMax =  -6.78930211381948E-01  2.49676865482848E-03
 cg2d: Sum(rhs),rhsMax =  -1.12673722653059E+00  2.53652606409089E-03
 cg2d: Sum(rhs),rhsMax =  -1.75981627402387E+00  2.58504758594312E-03
 cg2d: Sum(rhs),rhsMax =  -2.43940639364021E+00  2.63568084787595E-03
 cg2d: Sum(rhs),rhsMax =  -3.03203014395012E+00  2.68092808130017E-03
 cg2d: Sum(rhs),rhsMax =  -3.40991304880432E+00  2.73286308196557E-03
 cg2d: Sum(rhs),rhsMax =  -3.48046016070322E+00  2.80943926826674E-03
 cg2d: Sum(rhs),rhsMax =  -3.32063065962345E+00  2.84054013267863E-03
 cg2d: Sum(rhs),rhsMax =  -2.96079440720827E+00  2.82589062347977E-03
 cg2d: Sum(rhs),rhsMax =  -2.32992804848308E+00  2.92147980113362E-03
 cg2d: Sum(rhs),rhsMax =  -1.72242450788085E+00  2.94384968387857E-03
 cg2d: Sum(rhs),rhsMax =  -1.21221898854741E+00  2.89157785481801E-03
 cg2d: Sum(rhs),rhsMax =  -8.69698349255216E-01  2.78046463205894E-03
 cg2d: Sum(rhs),rhsMax =  -7.64867757714374E-01  2.63730955928510E-03
 cg2d: Sum(rhs),rhsMax =  -9.31747796221356E-01  2.54529708226903E-03
 cg2d: Sum(rhs),rhsMax =  -1.31074332742986E+00  2.59464773610998E-03
 cg2d: Sum(rhs),rhsMax =  -1.82960836028393E+00  2.67470093401886E-03
 cg2d: Sum(rhs),rhsMax =  -2.36415401092895E+00  2.77096217584335E-03
 cg2d: Sum(rhs),rhsMax =  -2.80794770545134E+00  2.86583711652318E-03
 cg2d: Sum(rhs),rhsMax =  -3.09076528458924E+00  2.94225359881203E-03
 cg2d: Sum(rhs),rhsMax =  -3.17911014078064E+00  2.98708412871555E-03
 cg2d: Sum(rhs),rhsMax =  -3.06968970920995E+00  2.99369707851741E-03
 cg2d: Sum(rhs),rhsMax =  -2.74200020979852E+00  3.00868122953850E-03
 cg2d: Sum(rhs),rhsMax =  -2.22987009871263E+00  3.08320503570238E-03
 cg2d: Sum(rhs),rhsMax =  -1.72892376662025E+00  3.09216609787114E-03
 cg2d: Sum(rhs),rhsMax =  -1.30661119253186E+00  3.03707931538803E-03
 cg2d: Sum(rhs),rhsMax =  -1.02724580957933E+00  2.93201262343117E-03
 cg2d: Sum(rhs),rhsMax =  -9.49612013515962E-01  2.80059576290421E-03
 cg2d: Sum(rhs),rhsMax =  -1.10546673947446E+00  2.68802018824322E-03
 cg2d: Sum(rhs),rhsMax =  -1.41911837422252E+00  2.73183510955974E-03
 cg2d: Sum(rhs),rhsMax =  -1.85263642841366E+00  2.80075131267116E-03
 cg2d: Sum(rhs),rhsMax =  -2.30607094770130E+00  2.88121991743812E-03
 cg2d: Sum(rhs),rhsMax =  -2.69038321671768E+00  2.95745906138630E-03
 cg2d: Sum(rhs),rhsMax =  -2.94313273058812E+00  3.01465317304082E-03
 cg2d: Sum(rhs),rhsMax =  -3.03123911597051E+00  3.04190033634221E-03
 cg2d: Sum(rhs),rhsMax =  -2.94785309919269E+00  3.03433147995252E-03
 cg2d: Sum(rhs),rhsMax =  -2.61356643181587E+00  3.10365987104656E-03
 cg2d: Sum(rhs),rhsMax =  -2.18161306475047E+00  3.16115514143849E-03
 cg2d: Sum(rhs),rhsMax =  -1.75526113715383E+00  3.15966322746455E-03
 cg2d: Sum(rhs),rhsMax =  -1.39603733874721E+00  3.10114921655917E-03
 cg2d: Sum(rhs),rhsMax =  -1.16177130630684E+00  2.99876555074651E-03
 cg2d: Sum(rhs),rhsMax =  -1.10293737298240E+00  2.87411093059152E-03
 cg2d: Sum(rhs),rhsMax =  -1.24975123111016E+00  2.75286364501656E-03
 cg2d: Sum(rhs),rhsMax =  -1.53840857799748E+00  2.75098224580363E-03
 cg2d: Sum(rhs),rhsMax =  -1.91301860374180E+00  2.81271677219708E-03
 cg2d: Sum(rhs),rhsMax =  -2.30705927703160E+00  2.88449389400738E-03
 cg2d: Sum(rhs),rhsMax =  -2.64297539856359E+00  2.95188733934165E-03
 cg2d: Sum(rhs),rhsMax =  -2.86495115708778E+00  3.00154127101189E-03
 cg2d: Sum(rhs),rhsMax =  -2.94238794691281E+00  3.02377934783042E-03
 cg2d: Sum(rhs),rhsMax =  -2.84207296220685E+00  3.04217218137327E-03
 cg2d: Sum(rhs),rhsMax =  -2.51902160213451E+00  3.13830816656550E-03
 cg2d: Sum(rhs),rhsMax =  -2.14123715940717E+00  3.18959335374029E-03
 cg2d: Sum(rhs),rhsMax =  -1.76835905764010E+00  3.18714944547235E-03
 cg2d: Sum(rhs),rhsMax =  -1.45590337091119E+00  3.13272241681210E-03
 cg2d: Sum(rhs),rhsMax =  -1.25508058402925E+00  3.03818430025379E-03
 cg2d: Sum(rhs),rhsMax =  -1.20874890941946E+00  2.92306005109643E-03
 cg2d: Sum(rhs),rhsMax =  -1.34034296344401E+00  2.81059319638998E-03
 cg2d: Sum(rhs),rhsMax =  -1.62624316518973E+00  2.74190582449965E-03
(PID.TID 0000.0001) %CHECKPOINT       100 ckptB
 --> objf_test(bi,bj)   =  0.509071986741153E-01
 --> objf_tracer(bi,bj) =  0.000000000000000E+00
 --> objf_atl(bi,bj)    =  0.000000000000000E+00
  local fc =  0.509071986741153E-01
 global fc =  0.509071986741153E-01
(PID.TID 0000.0001)  MDS_READ_FIELD: opening file: xx_depth.0000000000.001.001.data
grad-res -------------------------------
 grad-res     0    2    2    1    1    1    1    1   0.509071982062E-01 0.509071977382E-01 0.509071986741E-01
 grad-res     0    2    2    2   25    1    1    1   -.467928412964E-05 -.467963719858E-05 -.754536220831E-04
(PID.TID 0000.0001)   ADM  precision_derivative_cost =    5.09071982061515E-02
(PID.TID 0000.0001)   ADM  precision_derivative_grad =   -4.67928412964277E-06
 ph-grd  ierr ---------------------------
 ph-grd  ierr =  0, icomp =  2, ichknum =  2
 ph-grd -->hit<--  3 1 1 1
(PID.TID 0000.0001)  MDS_READ_FIELD: opening file: adxx_depth.0000000000.001.001.data
(PID.TID 0000.0001)  MDS_READ_FIELD: opening file: xx_depth.0000000000.001.001.data
(PID.TID 0000.0001)  MDS_READ_FIELD: opening global file: noWalls.bigRidge
(PID.TID 0000.0001) // =======================================================
(PID.TID 0000.0001) // Field Model R_low (ini_masks_etc) at iteration          1
(PID.TID 0000.0001) // CMIN =         -5.000000000000000E+03
(PID.TID 0000.0001) // CMAX =         -2.000000000000000E+03
(PID.TID 0000.0001) // CINT =          1.111111111111111E+02
(PID.TID 0000.0001) // SYMBOLS (CMIN->CMAX): -abcdefghijklmnopqrstuvwxyz+
(PID.TID 0000.0001) //                  0.0: .
(PID.TID 0000.0001) // RANGE I (Lo:Hi:Step):(  -1:   7:   1)
(PID.TID 0000.0001) // RANGE J (Lo:Hi:Step):(   7:  -1:  -1)
(PID.TID 0000.0001) // RANGE K (Lo:Hi:Step):(   1:   1:   1)
(PID.TID 0000.0001) // =======================================================
(PID.TID 0000.0001) K =   1
(PID.TID 0000.0001) //
(PID.TID 0000.0001) // |--J--|101234567
(PID.TID 0000.0001) //      7 ----+----
(PID.TID 0000.0001) //      6 ----+----
(PID.TID 0000.0001) //      5 ----+----
(PID.TID 0000.0001) //      4 ----+----
(PID.TID 0000.0001) //      3 ----+----
(PID.TID 0000.0001) //      2 ----+----
(PID.TID 0000.0001) //      1 ----+----
(PID.TID 0000.0001) //      0 ----+----
(PID.TID 0000.0001) //     -1 ----+----
(PID.TID 0000.0001) // =======================================================
(PID.TID 0000.0001) // END OF FIELD                                          =
(PID.TID 0000.0001) // =======================================================
(PID.TID 0000.0001) 
(PID.TID 0000.0001) // =======================================================
(PID.TID 0000.0001) // Field Model Ro_surf (ini_masks_etc) at iteration          1
(PID.TID 0000.0001) // CMIN =          1.000000000000000E+32
(PID.TID 0000.0001) // CMAX =         -1.000000000000000E+32
(PID.TID 0000.0001) // CINT =          0.000000000000000E+00
(PID.TID 0000.0001) // SYMBOLS (CMIN->CMAX): -abcdefghijklmnopqrstuvwxyz+
(PID.TID 0000.0001) //                  0.0: .
(PID.TID 0000.0001) // RANGE I (Lo:Hi:Step):(  -1:   7:   1)
(PID.TID 0000.0001) // RANGE J (Lo:Hi:Step):(   7:  -1:  -1)
(PID.TID 0000.0001) // RANGE K (Lo:Hi:Step):(   1:   1:   1)
(PID.TID 0000.0001) // =======================================================
(PID.TID 0000.0001) // =======================================================
(PID.TID 0000.0001) // END OF FIELD                                          =
(PID.TID 0000.0001) // =======================================================
(PID.TID 0000.0001) 
(PID.TID 0000.0001) // =======================================================
(PID.TID 0000.0001) // Field hFacC at iteration          1
(PID.TID 0000.0001) // CMIN =          1.000000000000000E+00
(PID.TID 0000.0001) // CMAX =          1.000000000000000E+00
(PID.TID 0000.0001) // CINT =          0.000000000000000E+00
(PID.TID 0000.0001) // SYMBOLS (CMIN->CMAX): -abcdefghijklmnopqrstuvwxyz+
(PID.TID 0000.0001) //                  0.0: .
(PID.TID 0000.0001) // RANGE I (Lo:Hi:Step):(  -1:   7:   1)
(PID.TID 0000.0001) // RANGE J (Lo:Hi:Step):(   7:  -1:  -1)
(PID.TID 0000.0001) // RANGE K (Lo:Hi:Step):(   1:   1:   1)
(PID.TID 0000.0001) // =======================================================
(PID.TID 0000.0001) // =======================================================
(PID.TID 0000.0001) // END OF FIELD                                          =
(PID.TID 0000.0001) // =======================================================
(PID.TID 0000.0001) 
(PID.TID 0000.0001) // =======================================================
(PID.TID 0000.0001) // Field hFacW at iteration          1
(PID.TID 0000.0001) // CMIN =          1.000000000000000E+00
(PID.TID 0000.0001) // CMAX =          1.000000000000000E+00
(PID.TID 0000.0001) // CINT =          0.000000000000000E+00
(PID.TID 0000.0001) // SYMBOLS (CMIN->CMAX): -abcdefghijklmnopqrstuvwxyz+
(PID.TID 0000.0001) //                  0.0: .
(PID.TID 0000.0001) // RANGE I (Lo:Hi:Step):(  -1:   7:   1)
(PID.TID 0000.0001) // RANGE J (Lo:Hi:Step):(   7:  -1:  -1)
(PID.TID 0000.0001) // RANGE K (Lo:Hi:Step):(   1:   1:   1)
(PID.TID 0000.0001) // =======================================================
(PID.TID 0000.0001) // =======================================================
(PID.TID 0000.0001) // END OF FIELD                                          =
(PID.TID 0000.0001) // =======================================================
(PID.TID 0000.0001) 
(PID.TID 0000.0001) // =======================================================
(PID.TID 0000.0001) // Field hFacS at iteration          1
(PID.TID 0000.0001) // CMIN =          1.000000000000000E+00
(PID.TID 0000.0001) // CMAX =          1.000000000000000E+00
(PID.TID 0000.0001) // CINT =          0.000000000000000E+00
(PID.TID 0000.0001) // SYMBOLS (CMIN->CMAX): -abcdefghijklmnopqrstuvwxyz+
(PID.TID 0000.0001) //                  0.0: .
(PID.TID 0000.0001) // RANGE I (Lo:Hi:Step):(  -1:   7:   1)
(PID.TID 0000.0001) // RANGE J (Lo:Hi:Step):(   7:  -1:  -1)
(PID.TID 0000.0001) // RANGE K (Lo:Hi:Step):(   1:   1:   1)
(PID.TID 0000.0001) // =======================================================
(PID.TID 0000.0001) // =======================================================
(PID.TID 0000.0001) // END OF FIELD                                          =
(PID.TID 0000.0001) // =======================================================
(PID.TID 0000.0001) 
(PID.TID 0000.0001) %MON surfExpanfCori_max           =  -1.0735540000000E-04
(PID.TID 0000.0001) %MON surfExpanfCori_min           =  -1.1783060000000E-04
(PID.TID 0000.0001) %MON surfExpanfCori_mean          =  -1.1259300000000E-04
(PID.TID 0000.0001) %MON surfExpanfCori_sd            =   3.7035424771427E-06
(PID.TID 0000.0001) %MON surfExpanfCoriG_max          =  -1.0866480000000E-04
(PID.TID 0000.0001) %MON surfExpanfCoriG_min          =  -1.1914000000000E-04
(PID.TID 0000.0001) %MON surfExpanfCoriG_mean         =  -1.1390240000000E-04
(PID.TID 0000.0001) %MON surfExpanfCoriG_sd           =   3.7035424771427E-06
(PID.TID 0000.0001) %MON surfExpanfCoriCos_max        =   0.0000000000000E+00
(PID.TID 0000.0001) %MON surfExpanfCoriCos_min        =   0.0000000000000E+00
(PID.TID 0000.0001) %MON surfExpanfCoriCos_mean       =   0.0000000000000E+00
(PID.TID 0000.0001) %MON surfExpanfCoriCos_sd         =   0.0000000000000E+00
(PID.TID 0000.0001) INI_CG2D: CG2D normalisation factor =  1.9999999999999996E-04
(PID.TID 0000.0001) 
                     ctrl_depth_ini: ctrl update R_low,
                                     adding the control vector.
(PID.TID 0000.0001)  MDS_READ_FIELD: opening file: xx_depth.0000000000.001.001.data
(PID.TID 0000.0001) // =======================================================
(PID.TID 0000.0001) // Field Model Ro_surf (update_masks_etc) at iteration          1
(PID.TID 0000.0001) // CMIN =          1.000000000000000E+32
(PID.TID 0000.0001) // CMAX =         -1.000000000000000E+32
(PID.TID 0000.0001) // CINT =          0.000000000000000E+00
(PID.TID 0000.0001) // SYMBOLS (CMIN->CMAX): -abcdefghijklmnopqrstuvwxyz+
(PID.TID 0000.0001) //                  0.0: .
(PID.TID 0000.0001) // RANGE I (Lo:Hi:Step):(  -1:   7:   1)
(PID.TID 0000.0001) // RANGE J (Lo:Hi:Step):(   7:  -1:  -1)
(PID.TID 0000.0001) // RANGE K (Lo:Hi:Step):(   1:   1:   1)
(PID.TID 0000.0001) // =======================================================
(PID.TID 0000.0001) // =======================================================
(PID.TID 0000.0001) // END OF FIELD                                          =
(PID.TID 0000.0001) // =======================================================
(PID.TID 0000.0001) 
(PID.TID 0000.0001) // =======================================================
(PID.TID 0000.0001) // Field hFacC at iteration          1
(PID.TID 0000.0001) // CMIN =          1.000000000000000E+00
(PID.TID 0000.0001) // CMAX =          1.000000000000000E+00
(PID.TID 0000.0001) // CINT =          0.000000000000000E+00
(PID.TID 0000.0001) // SYMBOLS (CMIN->CMAX): -abcdefghijklmnopqrstuvwxyz+
(PID.TID 0000.0001) //                  0.0: .
(PID.TID 0000.0001) // RANGE I (Lo:Hi:Step):(  -1:   7:   1)
(PID.TID 0000.0001) // RANGE J (Lo:Hi:Step):(   7:  -1:  -1)
(PID.TID 0000.0001) // RANGE K (Lo:Hi:Step):(   1:   1:   1)
(PID.TID 0000.0001) // =======================================================
(PID.TID 0000.0001) // =======================================================
(PID.TID 0000.0001) // END OF FIELD                                          =
(PID.TID 0000.0001) // =======================================================
(PID.TID 0000.0001) 
(PID.TID 0000.0001) // =======================================================
(PID.TID 0000.0001) // Field hFacW at iteration          1
(PID.TID 0000.0001) // CMIN =          1.000000000000000E+00
(PID.TID 0000.0001) // CMAX =          1.000000000000000E+00
(PID.TID 0000.0001) // CINT =          0.000000000000000E+00
(PID.TID 0000.0001) // SYMBOLS (CMIN->CMAX): -abcdefghijklmnopqrstuvwxyz+
(PID.TID 0000.0001) //                  0.0: .
(PID.TID 0000.0001) // RANGE I (Lo:Hi:Step):(  -1:   7:   1)
(PID.TID 0000.0001) // RANGE J (Lo:Hi:Step):(   7:  -1:  -1)
(PID.TID 0000.0001) // RANGE K (Lo:Hi:Step):(   1:   1:   1)
(PID.TID 0000.0001) // =======================================================
(PID.TID 0000.0001) // =======================================================
(PID.TID 0000.0001) // END OF FIELD                                          =
(PID.TID 0000.0001) // =======================================================
(PID.TID 0000.0001) 
(PID.TID 0000.0001) // =======================================================
(PID.TID 0000.0001) // Field hFacS at iteration          1
(PID.TID 0000.0001) // CMIN =          1.000000000000000E+00
(PID.TID 0000.0001) // CMAX =          1.000000000000000E+00
(PID.TID 0000.0001) // CINT =          0.000000000000000E+00
(PID.TID 0000.0001) // SYMBOLS (CMIN->CMAX): -abcdefghijklmnopqrstuvwxyz+
(PID.TID 0000.0001) //                  0.0: .
(PID.TID 0000.0001) // RANGE I (Lo:Hi:Step):(  -1:   7:   1)
(PID.TID 0000.0001) // RANGE J (Lo:Hi:Step):(   7:  -1:  -1)
(PID.TID 0000.0001) // RANGE K (Lo:Hi:Step):(   1:   1:   1)
(PID.TID 0000.0001) // =======================================================
(PID.TID 0000.0001) // =======================================================
(PID.TID 0000.0001) // END OF FIELD                                          =
(PID.TID 0000.0001) // =======================================================
(PID.TID 0000.0001) 
(PID.TID 0000.0001) // =======================================================
(PID.TID 0000.0001) // Field Initial Temperature at iteration          1
(PID.TID 0000.0001) // CMIN =          4.000000000000000E+00
(PID.TID 0000.0001) // CMAX =          4.000000000000000E+00
(PID.TID 0000.0001) // CINT =          0.000000000000000E+00
(PID.TID 0000.0001) // SYMBOLS (CMIN->CMAX): -abcdefghijklmnopqrstuvwxyz+
(PID.TID 0000.0001) //                  0.0: .
(PID.TID 0000.0001) // RANGE I (Lo:Hi:Step):(   1:   5:   1)
(PID.TID 0000.0001) // RANGE J (Lo:Hi:Step):(   5:   1:  -1)
(PID.TID 0000.0001) // RANGE K (Lo:Hi:Step):(   1:   1:   1)
(PID.TID 0000.0001) // =======================================================
(PID.TID 0000.0001) // =======================================================
(PID.TID 0000.0001) // END OF FIELD                                          =
(PID.TID 0000.0001) // =======================================================
(PID.TID 0000.0001) 
(PID.TID 0000.0001) // =======================================================
(PID.TID 0000.0001) // Field Initial Salinity at iteration          1
(PID.TID 0000.0001) // CMIN =          3.500000000000000E+01
(PID.TID 0000.0001) // CMAX =          3.500000000000000E+01
(PID.TID 0000.0001) // CINT =          0.000000000000000E+00
(PID.TID 0000.0001) // SYMBOLS (CMIN->CMAX): -abcdefghijklmnopqrstuvwxyz+
(PID.TID 0000.0001) //                  0.0: .
(PID.TID 0000.0001) // RANGE I (Lo:Hi:Step):(   1:   5:   1)
(PID.TID 0000.0001) // RANGE J (Lo:Hi:Step):(   5:   1:  -1)
(PID.TID 0000.0001) // RANGE K (Lo:Hi:Step):(   1:   1:   1)
(PID.TID 0000.0001) // =======================================================
(PID.TID 0000.0001) // =======================================================
(PID.TID 0000.0001) // END OF FIELD                                          =
(PID.TID 0000.0001) // =======================================================
(PID.TID 0000.0001) 
(PID.TID 0000.0001) Start initial hydrostatic pressure computation
(PID.TID 0000.0001) Pressure is predetermined for buoyancyRelation OCEANIC
(PID.TID 0000.0001) 
(PID.TID 0000.0001)  MDS_READ_FIELD: opening global file: windx.sin_y
(PID.TID 0000.0001) // =======================================================
(PID.TID 0000.0001) // Model current state
(PID.TID 0000.0001) // =======================================================
(PID.TID 0000.0001) 
 cg2d: Sum(rhs),rhsMax =   0.00000000000000E+00  0.00000000000000E+00
 cg2d: Sum(rhs),rhsMax =  -2.49999999999996E+01  6.03492218443698E-05
 cg2d: Sum(rhs),rhsMax =  -1.81034404639062E+01  2.18766023587219E-04
 cg2d: Sum(rhs),rhsMax =  -1.54955562575402E+01  4.32479837014020E-04
 cg2d: Sum(rhs),rhsMax =  -1.41111451994191E+01  6.49958989864773E-04
 cg2d: Sum(rhs),rhsMax =  -1.31144322051674E+01  8.30737104598382E-04
 cg2d: Sum(rhs),rhsMax =  -1.21209090171331E+01  9.52510663156351E-04
 cg2d: Sum(rhs),rhsMax =  -1.07124742327882E+01  1.02806631202307E-03
 cg2d: Sum(rhs),rhsMax =  -7.41375935940449E+00  1.27086596452519E-03
 cg2d: Sum(rhs),rhsMax =  -4.70217532865748E+00  1.51019014274077E-03
 cg2d: Sum(rhs),rhsMax =  -2.72440685534073E+00  1.65833738539645E-03
 cg2d: Sum(rhs),rhsMax =  -1.27958668863976E+00  1.70565509077264E-03
 cg2d: Sum(rhs),rhsMax =  -3.29564699091454E-01  1.66071960842664E-03
 cg2d: Sum(rhs),rhsMax =   5.21320396799247E-02  1.54812756315557E-03
 cg2d: Sum(rhs),rhsMax =  -2.86625376089798E-01  1.40338816124267E-03
 cg2d: Sum(rhs),rhsMax =  -1.30315842173985E+00  1.44268601284498E-03
 cg2d: Sum(rhs),rhsMax =  -2.68067688220689E+00  1.50836887976214E-03
 cg2d: Sum(rhs),rhsMax =  -4.07407451006593E+00  1.58424367970608E-03
 cg2d: Sum(rhs),rhsMax =  -5.18272345892387E+00  1.66593593670439E-03
 cg2d: Sum(rhs),rhsMax =  -5.80990596596646E+00  1.74846176001497E-03
 cg2d: Sum(rhs),rhsMax =  -5.87740626046710E+00  1.82725971808373E-03
 cg2d: Sum(rhs),rhsMax =  -5.41358309700531E+00  1.89900435429955E-03
 cg2d: Sum(rhs),rhsMax =  -4.53080674857811E+00  1.96213935579821E-03
 cg2d: Sum(rhs),rhsMax =  -3.22587901051962E+00  2.12611201612707E-03
 cg2d: Sum(rhs),rhsMax =  -2.04447213338447E+00  2.24837952803567E-03
 cg2d: Sum(rhs),rhsMax =  -1.10818138339924E+00  2.30404048236798E-03
 cg2d: Sum(rhs),rhsMax =  -4.90484889357260E-01  2.29576531470518E-03
 cg2d: Sum(rhs),rhsMax =  -2.61247073284169E-01  2.23814841153814E-03
 cg2d: Sum(rhs),rhsMax =  -4.50921971814935E-01  2.26266910075186E-03
 cg2d: Sum(rhs),rhsMax =  -1.00469610355197E+00  2.31946126098579E-03
 cg2d: Sum(rhs),rhsMax =  -1.78565330428647E+00  2.37599944440690E-03
 cg2d: Sum(rhs),rhsMax =  -2.62429307313221E+00  2.42805545984464E-03
 cg2d: Sum(rhs),rhsMax =  -3.35748484981188E+00  2.47123047299739E-03
 cg2d: Sum(rhs),rhsMax =  -3.85508916211429E+00  2.50195600331550E-03
 cg2d: Sum(rhs),rhsMax =  -4.03589976806051E+00  2.51830324363419E-03
 cg2d: Sum(rhs),rhsMax =  -3.87512847022897E+00  2.52047520872732E-03
 cg2d: Sum(rhs),rhsMax =  -3.40600367943848E+00  2.51092923631920E-03
 cg2d: Sum(rhs),rhsMax =  -2.61682446428779E+00  2.58874086041576E-03
 cg2d: Sum(rhs),rhsMax =  -1.83238714994944E+00  2.61669728635235E-03
 cg2d: Sum(rhs),rhsMax =  -1.17513340845797E+00  2.56005944831472E-03
 cg2d: Sum(rhs),rhsMax =  -7.11994649766207E-01  2.47855827102747E-03
 cg2d: Sum(rhs),rhsMax =  -5.26422169950335E-01  2.47042095598859E-03
 cg2d: Sum(rhs),rhsMax =  -6.78930233871340E-01  2.49676873439835E-03
 cg2d: Sum(rhs),rhsMax =  -1.12673723733986E+00  2.53652614512916E-03
 cg2d: Sum(rhs),rhsMax =  -1.75981626777116E+00  2.58504766762305E-03
 cg2d: Sum(rhs),rhsMax =  -2.43940636972437E+00  2.63568092962893E-03
 cg2d: Sum(rhs),rhsMax =  -3.03203010569750E+00  2.68092816290436E-03
 cg2d: Sum(rhs),rhsMax =  -3.40991312233584E+00  2.73286306784570E-03
 cg2d: Sum(rhs),rhsMax =  -3.48046023640372E+00  2.80943925316091E-03
 cg2d: Sum(rhs),rhsMax =  -3.32063073723615E+00  2.84054011652558E-03
 cg2d: Sum(rhs),rhsMax =  -2.96079448657631E+00  2.82589060621373E-03
 cg2d: Sum(rhs),rhsMax =  -2.32992816384541E+00  2.92147973348239E-03
 cg2d: Sum(rhs),rhsMax =  -1.72242461148204E+00  2.94384961472159E-03
 cg2d: Sum(rhs),rhsMax =  -1.21221908488803E+00  2.89157778409149E-03
 cg2d: Sum(rhs),rhsMax =  -8.69698444021698E-01  2.78046455964938E-03
 cg2d: Sum(rhs),rhsMax =  -7.64867858477978E-01  2.63730948506354E-03
 cg2d: Sum(rhs),rhsMax =  -9.31747890976700E-01  2.54529705752141E-03
 cg2d: Sum(rhs),rhsMax =  -1.31074342834736E+00  2.59464771009152E-03
 cg2d: Sum(rhs),rhsMax =  -1.82960846775357E+00  2.67470090672902E-03
 cg2d: Sum(rhs),rhsMax =  -2.36415412448025E+00  2.77096214727349E-03
 cg2d: Sum(rhs),rhsMax =  -2.80794782410293E+00  2.86583708665602E-03
 cg2d: Sum(rhs),rhsMax =  -3.09076540724649E+00  2.94225356762424E-03
 cg2d: Sum(rhs),rhsMax =  -3.17911026645770E+00  2.98708409618267E-03
 cg2d: Sum(rhs),rhsMax =  -3.06968983706190E+00  2.99369704461988E-03
 cg2d: Sum(rhs),rhsMax =  -2.74200038606462E+00  3.00868114000726E-03
 cg2d: Sum(rhs),rhsMax =  -2.22987025879869E+00  3.08320494471918E-03
 cg2d: Sum(rhs),rhsMax =  -1.72892391431717E+00  3.09216600528064E-03
 cg2d: Sum(rhs),rhsMax =  -1.30661133288270E+00  3.03707922098549E-03
 cg2d: Sum(rhs),rhsMax =  -1.02724594901459E+00  2.93201252700124E-03
 cg2d: Sum(rhs),rhsMax =  -9.49612160248654E-01  2.80059566426359E-03
 cg2d: Sum(rhs),rhsMax =  -1.10546687816523E+00  2.68802014529218E-03
 cg2d: Sum(rhs),rhsMax =  -1.41911851927939E+00  2.73183506547108E-03
 cg2d: Sum(rhs),rhsMax =  -1.85263658045857E+00  2.80075126746611E-03
 cg2d: Sum(rhs),rhsMax =  -2.30607110629163E+00  2.88121987112345E-03
 cg2d: Sum(rhs),rhsMax =  -2.69038338074485E+00  2.95745901395652E-03
 cg2d: Sum(rhs),rhsMax =  -2.94313289873365E+00  3.01465312448305E-03
 cg2d: Sum(rhs),rhsMax =  -3.03123928697483E+00  3.04190028664276E-03
 cg2d: Sum(rhs),rhsMax =  -2.94785327191678E+00  3.03433142910359E-03
 cg2d: Sum(rhs),rhsMax =  -2.61356665085144E+00  3.10365975566809E-03
 cg2d: Sum(rhs),rhsMax =  -2.18161326623976E+00  3.16115502459247E-03
 cg2d: Sum(rhs),rhsMax =  -1.75526132511520E+00  3.15966310894412E-03
 cg2d: Sum(rhs),rhsMax =  -1.39603751876332E+00  3.10114909609653E-03
 cg2d: Sum(rhs),rhsMax =  -1.16177148553157E+00  2.99876542806004E-03
 cg2d: Sum(rhs),rhsMax =  -1.10293756033157E+00  2.87411080543575E-03
 cg2d: Sum(rhs),rhsMax =  -1.24975143678906E+00  2.75286351722536E-03
 cg2d: Sum(rhs),rhsMax =  -1.53840876102255E+00  2.75098218691310E-03
 cg2d: Sum(rhs),rhsMax =  -1.91301879340658E+00  2.81271671250916E-03
 cg2d: Sum(rhs),rhsMax =  -2.30705947283233E+00  2.88449383354434E-03
 cg2d: Sum(rhs),rhsMax =  -2.64297559925274E+00  2.95188727811587E-03
 cg2d: Sum(rhs),rhsMax =  -2.86495136116740E+00  3.00154120902963E-03
 cg2d: Sum(rhs),rhsMax =  -2.94238815293938E+00  3.02377928509666E-03
 cg2d: Sum(rhs),rhsMax =  -2.84207324110305E+00  3.04217203799314E-03
 cg2d: Sum(rhs),rhsMax =  -2.51902185967217E+00  3.13830802154671E-03
 cg2d: Sum(rhs),rhsMax =  -2.14123739732428E+00  3.18959320701073E-03
 cg2d: Sum(rhs),rhsMax =  -1.76835928021614E+00  3.18714929686500E-03
 cg2d: Sum(rhs),rhsMax =  -1.45590358428624E+00  3.13272226609687E-03
 cg2d: Sum(rhs),rhsMax =  -1.25508079609684E+00  3.03818414718127E-03
 cg2d: Sum(rhs),rhsMax =  -1.20874912983799E+00  2.92305989544433E-03
 cg2d: Sum(rhs),rhsMax =  -1.34034320293682E+00  2.81059303800318E-03
 cg2d: Sum(rhs),rhsMax =  -1.62624337570944E+00  2.74190575607009E-03
(PID.TID 0000.0001) %CHECKPOINT       100 ckptA
 --> objf_test(bi,bj)   =  0.509071977689011E-01
 --> objf_tracer(bi,bj) =  0.000000000000000E+00
 --> objf_atl(bi,bj)    =  0.000000000000000E+00
  local fc =  0.509071977689011E-01
 global fc =  0.509071977689011E-01
 ph-check fcpertplus =   0.0509071978
(PID.TID 0000.0001)  MDS_READ_FIELD: opening file: xx_depth.0000000000.001.001.data
 ph-check fcpertminus =   0.0509071982
(PID.TID 0000.0001)  MDS_READ_FIELD: opening file: xx_depth.0000000000.001.001.data
(PID.TID 0000.0001)  MDS_READ_FIELD: opening global file: noWalls.bigRidge
(PID.TID 0000.0001) // =======================================================
(PID.TID 0000.0001) // Field Model R_low (ini_masks_etc) at iteration          1
(PID.TID 0000.0001) // CMIN =         -5.000000000000000E+03
(PID.TID 0000.0001) // CMAX =         -2.000000000000000E+03
(PID.TID 0000.0001) // CINT =          1.111111111111111E+02
(PID.TID 0000.0001) // SYMBOLS (CMIN->CMAX): -abcdefghijklmnopqrstuvwxyz+
(PID.TID 0000.0001) //                  0.0: .
(PID.TID 0000.0001) // RANGE I (Lo:Hi:Step):(  -1:   7:   1)
(PID.TID 0000.0001) // RANGE J (Lo:Hi:Step):(   7:  -1:  -1)
(PID.TID 0000.0001) // RANGE K (Lo:Hi:Step):(   1:   1:   1)
(PID.TID 0000.0001) // =======================================================
(PID.TID 0000.0001) K =   1
(PID.TID 0000.0001) //
(PID.TID 0000.0001) // |--J--|101234567
(PID.TID 0000.0001) //      7 ----+----
(PID.TID 0000.0001) //      6 ----+----
(PID.TID 0000.0001) //      5 ----+----
(PID.TID 0000.0001) //      4 ----+----
(PID.TID 0000.0001) //      3 ----+----
(PID.TID 0000.0001) //      2 ----+----
(PID.TID 0000.0001) //      1 ----+----
(PID.TID 0000.0001) //      0 ----+----
(PID.TID 0000.0001) //     -1 ----+----
(PID.TID 0000.0001) // =======================================================
(PID.TID 0000.0001) // END OF FIELD                                          =
(PID.TID 0000.0001) // =======================================================
(PID.TID 0000.0001) 
(PID.TID 0000.0001) // =======================================================
(PID.TID 0000.0001) // Field Model Ro_surf (ini_masks_etc) at iteration          1
(PID.TID 0000.0001) // CMIN =          1.000000000000000E+32
(PID.TID 0000.0001) // CMAX =         -1.000000000000000E+32
(PID.TID 0000.0001) // CINT =          0.000000000000000E+00
(PID.TID 0000.0001) // SYMBOLS (CMIN->CMAX): -abcdefghijklmnopqrstuvwxyz+
(PID.TID 0000.0001) //                  0.0: .
(PID.TID 0000.0001) // RANGE I (Lo:Hi:Step):(  -1:   7:   1)
(PID.TID 0000.0001) // RANGE J (Lo:Hi:Step):(   7:  -1:  -1)
(PID.TID 0000.0001) // RANGE K (Lo:Hi:Step):(   1:   1:   1)
(PID.TID 0000.0001) // =======================================================
(PID.TID 0000.0001) // =======================================================
(PID.TID 0000.0001) // END OF FIELD                                          =
(PID.TID 0000.0001) // =======================================================
(PID.TID 0000.0001) 
(PID.TID 0000.0001) // =======================================================
(PID.TID 0000.0001) // Field hFacC at iteration          1
(PID.TID 0000.0001) // CMIN =          1.000000000000000E+00
(PID.TID 0000.0001) // CMAX =          1.000000000000000E+00
(PID.TID 0000.0001) // CINT =          0.000000000000000E+00
(PID.TID 0000.0001) // SYMBOLS (CMIN->CMAX): -abcdefghijklmnopqrstuvwxyz+
(PID.TID 0000.0001) //                  0.0: .
(PID.TID 0000.0001) // RANGE I (Lo:Hi:Step):(  -1:   7:   1)
(PID.TID 0000.0001) // RANGE J (Lo:Hi:Step):(   7:  -1:  -1)
(PID.TID 0000.0001) // RANGE K (Lo:Hi:Step):(   1:   1:   1)
(PID.TID 0000.0001) // =======================================================
(PID.TID 0000.0001) // =======================================================
(PID.TID 0000.0001) // END OF FIELD                                          =
(PID.TID 0000.0001) // =======================================================
(PID.TID 0000.0001) 
(PID.TID 0000.0001) // =======================================================
(PID.TID 0000.0001) // Field hFacW at iteration          1
(PID.TID 0000.0001) // CMIN =          1.000000000000000E+00
(PID.TID 0000.0001) // CMAX =          1.000000000000000E+00
(PID.TID 0000.0001) // CINT =          0.000000000000000E+00
(PID.TID 0000.0001) // SYMBOLS (CMIN->CMAX): -abcdefghijklmnopqrstuvwxyz+
(PID.TID 0000.0001) //                  0.0: .
(PID.TID 0000.0001) // RANGE I (Lo:Hi:Step):(  -1:   7:   1)
(PID.TID 0000.0001) // RANGE J (Lo:Hi:Step):(   7:  -1:  -1)
(PID.TID 0000.0001) // RANGE K (Lo:Hi:Step):(   1:   1:   1)
(PID.TID 0000.0001) // =======================================================
(PID.TID 0000.0001) // =======================================================
(PID.TID 0000.0001) // END OF FIELD                                          =
(PID.TID 0000.0001) // =======================================================
(PID.TID 0000.0001) 
(PID.TID 0000.0001) // =======================================================
(PID.TID 0000.0001) // Field hFacS at iteration          1
(PID.TID 0000.0001) // CMIN =          1.000000000000000E+00
(PID.TID 0000.0001) // CMAX =          1.000000000000000E+00
(PID.TID 0000.0001) // CINT =          0.000000000000000E+00
(PID.TID 0000.0001) // SYMBOLS (CMIN->CMAX): -abcdefghijklmnopqrstuvwxyz+
(PID.TID 0000.0001) //                  0.0: .
(PID.TID 0000.0001) // RANGE I (Lo:Hi:Step):(  -1:   7:   1)
(PID.TID 0000.0001) // RANGE J (Lo:Hi:Step):(   7:  -1:  -1)
(PID.TID 0000.0001) // RANGE K (Lo:Hi:Step):(   1:   1:   1)
(PID.TID 0000.0001) // =======================================================
(PID.TID 0000.0001) // =======================================================
(PID.TID 0000.0001) // END OF FIELD                                          =
(PID.TID 0000.0001) // =======================================================
(PID.TID 0000.0001) 
(PID.TID 0000.0001) %MON surfExpanfCori_max           =  -1.0735540000000E-04
(PID.TID 0000.0001) %MON surfExpanfCori_min           =  -1.1783060000000E-04
(PID.TID 0000.0001) %MON surfExpanfCori_mean          =  -1.1259300000000E-04
(PID.TID 0000.0001) %MON surfExpanfCori_sd            =   3.7035424771427E-06
(PID.TID 0000.0001) %MON surfExpanfCoriG_max          =  -1.0866480000000E-04
(PID.TID 0000.0001) %MON surfExpanfCoriG_min          =  -1.1914000000000E-04
(PID.TID 0000.0001) %MON surfExpanfCoriG_mean         =  -1.1390240000000E-04
(PID.TID 0000.0001) %MON surfExpanfCoriG_sd           =   3.7035424771427E-06
(PID.TID 0000.0001) %MON surfExpanfCoriCos_max        =   0.0000000000000E+00
(PID.TID 0000.0001) %MON surfExpanfCoriCos_min        =   0.0000000000000E+00
(PID.TID 0000.0001) %MON surfExpanfCoriCos_mean       =   0.0000000000000E+00
(PID.TID 0000.0001) %MON surfExpanfCoriCos_sd         =   0.0000000000000E+00
(PID.TID 0000.0001) INI_CG2D: CG2D normalisation factor =  1.9999999999999996E-04
(PID.TID 0000.0001) 
                     ctrl_depth_ini: ctrl update R_low,
                                     adding the control vector.
(PID.TID 0000.0001)  MDS_READ_FIELD: opening file: xx_depth.0000000000.001.001.data
(PID.TID 0000.0001) // =======================================================
(PID.TID 0000.0001) // Field Model Ro_surf (update_masks_etc) at iteration          1
(PID.TID 0000.0001) // CMIN =          1.000000000000000E+32
(PID.TID 0000.0001) // CMAX =         -1.000000000000000E+32
(PID.TID 0000.0001) // CINT =          0.000000000000000E+00
(PID.TID 0000.0001) // SYMBOLS (CMIN->CMAX): -abcdefghijklmnopqrstuvwxyz+
(PID.TID 0000.0001) //                  0.0: .
(PID.TID 0000.0001) // RANGE I (Lo:Hi:Step):(  -1:   7:   1)
(PID.TID 0000.0001) // RANGE J (Lo:Hi:Step):(   7:  -1:  -1)
(PID.TID 0000.0001) // RANGE K (Lo:Hi:Step):(   1:   1:   1)
(PID.TID 0000.0001) // =======================================================
(PID.TID 0000.0001) // =======================================================
(PID.TID 0000.0001) // END OF FIELD                                          =
(PID.TID 0000.0001) // =======================================================
(PID.TID 0000.0001) 
(PID.TID 0000.0001) // =======================================================
(PID.TID 0000.0001) // Field hFacC at iteration          1
(PID.TID 0000.0001) // CMIN =          1.000000000000000E+00
(PID.TID 0000.0001) // CMAX =          1.000000000000000E+00
(PID.TID 0000.0001) // CINT =          0.000000000000000E+00
(PID.TID 0000.0001) // SYMBOLS (CMIN->CMAX): -abcdefghijklmnopqrstuvwxyz+
(PID.TID 0000.0001) //                  0.0: .
(PID.TID 0000.0001) // RANGE I (Lo:Hi:Step):(  -1:   7:   1)
(PID.TID 0000.0001) // RANGE J (Lo:Hi:Step):(   7:  -1:  -1)
(PID.TID 0000.0001) // RANGE K (Lo:Hi:Step):(   1:   1:   1)
(PID.TID 0000.0001) // =======================================================
(PID.TID 0000.0001) // =======================================================
(PID.TID 0000.0001) // END OF FIELD                                          =
(PID.TID 0000.0001) // =======================================================
(PID.TID 0000.0001) 
(PID.TID 0000.0001) // =======================================================
(PID.TID 0000.0001) // Field hFacW at iteration          1
(PID.TID 0000.0001) // CMIN =          1.000000000000000E+00
(PID.TID 0000.0001) // CMAX =          1.000000000000000E+00
(PID.TID 0000.0001) // CINT =          0.000000000000000E+00
(PID.TID 0000.0001) // SYMBOLS (CMIN->CMAX): -abcdefghijklmnopqrstuvwxyz+
(PID.TID 0000.0001) //                  0.0: .
(PID.TID 0000.0001) // RANGE I (Lo:Hi:Step):(  -1:   7:   1)
(PID.TID 0000.0001) // RANGE J (Lo:Hi:Step):(   7:  -1:  -1)
(PID.TID 0000.0001) // RANGE K (Lo:Hi:Step):(   1:   1:   1)
(PID.TID 0000.0001) // =======================================================
(PID.TID 0000.0001) // =======================================================
(PID.TID 0000.0001) // END OF FIELD                                          =
(PID.TID 0000.0001) // =======================================================
(PID.TID 0000.0001) 
(PID.TID 0000.0001) // =======================================================
(PID.TID 0000.0001) // Field hFacS at iteration          1
(PID.TID 0000.0001) // CMIN =          1.000000000000000E+00
(PID.TID 0000.0001) // CMAX =          1.000000000000000E+00
(PID.TID 0000.0001) // CINT =          0.000000000000000E+00
(PID.TID 0000.0001) // SYMBOLS (CMIN->CMAX): -abcdefghijklmnopqrstuvwxyz+
(PID.TID 0000.0001) //                  0.0: .
(PID.TID 0000.0001) // RANGE I (Lo:Hi:Step):(  -1:   7:   1)
(PID.TID 0000.0001) // RANGE J (Lo:Hi:Step):(   7:  -1:  -1)
(PID.TID 0000.0001) // RANGE K (Lo:Hi:Step):(   1:   1:   1)
(PID.TID 0000.0001) // =======================================================
(PID.TID 0000.0001) // =======================================================
(PID.TID 0000.0001) // END OF FIELD                                          =
(PID.TID 0000.0001) // =======================================================
(PID.TID 0000.0001) 
(PID.TID 0000.0001) // =======================================================
(PID.TID 0000.0001) // Field Initial Temperature at iteration          1
(PID.TID 0000.0001) // CMIN =          4.000000000000000E+00
(PID.TID 0000.0001) // CMAX =          4.000000000000000E+00
(PID.TID 0000.0001) // CINT =          0.000000000000000E+00
(PID.TID 0000.0001) // SYMBOLS (CMIN->CMAX): -abcdefghijklmnopqrstuvwxyz+
(PID.TID 0000.0001) //                  0.0: .
(PID.TID 0000.0001) // RANGE I (Lo:Hi:Step):(   1:   5:   1)
(PID.TID 0000.0001) // RANGE J (Lo:Hi:Step):(   5:   1:  -1)
(PID.TID 0000.0001) // RANGE K (Lo:Hi:Step):(   1:   1:   1)
(PID.TID 0000.0001) // =======================================================
(PID.TID 0000.0001) // =======================================================
(PID.TID 0000.0001) // END OF FIELD                                          =
(PID.TID 0000.0001) // =======================================================
(PID.TID 0000.0001) 
(PID.TID 0000.0001) // =======================================================
(PID.TID 0000.0001) // Field Initial Salinity at iteration          1
(PID.TID 0000.0001) // CMIN =          3.500000000000000E+01
(PID.TID 0000.0001) // CMAX =          3.500000000000000E+01
(PID.TID 0000.0001) // CINT =          0.000000000000000E+00
(PID.TID 0000.0001) // SYMBOLS (CMIN->CMAX): -abcdefghijklmnopqrstuvwxyz+
(PID.TID 0000.0001) //                  0.0: .
(PID.TID 0000.0001) // RANGE I (Lo:Hi:Step):(   1:   5:   1)
(PID.TID 0000.0001) // RANGE J (Lo:Hi:Step):(   5:   1:  -1)
(PID.TID 0000.0001) // RANGE K (Lo:Hi:Step):(   1:   1:   1)
(PID.TID 0000.0001) // =======================================================
(PID.TID 0000.0001) // =======================================================
(PID.TID 0000.0001) // END OF FIELD                                          =
(PID.TID 0000.0001) // =======================================================
(PID.TID 0000.0001) 
(PID.TID 0000.0001) Start initial hydrostatic pressure computation
(PID.TID 0000.0001) Pressure is predetermined for buoyancyRelation OCEANIC
(PID.TID 0000.0001) 
(PID.TID 0000.0001)  MDS_READ_FIELD: opening global file: windx.sin_y
(PID.TID 0000.0001) // =======================================================
(PID.TID 0000.0001) // Model current state
(PID.TID 0000.0001) // =======================================================
(PID.TID 0000.0001) 
 cg2d: Sum(rhs),rhsMax =   0.00000000000000E+00  0.00000000000000E+00
 cg2d: Sum(rhs),rhsMax =  -2.49999999999996E+01  6.03492218443698E-05
 cg2d: Sum(rhs),rhsMax =  -1.81034404639062E+01  2.18766023587219E-04
 cg2d: Sum(rhs),rhsMax =  -1.54955563088893E+01  4.32479835580869E-04
 cg2d: Sum(rhs),rhsMax =  -1.41111452664805E+01  6.49958986782044E-04
 cg2d: Sum(rhs),rhsMax =  -1.31144322613551E+01  8.30737101058391E-04
 cg2d: Sum(rhs),rhsMax =  -1.21209090479444E+01  9.52510660774237E-04
 cg2d: Sum(rhs),rhsMax =  -1.07124742416255E+01  1.02806631124107E-03
 cg2d: Sum(rhs),rhsMax =  -7.41375937390975E+00  1.27086596215622E-03
 cg2d: Sum(rhs),rhsMax =  -4.70217534045060E+00  1.51019013913541E-03
 cg2d: Sum(rhs),rhsMax =  -2.72440686321767E+00  1.65833738080376E-03
 cg2d: Sum(rhs),rhsMax =  -1.27958669230634E+00  1.70565508577005E-03
 cg2d: Sum(rhs),rhsMax =  -3.29564699213581E-01  1.66071960388115E-03
 cg2d: Sum(rhs),rhsMax =   5.21320416509689E-02  1.54812756011706E-03
 cg2d: Sum(rhs),rhsMax =  -2.86625372711216E-01  1.40338816078844E-03
 cg2d: Sum(rhs),rhsMax =  -1.30315844566379E+00  1.44268598091238E-03
 cg2d: Sum(rhs),rhsMax =  -2.68067692378154E+00  1.50836885286297E-03
 cg2d: Sum(rhs),rhsMax =  -4.07407455696488E+00  1.58424365862529E-03
 cg2d: Sum(rhs),rhsMax =  -5.18272350005474E+00  1.66593592087723E-03
 cg2d: Sum(rhs),rhsMax =  -5.80990599859497E+00  1.74846174760058E-03
 cg2d: Sum(rhs),rhsMax =  -5.87740628948409E+00  1.82725970628742E-03
 cg2d: Sum(rhs),rhsMax =  -5.41358312898038E+00  1.89900433988202E-03
 cg2d: Sum(rhs),rhsMax =  -4.53080678569290E+00  1.96213933567362E-03
 cg2d: Sum(rhs),rhsMax =  -3.22587896765007E+00  2.12611203828212E-03
 cg2d: Sum(rhs),rhsMax =  -2.04447210428025E+00  2.24837954948207E-03
 cg2d: Sum(rhs),rhsMax =  -1.10818136271922E+00  2.30404050338159E-03
 cg2d: Sum(rhs),rhsMax =  -4.90484872535382E-01  2.29576533604876E-03
 cg2d: Sum(rhs),rhsMax =  -2.61247055882759E-01  2.23814843434103E-03
 cg2d: Sum(rhs),rhsMax =  -4.50921966828174E-01  2.26266903981835E-03
 cg2d: Sum(rhs),rhsMax =  -1.00469610988872E+00  2.31946120136194E-03
 cg2d: Sum(rhs),rhsMax =  -1.78565332428865E+00  2.37599938868083E-03
 cg2d: Sum(rhs),rhsMax =  -2.62429310325094E+00  2.42805540960519E-03
 cg2d: Sum(rhs),rhsMax =  -3.35748488380487E+00  2.47123042859754E-03
 cg2d: Sum(rhs),rhsMax =  -3.85508919457424E+00  2.50195596387683E-03
 cg2d: Sum(rhs),rhsMax =  -4.03589979616542E+00  2.51830320728315E-03
 cg2d: Sum(rhs),rhsMax =  -3.87512849320193E+00  2.52047517300928E-03
 cg2d: Sum(rhs),rhsMax =  -3.40600369667352E+00  2.51092919870328E-03
 cg2d: Sum(rhs),rhsMax =  -2.61682440198203E+00  2.58874088791278E-03
 cg2d: Sum(rhs),rhsMax =  -1.83238709406191E+00  2.61669731462520E-03
 cg2d: Sum(rhs),rhsMax =  -1.17513335574010E+00  2.56005947761900E-03
 cg2d: Sum(rhs),rhsMax =  -7.11994588224533E-01  2.47855833374912E-03
 cg2d: Sum(rhs),rhsMax =  -5.26422135688491E-01  2.47042089532923E-03
 cg2d: Sum(rhs),rhsMax =  -6.78930200037507E-01  2.49676867252044E-03
 cg2d: Sum(rhs),rhsMax =  -1.12673721030278E+00  2.53652608414459E-03
 cg2d: Sum(rhs),rhsMax =  -1.75981625002367E+00  2.58504760928712E-03
 cg2d: Sum(rhs),rhsMax =  -2.43940635966891E+00  2.63568087502350E-03
 cg2d: Sum(rhs),rhsMax =  -3.03203009942177E+00  2.68092811227617E-03
 cg2d: Sum(rhs),rhsMax =  -3.40991311474202E+00  2.73286302112389E-03
 cg2d: Sum(rhs),rhsMax =  -3.48046022831251E+00  2.80943920545054E-03
 cg2d: Sum(rhs),rhsMax =  -3.32063072452318E+00  2.84054006820549E-03
 cg2d: Sum(rhs),rhsMax =  -2.96079446539076E+00  2.82589055763342E-03
 cg2d: Sum(rhs),rhsMax =  -2.32992805825747E+00  2.92147977546643E-03
 cg2d: Sum(rhs),rhsMax =  -1.72242451243525E+00  2.94384965748466E-03
 cg2d: Sum(rhs),rhsMax =  -1.21221898840690E+00  2.89157782781271E-03
 cg2d: Sum(rhs),rhsMax =  -8.69698345423181E-01  2.78046460447313E-03
 cg2d: Sum(rhs),rhsMax =  -7.64867752014367E-01  2.63730953105933E-03
 cg2d: Sum(rhs),rhsMax =  -9.31747807863406E-01  2.54529700857042E-03
 cg2d: Sum(rhs),rhsMax =  -1.31074334948384E+00  2.59464766058605E-03
 cg2d: Sum(rhs),rhsMax =  -1.82960839654714E+00  2.67470085660711E-03
 cg2d: Sum(rhs),rhsMax =  -2.36415406143575E+00  2.77096209658310E-03
 cg2d: Sum(rhs),rhsMax =  -2.80794776736664E+00  2.86583703554621E-03
 cg2d: Sum(rhs),rhsMax =  -3.09076535357631E+00  2.94225351631101E-03
 cg2d: Sum(rhs),rhsMax =  -3.17911021204952E+00  2.98708404489747E-03
 cg2d: Sum(rhs),rhsMax =  -3.06968977807160E+00  2.99369699355271E-03
 cg2d: Sum(rhs),rhsMax =  -2.74200022670297E+00  3.00868119079326E-03
 cg2d: Sum(rhs),rhsMax =  -2.22987010922079E+00  3.08320499609995E-03
 cg2d: Sum(rhs),rhsMax =  -1.72892377091771E+00  3.09216605752280E-03
 cg2d: Sum(rhs),rhsMax =  -1.30661119134043E+00  3.03707927432768E-03
 cg2d: Sum(rhs),rhsMax =  -1.02724580429715E+00  2.93201258160289E-03
 cg2d: Sum(rhs),rhsMax =  -9.49612006546244E-01  2.80059572016927E-03
 cg2d: Sum(rhs),rhsMax =  -1.10546675560901E+00  2.68802009276673E-03
 cg2d: Sum(rhs),rhsMax =  -1.41911840135467E+00  2.73183501183838E-03
 cg2d: Sum(rhs),rhsMax =  -1.85263647058432E+00  2.80075121272602E-03
 cg2d: Sum(rhs),rhsMax =  -2.30607100526306E+00  2.88121981541041E-03
 cg2d: Sum(rhs),rhsMax =  -2.69038328704041E+00  2.95745895750941E-03
 cg2d: Sum(rhs),rhsMax =  -2.94313280929788E+00  3.01465306759278E-03
 cg2d: Sum(rhs),rhsMax =  -3.03123919799700E+00  3.04190022958790E-03
 cg2d: Sum(rhs),rhsMax =  -2.94785317940827E+00  3.03433137208716E-03
 cg2d: Sum(rhs),rhsMax =  -2.61356645441016E+00  3.10365981565028E-03
 cg2d: Sum(rhs),rhsMax =  -2.18161307998644E+00  3.16115508519633E-03
 cg2d: Sum(rhs),rhsMax =  -1.75526114524128E+00  3.15966317050060E-03
 cg2d: Sum(rhs),rhsMax =  -1.39603734066046E+00  3.10114915889884E-03
 cg2d: Sum(rhs),rhsMax =  -1.16177130390975E+00  2.99876549230813E-03
 cg2d: Sum(rhs),rhsMax =  -1.10293736931260E+00  2.87411087119926E-03
 cg2d: Sum(rhs),rhsMax =  -1.24975123048130E+00  2.75286358443227E-03
 cg2d: Sum(rhs),rhsMax =  -1.53840861738899E+00  2.75098212392841E-03
 cg2d: Sum(rhs),rhsMax =  -1.91301865962315E+00  2.81271664774611E-03
 cg2d: Sum(rhs),rhsMax =  -2.30705934991111E+00  2.88449376711571E-03
 cg2d: Sum(rhs),rhsMax =  -2.64297548576056E+00  2.95188721024740E-03
 cg2d: Sum(rhs),rhsMax =  -2.86495125395949E+00  3.00154114000686E-03
 cg2d: Sum(rhs),rhsMax =  -2.94238804794519E+00  3.02377921520096E-03
 cg2d: Sum(rhs),rhsMax =  -2.84207300196695E+00  3.04217210911481E-03
 cg2d: Sum(rhs),rhsMax =  -2.51902163440529E+00  3.13830809314412E-03
 cg2d: Sum(rhs),rhsMax =  -2.14123718338161E+00  3.18959327937818E-03
 cg2d: Sum(rhs),rhsMax =  -1.76835907364281E+00  3.18714937031998E-03
 cg2d: Sum(rhs),rhsMax =  -1.45590338023146E+00  3.13272234091887E-03
 cg2d: Sum(rhs),rhsMax =  -1.25508058901300E+00  3.03818422355881E-03
 cg2d: Sum(rhs),rhsMax =  -1.20874891367865E+00  2.92305997344089E-03
 cg2d: Sum(rhs),rhsMax =  -1.34034297181534E+00  2.81059311754866E-03
 cg2d: Sum(rhs),rhsMax =  -1.62624322320578E+00  2.74190567554497E-03
(PID.TID 0000.0001) %CHECKPOINT       100 ckptB
 --> objf_test(bi,bj)   =  0.509071986434020E-01
 --> objf_tracer(bi,bj) =  0.000000000000000E+00
 --> objf_atl(bi,bj)    =  0.000000000000000E+00
  local fc =  0.509071986434020E-01
 global fc =  0.509071986434020E-01
(PID.TID 0000.0001)  MDS_READ_FIELD: opening file: xx_depth.0000000000.001.001.data
grad-res -------------------------------
 grad-res     0    3    3    1    1    1    1    1   0.509071982062E-01 0.509071977689E-01 0.509071986434E-01
 grad-res     0    3    3    3   25    1    1    1   -.437083369267E-05 -.437250454594E-05 -.382273356667E-03
(PID.TID 0000.0001)   ADM  precision_derivative_cost =    5.09071982061515E-02
(PID.TID 0000.0001)   ADM  precision_derivative_grad =   -4.37083369266817E-06
 ph-grd  ierr ---------------------------
 ph-grd  ierr =  0, icomp =  3, ichknum =  3
 ph-grd -->hit<--  4 1 1 1
(PID.TID 0000.0001)  MDS_READ_FIELD: opening file: adxx_depth.0000000000.001.001.data
(PID.TID 0000.0001)  MDS_READ_FIELD: opening file: xx_depth.0000000000.001.001.data
(PID.TID 0000.0001)  MDS_READ_FIELD: opening global file: noWalls.bigRidge
(PID.TID 0000.0001) // =======================================================
(PID.TID 0000.0001) // Field Model R_low (ini_masks_etc) at iteration          1
(PID.TID 0000.0001) // CMIN =         -5.000000000000000E+03
(PID.TID 0000.0001) // CMAX =         -2.000000000000000E+03
(PID.TID 0000.0001) // CINT =          1.111111111111111E+02
(PID.TID 0000.0001) // SYMBOLS (CMIN->CMAX): -abcdefghijklmnopqrstuvwxyz+
(PID.TID 0000.0001) //                  0.0: .
(PID.TID 0000.0001) // RANGE I (Lo:Hi:Step):(  -1:   7:   1)
(PID.TID 0000.0001) // RANGE J (Lo:Hi:Step):(   7:  -1:  -1)
(PID.TID 0000.0001) // RANGE K (Lo:Hi:Step):(   1:   1:   1)
(PID.TID 0000.0001) // =======================================================
(PID.TID 0000.0001) K =   1
(PID.TID 0000.0001) //
(PID.TID 0000.0001) // |--J--|101234567
(PID.TID 0000.0001) //      7 ----+----
(PID.TID 0000.0001) //      6 ----+----
(PID.TID 0000.0001) //      5 ----+----
(PID.TID 0000.0001) //      4 ----+----
(PID.TID 0000.0001) //      3 ----+----
(PID.TID 0000.0001) //      2 ----+----
(PID.TID 0000.0001) //      1 ----+----
(PID.TID 0000.0001) //      0 ----+----
(PID.TID 0000.0001) //     -1 ----+----
(PID.TID 0000.0001) // =======================================================
(PID.TID 0000.0001) // END OF FIELD                                          =
(PID.TID 0000.0001) // =======================================================
(PID.TID 0000.0001) 
(PID.TID 0000.0001) // =======================================================
(PID.TID 0000.0001) // Field Model Ro_surf (ini_masks_etc) at iteration          1
(PID.TID 0000.0001) // CMIN =          1.000000000000000E+32
(PID.TID 0000.0001) // CMAX =         -1.000000000000000E+32
(PID.TID 0000.0001) // CINT =          0.000000000000000E+00
(PID.TID 0000.0001) // SYMBOLS (CMIN->CMAX): -abcdefghijklmnopqrstuvwxyz+
(PID.TID 0000.0001) //                  0.0: .
(PID.TID 0000.0001) // RANGE I (Lo:Hi:Step):(  -1:   7:   1)
(PID.TID 0000.0001) // RANGE J (Lo:Hi:Step):(   7:  -1:  -1)
(PID.TID 0000.0001) // RANGE K (Lo:Hi:Step):(   1:   1:   1)
(PID.TID 0000.0001) // =======================================================
(PID.TID 0000.0001) // =======================================================
(PID.TID 0000.0001) // END OF FIELD                                          =
(PID.TID 0000.0001) // =======================================================
(PID.TID 0000.0001) 
(PID.TID 0000.0001) // =======================================================
(PID.TID 0000.0001) // Field hFacC at iteration          1
(PID.TID 0000.0001) // CMIN =          1.000000000000000E+00
(PID.TID 0000.0001) // CMAX =          1.000000000000000E+00
(PID.TID 0000.0001) // CINT =          0.000000000000000E+00
(PID.TID 0000.0001) // SYMBOLS (CMIN->CMAX): -abcdefghijklmnopqrstuvwxyz+
(PID.TID 0000.0001) //                  0.0: .
(PID.TID 0000.0001) // RANGE I (Lo:Hi:Step):(  -1:   7:   1)
(PID.TID 0000.0001) // RANGE J (Lo:Hi:Step):(   7:  -1:  -1)
(PID.TID 0000.0001) // RANGE K (Lo:Hi:Step):(   1:   1:   1)
(PID.TID 0000.0001) // =======================================================
(PID.TID 0000.0001) // =======================================================
(PID.TID 0000.0001) // END OF FIELD                                          =
(PID.TID 0000.0001) // =======================================================
(PID.TID 0000.0001) 
(PID.TID 0000.0001) // =======================================================
(PID.TID 0000.0001) // Field hFacW at iteration          1
(PID.TID 0000.0001) // CMIN =          1.000000000000000E+00
(PID.TID 0000.0001) // CMAX =          1.000000000000000E+00
(PID.TID 0000.0001) // CINT =          0.000000000000000E+00
(PID.TID 0000.0001) // SYMBOLS (CMIN->CMAX): -abcdefghijklmnopqrstuvwxyz+
(PID.TID 0000.0001) //                  0.0: .
(PID.TID 0000.0001) // RANGE I (Lo:Hi:Step):(  -1:   7:   1)
(PID.TID 0000.0001) // RANGE J (Lo:Hi:Step):(   7:  -1:  -1)
(PID.TID 0000.0001) // RANGE K (Lo:Hi:Step):(   1:   1:   1)
(PID.TID 0000.0001) // =======================================================
(PID.TID 0000.0001) // =======================================================
(PID.TID 0000.0001) // END OF FIELD                                          =
(PID.TID 0000.0001) // =======================================================
(PID.TID 0000.0001) 
(PID.TID 0000.0001) // =======================================================
(PID.TID 0000.0001) // Field hFacS at iteration          1
(PID.TID 0000.0001) // CMIN =          1.000000000000000E+00
(PID.TID 0000.0001) // CMAX =          1.000000000000000E+00
(PID.TID 0000.0001) // CINT =          0.000000000000000E+00
(PID.TID 0000.0001) // SYMBOLS (CMIN->CMAX): -abcdefghijklmnopqrstuvwxyz+
(PID.TID 0000.0001) //                  0.0: .
(PID.TID 0000.0001) // RANGE I (Lo:Hi:Step):(  -1:   7:   1)
(PID.TID 0000.0001) // RANGE J (Lo:Hi:Step):(   7:  -1:  -1)
(PID.TID 0000.0001) // RANGE K (Lo:Hi:Step):(   1:   1:   1)
(PID.TID 0000.0001) // =======================================================
(PID.TID 0000.0001) // =======================================================
(PID.TID 0000.0001) // END OF FIELD                                          =
(PID.TID 0000.0001) // =======================================================
(PID.TID 0000.0001) 
(PID.TID 0000.0001) %MON surfExpanfCori_max           =  -1.0735540000000E-04
(PID.TID 0000.0001) %MON surfExpanfCori_min           =  -1.1783060000000E-04
(PID.TID 0000.0001) %MON surfExpanfCori_mean          =  -1.1259300000000E-04
(PID.TID 0000.0001) %MON surfExpanfCori_sd            =   3.7035424771427E-06
(PID.TID 0000.0001) %MON surfExpanfCoriG_max          =  -1.0866480000000E-04
(PID.TID 0000.0001) %MON surfExpanfCoriG_min          =  -1.1914000000000E-04
(PID.TID 0000.0001) %MON surfExpanfCoriG_mean         =  -1.1390240000000E-04
(PID.TID 0000.0001) %MON surfExpanfCoriG_sd           =   3.7035424771427E-06
(PID.TID 0000.0001) %MON surfExpanfCoriCos_max        =   0.0000000000000E+00
(PID.TID 0000.0001) %MON surfExpanfCoriCos_min        =   0.0000000000000E+00
(PID.TID 0000.0001) %MON surfExpanfCoriCos_mean       =   0.0000000000000E+00
(PID.TID 0000.0001) %MON surfExpanfCoriCos_sd         =   0.0000000000000E+00
(PID.TID 0000.0001) INI_CG2D: CG2D normalisation factor =  1.9999999999999996E-04
(PID.TID 0000.0001) 
                     ctrl_depth_ini: ctrl update R_low,
                                     adding the control vector.
(PID.TID 0000.0001)  MDS_READ_FIELD: opening file: xx_depth.0000000000.001.001.data
(PID.TID 0000.0001) // =======================================================
(PID.TID 0000.0001) // Field Model Ro_surf (update_masks_etc) at iteration          1
(PID.TID 0000.0001) // CMIN =          1.000000000000000E+32
(PID.TID 0000.0001) // CMAX =         -1.000000000000000E+32
(PID.TID 0000.0001) // CINT =          0.000000000000000E+00
(PID.TID 0000.0001) // SYMBOLS (CMIN->CMAX): -abcdefghijklmnopqrstuvwxyz+
(PID.TID 0000.0001) //                  0.0: .
(PID.TID 0000.0001) // RANGE I (Lo:Hi:Step):(  -1:   7:   1)
(PID.TID 0000.0001) // RANGE J (Lo:Hi:Step):(   7:  -1:  -1)
(PID.TID 0000.0001) // RANGE K (Lo:Hi:Step):(   1:   1:   1)
(PID.TID 0000.0001) // =======================================================
(PID.TID 0000.0001) // =======================================================
(PID.TID 0000.0001) // END OF FIELD                                          =
(PID.TID 0000.0001) // =======================================================
(PID.TID 0000.0001) 
(PID.TID 0000.0001) // =======================================================
(PID.TID 0000.0001) // Field hFacC at iteration          1
(PID.TID 0000.0001) // CMIN =          1.000000000000000E+00
(PID.TID 0000.0001) // CMAX =          1.000000000000000E+00
(PID.TID 0000.0001) // CINT =          0.000000000000000E+00
(PID.TID 0000.0001) // SYMBOLS (CMIN->CMAX): -abcdefghijklmnopqrstuvwxyz+
(PID.TID 0000.0001) //                  0.0: .
(PID.TID 0000.0001) // RANGE I (Lo:Hi:Step):(  -1:   7:   1)
(PID.TID 0000.0001) // RANGE J (Lo:Hi:Step):(   7:  -1:  -1)
(PID.TID 0000.0001) // RANGE K (Lo:Hi:Step):(   1:   1:   1)
(PID.TID 0000.0001) // =======================================================
(PID.TID 0000.0001) // =======================================================
(PID.TID 0000.0001) // END OF FIELD                                          =
(PID.TID 0000.0001) // =======================================================
(PID.TID 0000.0001) 
(PID.TID 0000.0001) // =======================================================
(PID.TID 0000.0001) // Field hFacW at iteration          1
(PID.TID 0000.0001) // CMIN =          1.000000000000000E+00
(PID.TID 0000.0001) // CMAX =          1.000000000000000E+00
(PID.TID 0000.0001) // CINT =          0.000000000000000E+00
(PID.TID 0000.0001) // SYMBOLS (CMIN->CMAX): -abcdefghijklmnopqrstuvwxyz+
(PID.TID 0000.0001) //                  0.0: .
(PID.TID 0000.0001) // RANGE I (Lo:Hi:Step):(  -1:   7:   1)
(PID.TID 0000.0001) // RANGE J (Lo:Hi:Step):(   7:  -1:  -1)
(PID.TID 0000.0001) // RANGE K (Lo:Hi:Step):(   1:   1:   1)
(PID.TID 0000.0001) // =======================================================
(PID.TID 0000.0001) // =======================================================
(PID.TID 0000.0001) // END OF FIELD                                          =
(PID.TID 0000.0001) // =======================================================
(PID.TID 0000.0001) 
(PID.TID 0000.0001) // =======================================================
(PID.TID 0000.0001) // Field hFacS at iteration          1
(PID.TID 0000.0001) // CMIN =          1.000000000000000E+00
(PID.TID 0000.0001) // CMAX =          1.000000000000000E+00
(PID.TID 0000.0001) // CINT =          0.000000000000000E+00
(PID.TID 0000.0001) // SYMBOLS (CMIN->CMAX): -abcdefghijklmnopqrstuvwxyz+
(PID.TID 0000.0001) //                  0.0: .
(PID.TID 0000.0001) // RANGE I (Lo:Hi:Step):(  -1:   7:   1)
(PID.TID 0000.0001) // RANGE J (Lo:Hi:Step):(   7:  -1:  -1)
(PID.TID 0000.0001) // RANGE K (Lo:Hi:Step):(   1:   1:   1)
(PID.TID 0000.0001) // =======================================================
(PID.TID 0000.0001) // =======================================================
(PID.TID 0000.0001) // END OF FIELD                                          =
(PID.TID 0000.0001) // =======================================================
(PID.TID 0000.0001) 
(PID.TID 0000.0001) // =======================================================
(PID.TID 0000.0001) // Field Initial Temperature at iteration          1
(PID.TID 0000.0001) // CMIN =          4.000000000000000E+00
(PID.TID 0000.0001) // CMAX =          4.000000000000000E+00
(PID.TID 0000.0001) // CINT =          0.000000000000000E+00
(PID.TID 0000.0001) // SYMBOLS (CMIN->CMAX): -abcdefghijklmnopqrstuvwxyz+
(PID.TID 0000.0001) //                  0.0: .
(PID.TID 0000.0001) // RANGE I (Lo:Hi:Step):(   1:   5:   1)
(PID.TID 0000.0001) // RANGE J (Lo:Hi:Step):(   5:   1:  -1)
(PID.TID 0000.0001) // RANGE K (Lo:Hi:Step):(   1:   1:   1)
(PID.TID 0000.0001) // =======================================================
(PID.TID 0000.0001) // =======================================================
(PID.TID 0000.0001) // END OF FIELD                                          =
(PID.TID 0000.0001) // =======================================================
(PID.TID 0000.0001) 
(PID.TID 0000.0001) // =======================================================
(PID.TID 0000.0001) // Field Initial Salinity at iteration          1
(PID.TID 0000.0001) // CMIN =          3.500000000000000E+01
(PID.TID 0000.0001) // CMAX =          3.500000000000000E+01
(PID.TID 0000.0001) // CINT =          0.000000000000000E+00
(PID.TID 0000.0001) // SYMBOLS (CMIN->CMAX): -abcdefghijklmnopqrstuvwxyz+
(PID.TID 0000.0001) //                  0.0: .
(PID.TID 0000.0001) // RANGE I (Lo:Hi:Step):(   1:   5:   1)
(PID.TID 0000.0001) // RANGE J (Lo:Hi:Step):(   5:   1:  -1)
(PID.TID 0000.0001) // RANGE K (Lo:Hi:Step):(   1:   1:   1)
(PID.TID 0000.0001) // =======================================================
(PID.TID 0000.0001) // =======================================================
(PID.TID 0000.0001) // END OF FIELD                                          =
(PID.TID 0000.0001) // =======================================================
(PID.TID 0000.0001) 
(PID.TID 0000.0001) Start initial hydrostatic pressure computation
(PID.TID 0000.0001) Pressure is predetermined for buoyancyRelation OCEANIC
(PID.TID 0000.0001) 
(PID.TID 0000.0001)  MDS_READ_FIELD: opening global file: windx.sin_y
(PID.TID 0000.0001) // =======================================================
(PID.TID 0000.0001) // Model current state
(PID.TID 0000.0001) // =======================================================
(PID.TID 0000.0001) 
 cg2d: Sum(rhs),rhsMax =   0.00000000000000E+00  0.00000000000000E+00
 cg2d: Sum(rhs),rhsMax =  -2.49999999999996E+01  6.03492218443698E-05
 cg2d: Sum(rhs),rhsMax =  -1.81034404639062E+01  2.18766023587219E-04
 cg2d: Sum(rhs),rhsMax =  -1.54955562832450E+01  4.32479836297456E-04
 cg2d: Sum(rhs),rhsMax =  -1.41111452296145E+01  6.49958988476960E-04
 cg2d: Sum(rhs),rhsMax =  -1.31144322279396E+01  8.30737103161446E-04
 cg2d: Sum(rhs),rhsMax =  -1.21209090257722E+01  9.52510662485025E-04
 cg2d: Sum(rhs),rhsMax =  -1.07124742025873E+01  1.02806631492856E-03
 cg2d: Sum(rhs),rhsMax =  -7.41375936334011E+00  1.27086596385025E-03
 cg2d: Sum(rhs),rhsMax =  -4.70217533261448E+00  1.51019014143193E-03
 cg2d: Sum(rhs),rhsMax =  -2.72440685828447E+00  1.65833738342599E-03
 cg2d: Sum(rhs),rhsMax =  -1.27958668997793E+00  1.70565508824331E-03
 cg2d: Sum(rhs),rhsMax =  -3.29564698696393E-01  1.66071960557704E-03
 cg2d: Sum(rhs),rhsMax =   5.21320413291733E-02  1.54812756033500E-03
 cg2d: Sum(rhs),rhsMax =  -2.86625374180308E-01  1.40338815886087E-03
 cg2d: Sum(rhs),rhsMax =  -1.30315843814881E+00  1.44268599128662E-03
 cg2d: Sum(rhs),rhsMax =  -2.68067691395582E+00  1.50836885983566E-03
 cg2d: Sum(rhs),rhsMax =  -4.07407454992805E+00  1.58424366257889E-03
 cg2d: Sum(rhs),rhsMax =  -5.18272349730870E+00  1.66593592288529E-03
 cg2d: Sum(rhs),rhsMax =  -5.80990599680597E+00  1.74846174924499E-03
 cg2d: Sum(rhs),rhsMax =  -5.87740628326708E+00  1.82725970936704E-03
 cg2d: Sum(rhs),rhsMax =  -5.41358311495195E+00  1.89900434606830E-03
 cg2d: Sum(rhs),rhsMax =  -4.53080676494403E+00  1.96213934618150E-03
 cg2d: Sum(rhs),rhsMax =  -3.22587899832979E+00  2.12611202025305E-03
 cg2d: Sum(rhs),rhsMax =  -2.04447212402889E+00  2.24837953146497E-03
 cg2d: Sum(rhs),rhsMax =  -1.10818137525376E+00  2.30404048505237E-03
 cg2d: Sum(rhs),rhsMax =  -4.90484881085670E-01  2.29576531680081E-03
 cg2d: Sum(rhs),rhsMax =  -2.61247063896006E-01  2.23814841338068E-03
 cg2d: Sum(rhs),rhsMax =  -4.50921969068456E-01  2.26266906253384E-03
 cg2d: Sum(rhs),rhsMax =  -1.00469610963050E+00  2.31946122046216E-03
 cg2d: Sum(rhs),rhsMax =  -1.78565332256741E+00  2.37599940333470E-03
 cg2d: Sum(rhs),rhsMax =  -2.62429310276833E+00  2.42805541977967E-03
 cg2d: Sum(rhs),rhsMax =  -3.35748488668083E+00  2.47123043503792E-03
 cg2d: Sum(rhs),rhsMax =  -3.85508920091618E+00  2.50195596794107E-03
 cg2d: Sum(rhs),rhsMax =  -4.03589980420750E+00  2.51830321066426E-03
 cg2d: Sum(rhs),rhsMax =  -3.87512850068942E+00  2.52047517740095E-03
 cg2d: Sum(rhs),rhsMax =  -3.40600370249833E+00  2.51092920547467E-03
 cg2d: Sum(rhs),rhsMax =  -2.61682442333343E+00  2.58874088190351E-03
 cg2d: Sum(rhs),rhsMax =  -1.83238711442778E+00  2.61669730832653E-03
 cg2d: Sum(rhs),rhsMax =  -1.17513337622001E+00  2.56005947091471E-03
 cg2d: Sum(rhs),rhsMax =  -7.11994622780058E-01  2.47855828105954E-03
 cg2d: Sum(rhs),rhsMax =  -5.26422153294096E-01  2.47042091255358E-03
 cg2d: Sum(rhs),rhsMax =  -6.78930218912638E-01  2.49676868819255E-03
 cg2d: Sum(rhs),rhsMax =  -1.12673722963822E+00  2.53652609703034E-03
 cg2d: Sum(rhs),rhsMax =  -1.75981627060438E+00  2.58504761864561E-03
 cg2d: Sum(rhs),rhsMax =  -2.43940638314532E+00  2.63568088072008E-03
 cg2d: Sum(rhs),rhsMax =  -3.03203012702802E+00  2.68092811477002E-03
 cg2d: Sum(rhs),rhsMax =  -3.40991306639027E+00  2.73286308534565E-03
 cg2d: Sum(rhs),rhsMax =  -3.48046018010271E+00  2.80943927066015E-03
 cg2d: Sum(rhs),rhsMax =  -3.32063068042551E+00  2.84054013472065E-03
 cg2d: Sum(rhs),rhsMax =  -2.96079442919683E+00  2.82589062572001E-03
 cg2d: Sum(rhs),rhsMax =  -2.32992809993886E+00  2.92147976736157E-03
 cg2d: Sum(rhs),rhsMax =  -1.72242455346628E+00  2.94384964928068E-03
 cg2d: Sum(rhs),rhsMax =  -1.21221903028181E+00  2.89157781942542E-03
 cg2d: Sum(rhs),rhsMax =  -8.69698389792550E-01  2.78046459586071E-03
 cg2d: Sum(rhs),rhsMax =  -7.64867800690645E-01  2.63730952223479E-03
 cg2d: Sum(rhs),rhsMax =  -9.31747830506034E-01  2.54529708419998E-03
 cg2d: Sum(rhs),rhsMax =  -1.31074336326245E+00  2.59464773638564E-03
 cg2d: Sum(rhs),rhsMax =  -1.82960839791618E+00  2.67470093240298E-03
 cg2d: Sum(rhs),rhsMax =  -2.36415405071448E+00  2.77096217236741E-03
 cg2d: Sum(rhs),rhsMax =  -2.80794774745353E+00  2.86583711147574E-03
 cg2d: Sum(rhs),rhsMax =  -3.09076532846890E+00  2.94225359267226E-03
 cg2d: Sum(rhs),rhsMax =  -3.17911018597005E+00  2.98708412204565E-03
 cg2d: Sum(rhs),rhsMax =  -3.06968975519964E+00  2.99369707183723E-03
 cg2d: Sum(rhs),rhsMax =  -2.74200029146120E+00  3.00868118383467E-03
 cg2d: Sum(rhs),rhsMax =  -2.22987017236472E+00  3.08320498924773E-03
 cg2d: Sum(rhs),rhsMax =  -1.72892383397454E+00  3.09216605066167E-03
 cg2d: Sum(rhs),rhsMax =  -1.30661125597151E+00  3.03707926737646E-03
 cg2d: Sum(rhs),rhsMax =  -1.02724587222048E+00  2.93201257453404E-03
 cg2d: Sum(rhs),rhsMax =  -9.49612079405745E-01  2.80059571301727E-03
 cg2d: Sum(rhs),rhsMax =  -1.10546679574734E+00  2.68802017902198E-03
 cg2d: Sum(rhs),rhsMax =  -1.41911843320314E+00  2.73183509825622E-03
 cg2d: Sum(rhs),rhsMax =  -1.85263649053865E+00  2.80075129922504E-03
 cg2d: Sum(rhs),rhsMax =  -2.30607101308010E+00  2.88121990207687E-03
 cg2d: Sum(rhs),rhsMax =  -2.69038328493691E+00  2.95745904458581E-03
 cg2d: Sum(rhs),rhsMax =  -2.94313280079803E+00  3.01465315543483E-03
 cg2d: Sum(rhs),rhsMax =  -3.03123918716663E+00  3.04190031859854E-03
 cg2d: Sum(rhs),rhsMax =  -2.94785317052939E+00  3.03433146264140E-03
 cg2d: Sum(rhs),rhsMax =  -2.61356653590400E+00  3.10365981166568E-03
 cg2d: Sum(rhs),rhsMax =  -2.18161316006299E+00  3.16115508134517E-03
 cg2d: Sum(rhs),rhsMax =  -1.75526122555896E+00  3.15966316664443E-03
 cg2d: Sum(rhs),rhsMax =  -1.39603742294931E+00  3.10114915494192E-03
 cg2d: Sum(rhs),rhsMax =  -1.16177138984006E+00  2.99876548821683E-03
 cg2d: Sum(rhs),rhsMax =  -1.10293746029999E+00  2.87411086700911E-03
 cg2d: Sum(rhs),rhsMax =  -1.24975132735733E+00  2.75286358024120E-03
 cg2d: Sum(rhs),rhsMax =  -1.53840865727287E+00  2.75098222576757E-03
 cg2d: Sum(rhs),rhsMax =  -1.91301868649338E+00  2.81271675009811E-03
 cg2d: Sum(rhs),rhsMax =  -2.30705936325655E+00  2.88449387008454E-03
 cg2d: Sum(rhs),rhsMax =  -2.64297548766743E+00  2.95188731408583E-03
 cg2d: Sum(rhs),rhsMax =  -2.86495124803404E+00  3.00154124507086E-03
 cg2d: Sum(rhs),rhsMax =  -2.94238803852397E+00  3.02377932188374E-03
 cg2d: Sum(rhs),rhsMax =  -2.84207309743605E+00  3.04217210782012E-03
 cg2d: Sum(rhs),rhsMax =  -2.51902172683142E+00  3.13830809211883E-03
 cg2d: Sum(rhs),rhsMax =  -2.14123727427159E+00  3.18959327846017E-03
 cg2d: Sum(rhs),rhsMax =  -1.76835916469586E+00  3.18714936936355E-03
 cg2d: Sum(rhs),rhsMax =  -1.45590347316434E+00  3.13272233982283E-03
 cg2d: Sum(rhs),rhsMax =  -1.25508068540459E+00  3.03818422228557E-03
 cg2d: Sum(rhs),rhsMax =  -1.20874901475868E+00  2.92305997202281E-03
 cg2d: Sum(rhs),rhsMax =  -1.34034307815909E+00  2.81059311608046E-03
 cg2d: Sum(rhs),rhsMax =  -1.62624325979637E+00  2.74190579865247E-03
(PID.TID 0000.0001) %CHECKPOINT       100 ckptA
 --> objf_test(bi,bj)   =  0.509071982523496E-01
 --> objf_tracer(bi,bj) =  0.000000000000000E+00
 --> objf_atl(bi,bj)    =  0.000000000000000E+00
  local fc =  0.509071982523496E-01
 global fc =  0.509071982523496E-01
 ph-check fcpertplus =   0.0509071983
(PID.TID 0000.0001)  MDS_READ_FIELD: opening file: xx_depth.0000000000.001.001.data
 ph-check fcpertminus =   0.0509071982
(PID.TID 0000.0001)  MDS_READ_FIELD: opening file: xx_depth.0000000000.001.001.data
(PID.TID 0000.0001)  MDS_READ_FIELD: opening global file: noWalls.bigRidge
(PID.TID 0000.0001) // =======================================================
(PID.TID 0000.0001) // Field Model R_low (ini_masks_etc) at iteration          1
(PID.TID 0000.0001) // CMIN =         -5.000000000000000E+03
(PID.TID 0000.0001) // CMAX =         -2.000000000000000E+03
(PID.TID 0000.0001) // CINT =          1.111111111111111E+02
(PID.TID 0000.0001) // SYMBOLS (CMIN->CMAX): -abcdefghijklmnopqrstuvwxyz+
(PID.TID 0000.0001) //                  0.0: .
(PID.TID 0000.0001) // RANGE I (Lo:Hi:Step):(  -1:   7:   1)
(PID.TID 0000.0001) // RANGE J (Lo:Hi:Step):(   7:  -1:  -1)
(PID.TID 0000.0001) // RANGE K (Lo:Hi:Step):(   1:   1:   1)
(PID.TID 0000.0001) // =======================================================
(PID.TID 0000.0001) K =   1
(PID.TID 0000.0001) //
(PID.TID 0000.0001) // |--J--|101234567
(PID.TID 0000.0001) //      7 ----+----
(PID.TID 0000.0001) //      6 ----+----
(PID.TID 0000.0001) //      5 ----+----
(PID.TID 0000.0001) //      4 ----+----
(PID.TID 0000.0001) //      3 ----+----
(PID.TID 0000.0001) //      2 ----+----
(PID.TID 0000.0001) //      1 ----+----
(PID.TID 0000.0001) //      0 ----+----
(PID.TID 0000.0001) //     -1 ----+----
(PID.TID 0000.0001) // =======================================================
(PID.TID 0000.0001) // END OF FIELD                                          =
(PID.TID 0000.0001) // =======================================================
(PID.TID 0000.0001) 
(PID.TID 0000.0001) // =======================================================
(PID.TID 0000.0001) // Field Model Ro_surf (ini_masks_etc) at iteration          1
(PID.TID 0000.0001) // CMIN =          1.000000000000000E+32
(PID.TID 0000.0001) // CMAX =         -1.000000000000000E+32
(PID.TID 0000.0001) // CINT =          0.000000000000000E+00
(PID.TID 0000.0001) // SYMBOLS (CMIN->CMAX): -abcdefghijklmnopqrstuvwxyz+
(PID.TID 0000.0001) //                  0.0: .
(PID.TID 0000.0001) // RANGE I (Lo:Hi:Step):(  -1:   7:   1)
(PID.TID 0000.0001) // RANGE J (Lo:Hi:Step):(   7:  -1:  -1)
(PID.TID 0000.0001) // RANGE K (Lo:Hi:Step):(   1:   1:   1)
(PID.TID 0000.0001) // =======================================================
(PID.TID 0000.0001) // =======================================================
(PID.TID 0000.0001) // END OF FIELD                                          =
(PID.TID 0000.0001) // =======================================================
(PID.TID 0000.0001) 
(PID.TID 0000.0001) // =======================================================
(PID.TID 0000.0001) // Field hFacC at iteration          1
(PID.TID 0000.0001) // CMIN =          1.000000000000000E+00
(PID.TID 0000.0001) // CMAX =          1.000000000000000E+00
(PID.TID 0000.0001) // CINT =          0.000000000000000E+00
(PID.TID 0000.0001) // SYMBOLS (CMIN->CMAX): -abcdefghijklmnopqrstuvwxyz+
(PID.TID 0000.0001) //                  0.0: .
(PID.TID 0000.0001) // RANGE I (Lo:Hi:Step):(  -1:   7:   1)
(PID.TID 0000.0001) // RANGE J (Lo:Hi:Step):(   7:  -1:  -1)
(PID.TID 0000.0001) // RANGE K (Lo:Hi:Step):(   1:   1:   1)
(PID.TID 0000.0001) // =======================================================
(PID.TID 0000.0001) // =======================================================
(PID.TID 0000.0001) // END OF FIELD                                          =
(PID.TID 0000.0001) // =======================================================
(PID.TID 0000.0001) 
(PID.TID 0000.0001) // =======================================================
(PID.TID 0000.0001) // Field hFacW at iteration          1
(PID.TID 0000.0001) // CMIN =          1.000000000000000E+00
(PID.TID 0000.0001) // CMAX =          1.000000000000000E+00
(PID.TID 0000.0001) // CINT =          0.000000000000000E+00
(PID.TID 0000.0001) // SYMBOLS (CMIN->CMAX): -abcdefghijklmnopqrstuvwxyz+
(PID.TID 0000.0001) //                  0.0: .
(PID.TID 0000.0001) // RANGE I (Lo:Hi:Step):(  -1:   7:   1)
(PID.TID 0000.0001) // RANGE J (Lo:Hi:Step):(   7:  -1:  -1)
(PID.TID 0000.0001) // RANGE K (Lo:Hi:Step):(   1:   1:   1)
(PID.TID 0000.0001) // =======================================================
(PID.TID 0000.0001) // =======================================================
(PID.TID 0000.0001) // END OF FIELD                                          =
(PID.TID 0000.0001) // =======================================================
(PID.TID 0000.0001) 
(PID.TID 0000.0001) // =======================================================
(PID.TID 0000.0001) // Field hFacS at iteration          1
(PID.TID 0000.0001) // CMIN =          1.000000000000000E+00
(PID.TID 0000.0001) // CMAX =          1.000000000000000E+00
(PID.TID 0000.0001) // CINT =          0.000000000000000E+00
(PID.TID 0000.0001) // SYMBOLS (CMIN->CMAX): -abcdefghijklmnopqrstuvwxyz+
(PID.TID 0000.0001) //                  0.0: .
(PID.TID 0000.0001) // RANGE I (Lo:Hi:Step):(  -1:   7:   1)
(PID.TID 0000.0001) // RANGE J (Lo:Hi:Step):(   7:  -1:  -1)
(PID.TID 0000.0001) // RANGE K (Lo:Hi:Step):(   1:   1:   1)
(PID.TID 0000.0001) // =======================================================
(PID.TID 0000.0001) // =======================================================
(PID.TID 0000.0001) // END OF FIELD                                          =
(PID.TID 0000.0001) // =======================================================
(PID.TID 0000.0001) 
(PID.TID 0000.0001) %MON surfExpanfCori_max           =  -1.0735540000000E-04
(PID.TID 0000.0001) %MON surfExpanfCori_min           =  -1.1783060000000E-04
(PID.TID 0000.0001) %MON surfExpanfCori_mean          =  -1.1259300000000E-04
(PID.TID 0000.0001) %MON surfExpanfCori_sd            =   3.7035424771427E-06
(PID.TID 0000.0001) %MON surfExpanfCoriG_max          =  -1.0866480000000E-04
(PID.TID 0000.0001) %MON surfExpanfCoriG_min          =  -1.1914000000000E-04
(PID.TID 0000.0001) %MON surfExpanfCoriG_mean         =  -1.1390240000000E-04
(PID.TID 0000.0001) %MON surfExpanfCoriG_sd           =   3.7035424771427E-06
(PID.TID 0000.0001) %MON surfExpanfCoriCos_max        =   0.0000000000000E+00
(PID.TID 0000.0001) %MON surfExpanfCoriCos_min        =   0.0000000000000E+00
(PID.TID 0000.0001) %MON surfExpanfCoriCos_mean       =   0.0000000000000E+00
(PID.TID 0000.0001) %MON surfExpanfCoriCos_sd         =   0.0000000000000E+00
(PID.TID 0000.0001) INI_CG2D: CG2D normalisation factor =  1.9999999999999996E-04
(PID.TID 0000.0001) 
                     ctrl_depth_ini: ctrl update R_low,
                                     adding the control vector.
(PID.TID 0000.0001)  MDS_READ_FIELD: opening file: xx_depth.0000000000.001.001.data
(PID.TID 0000.0001) // =======================================================
(PID.TID 0000.0001) // Field Model Ro_surf (update_masks_etc) at iteration          1
(PID.TID 0000.0001) // CMIN =          1.000000000000000E+32
(PID.TID 0000.0001) // CMAX =         -1.000000000000000E+32
(PID.TID 0000.0001) // CINT =          0.000000000000000E+00
(PID.TID 0000.0001) // SYMBOLS (CMIN->CMAX): -abcdefghijklmnopqrstuvwxyz+
(PID.TID 0000.0001) //                  0.0: .
(PID.TID 0000.0001) // RANGE I (Lo:Hi:Step):(  -1:   7:   1)
(PID.TID 0000.0001) // RANGE J (Lo:Hi:Step):(   7:  -1:  -1)
(PID.TID 0000.0001) // RANGE K (Lo:Hi:Step):(   1:   1:   1)
(PID.TID 0000.0001) // =======================================================
(PID.TID 0000.0001) // =======================================================
(PID.TID 0000.0001) // END OF FIELD                                          =
(PID.TID 0000.0001) // =======================================================
(PID.TID 0000.0001) 
(PID.TID 0000.0001) // =======================================================
(PID.TID 0000.0001) // Field hFacC at iteration          1
(PID.TID 0000.0001) // CMIN =          1.000000000000000E+00
(PID.TID 0000.0001) // CMAX =          1.000000000000000E+00
(PID.TID 0000.0001) // CINT =          0.000000000000000E+00
(PID.TID 0000.0001) // SYMBOLS (CMIN->CMAX): -abcdefghijklmnopqrstuvwxyz+
(PID.TID 0000.0001) //                  0.0: .
(PID.TID 0000.0001) // RANGE I (Lo:Hi:Step):(  -1:   7:   1)
(PID.TID 0000.0001) // RANGE J (Lo:Hi:Step):(   7:  -1:  -1)
(PID.TID 0000.0001) // RANGE K (Lo:Hi:Step):(   1:   1:   1)
(PID.TID 0000.0001) // =======================================================
(PID.TID 0000.0001) // =======================================================
(PID.TID 0000.0001) // END OF FIELD                                          =
(PID.TID 0000.0001) // =======================================================
(PID.TID 0000.0001) 
(PID.TID 0000.0001) // =======================================================
(PID.TID 0000.0001) // Field hFacW at iteration          1
(PID.TID 0000.0001) // CMIN =          1.000000000000000E+00
(PID.TID 0000.0001) // CMAX =          1.000000000000000E+00
(PID.TID 0000.0001) // CINT =          0.000000000000000E+00
(PID.TID 0000.0001) // SYMBOLS (CMIN->CMAX): -abcdefghijklmnopqrstuvwxyz+
(PID.TID 0000.0001) //                  0.0: .
(PID.TID 0000.0001) // RANGE I (Lo:Hi:Step):(  -1:   7:   1)
(PID.TID 0000.0001) // RANGE J (Lo:Hi:Step):(   7:  -1:  -1)
(PID.TID 0000.0001) // RANGE K (Lo:Hi:Step):(   1:   1:   1)
(PID.TID 0000.0001) // =======================================================
(PID.TID 0000.0001) // =======================================================
(PID.TID 0000.0001) // END OF FIELD                                          =
(PID.TID 0000.0001) // =======================================================
(PID.TID 0000.0001) 
(PID.TID 0000.0001) // =======================================================
(PID.TID 0000.0001) // Field hFacS at iteration          1
(PID.TID 0000.0001) // CMIN =          1.000000000000000E+00
(PID.TID 0000.0001) // CMAX =          1.000000000000000E+00
(PID.TID 0000.0001) // CINT =          0.000000000000000E+00
(PID.TID 0000.0001) // SYMBOLS (CMIN->CMAX): -abcdefghijklmnopqrstuvwxyz+
(PID.TID 0000.0001) //                  0.0: .
(PID.TID 0000.0001) // RANGE I (Lo:Hi:Step):(  -1:   7:   1)
(PID.TID 0000.0001) // RANGE J (Lo:Hi:Step):(   7:  -1:  -1)
(PID.TID 0000.0001) // RANGE K (Lo:Hi:Step):(   1:   1:   1)
(PID.TID 0000.0001) // =======================================================
(PID.TID 0000.0001) // =======================================================
(PID.TID 0000.0001) // END OF FIELD                                          =
(PID.TID 0000.0001) // =======================================================
(PID.TID 0000.0001) 
(PID.TID 0000.0001) // =======================================================
(PID.TID 0000.0001) // Field Initial Temperature at iteration          1
(PID.TID 0000.0001) // CMIN =          4.000000000000000E+00
(PID.TID 0000.0001) // CMAX =          4.000000000000000E+00
(PID.TID 0000.0001) // CINT =          0.000000000000000E+00
(PID.TID 0000.0001) // SYMBOLS (CMIN->CMAX): -abcdefghijklmnopqrstuvwxyz+
(PID.TID 0000.0001) //                  0.0: .
(PID.TID 0000.0001) // RANGE I (Lo:Hi:Step):(   1:   5:   1)
(PID.TID 0000.0001) // RANGE J (Lo:Hi:Step):(   5:   1:  -1)
(PID.TID 0000.0001) // RANGE K (Lo:Hi:Step):(   1:   1:   1)
(PID.TID 0000.0001) // =======================================================
(PID.TID 0000.0001) // =======================================================
(PID.TID 0000.0001) // END OF FIELD                                          =
(PID.TID 0000.0001) // =======================================================
(PID.TID 0000.0001) 
(PID.TID 0000.0001) // =======================================================
(PID.TID 0000.0001) // Field Initial Salinity at iteration          1
(PID.TID 0000.0001) // CMIN =          3.500000000000000E+01
(PID.TID 0000.0001) // CMAX =          3.500000000000000E+01
(PID.TID 0000.0001) // CINT =          0.000000000000000E+00
(PID.TID 0000.0001) // SYMBOLS (CMIN->CMAX): -abcdefghijklmnopqrstuvwxyz+
(PID.TID 0000.0001) //                  0.0: .
(PID.TID 0000.0001) // RANGE I (Lo:Hi:Step):(   1:   5:   1)
(PID.TID 0000.0001) // RANGE J (Lo:Hi:Step):(   5:   1:  -1)
(PID.TID 0000.0001) // RANGE K (Lo:Hi:Step):(   1:   1:   1)
(PID.TID 0000.0001) // =======================================================
(PID.TID 0000.0001) // =======================================================
(PID.TID 0000.0001) // END OF FIELD                                          =
(PID.TID 0000.0001) // =======================================================
(PID.TID 0000.0001) 
(PID.TID 0000.0001) Start initial hydrostatic pressure computation
(PID.TID 0000.0001) Pressure is predetermined for buoyancyRelation OCEANIC
(PID.TID 0000.0001) 
(PID.TID 0000.0001)  MDS_READ_FIELD: opening global file: windx.sin_y
(PID.TID 0000.0001) // =======================================================
(PID.TID 0000.0001) // Model current state
(PID.TID 0000.0001) // =======================================================
(PID.TID 0000.0001) 
 cg2d: Sum(rhs),rhsMax =   0.00000000000000E+00  0.00000000000000E+00
 cg2d: Sum(rhs),rhsMax =  -2.49999999999996E+01  6.03492218443698E-05
 cg2d: Sum(rhs),rhsMax =  -1.81034404639062E+01  2.18766023587219E-04
 cg2d: Sum(rhs),rhsMax =  -1.54955562831845E+01  4.32479836297434E-04
 cg2d: Sum(rhs),rhsMax =  -1.41111452362846E+01  6.49958988169879E-04
 cg2d: Sum(rhs),rhsMax =  -1.31144322385829E+01  8.30737102495320E-04
 cg2d: Sum(rhs),rhsMax =  -1.21209090393051E+01  9.52510661445580E-04
 cg2d: Sum(rhs),rhsMax =  -1.07124742718264E+01  1.02806630833558E-03
 cg2d: Sum(rhs),rhsMax =  -7.41375936997396E+00  1.27086596283119E-03
 cg2d: Sum(rhs),rhsMax =  -4.70217533649357E+00  1.51019014044424E-03
 cg2d: Sum(rhs),rhsMax =  -2.72440686027388E+00  1.65833738277423E-03
 cg2d: Sum(rhs),rhsMax =  -1.27958669096812E+00  1.70565508829938E-03
 cg2d: Sum(rhs),rhsMax =  -3.29564699608600E-01  1.66071960673075E-03
 cg2d: Sum(rhs),rhsMax =   5.21320400017676E-02  1.54812756293763E-03
 cg2d: Sum(rhs),rhsMax =  -2.86625374620651E-01  1.40338816317024E-03
 cg2d: Sum(rhs),rhsMax =  -1.30315842925478E+00  1.44268600247074E-03
 cg2d: Sum(rhs),rhsMax =  -2.68067689203259E+00  1.50836887278944E-03
 cg2d: Sum(rhs),rhsMax =  -4.07407451710273E+00  1.58424367575248E-03
 cg2d: Sum(rhs),rhsMax =  -5.18272346166986E+00  1.66593593469633E-03
 cg2d: Sum(rhs),rhsMax =  -5.80990596775549E+00  1.74846175837054E-03
 cg2d: Sum(rhs),rhsMax =  -5.87740626668409E+00  1.82725971500411E-03
 cg2d: Sum(rhs),rhsMax =  -5.41358311103372E+00  1.89900434811325E-03
 cg2d: Sum(rhs),rhsMax =  -4.53080676932699E+00  1.96213934529031E-03
 cg2d: Sum(rhs),rhsMax =  -3.22587897983988E+00  2.12611203415613E-03
 cg2d: Sum(rhs),rhsMax =  -2.04447211363579E+00  2.24837954605277E-03
 cg2d: Sum(rhs),rhsMax =  -1.10818137086467E+00  2.30404050069720E-03
 cg2d: Sum(rhs),rhsMax =  -4.90484880806943E-01  2.29576533395312E-03
 cg2d: Sum(rhs),rhsMax =  -2.61247065270888E-01  2.23814843249848E-03
 cg2d: Sum(rhs),rhsMax =  -4.50921969574617E-01  2.26266907803637E-03
 cg2d: Sum(rhs),rhsMax =  -1.00469610381016E+00  2.31946124188555E-03
 cg2d: Sum(rhs),rhsMax =  -1.78565330600767E+00  2.37599942975302E-03
 cg2d: Sum(rhs),rhsMax =  -2.62429307361479E+00  2.42805544967015E-03
 cg2d: Sum(rhs),rhsMax =  -3.35748484693589E+00  2.47123046655701E-03
 cg2d: Sum(rhs),rhsMax =  -3.85508915577233E+00  2.50195599925125E-03
 cg2d: Sum(rhs),rhsMax =  -4.03589976001842E+00  2.51830324025307E-03
 cg2d: Sum(rhs),rhsMax =  -3.87512846274147E+00  2.52047520433565E-03
 cg2d: Sum(rhs),rhsMax =  -3.40600367361367E+00  2.51092922954780E-03
 cg2d: Sum(rhs),rhsMax =  -2.61682444293636E+00  2.58874086642504E-03
 cg2d: Sum(rhs),rhsMax =  -1.83238712958354E+00  2.61669729265103E-03
 cg2d: Sum(rhs),rhsMax =  -1.17513338797804E+00  2.56005945501900E-03
 cg2d: Sum(rhs),rhsMax =  -7.11994615210670E-01  2.47855832371704E-03
 cg2d: Sum(rhs),rhsMax =  -5.26422152344722E-01  2.47042093876424E-03
 cg2d: Sum(rhs),rhsMax =  -6.78930214996204E-01  2.49676871872623E-03
 cg2d: Sum(rhs),rhsMax =  -1.12673721800441E+00  2.53652613224341E-03
 cg2d: Sum(rhs),rhsMax =  -1.75981624719044E+00  2.58504765826456E-03
 cg2d: Sum(rhs),rhsMax =  -2.43940634624798E+00  2.63568092393233E-03
 cg2d: Sum(rhs),rhsMax =  -3.03203007809125E+00  2.68092816041052E-03
 cg2d: Sum(rhs),rhsMax =  -3.40991317068760E+00  2.73286300362395E-03
 cg2d: Sum(rhs),rhsMax =  -3.48046028461353E+00  2.80943918795130E-03
 cg2d: Sum(rhs),rhsMax =  -3.32063078133384E+00  2.84054005001040E-03
 cg2d: Sum(rhs),rhsMax =  -2.96079452277026E+00  2.82589053812711E-03
 cg2d: Sum(rhs),rhsMax =  -2.32992812216404E+00  2.92147974158724E-03
 cg2d: Sum(rhs),rhsMax =  -1.72242457045103E+00  2.94384962292557E-03
 cg2d: Sum(rhs),rhsMax =  -1.21221904301314E+00  2.89157779247879E-03
 cg2d: Sum(rhs),rhsMax =  -8.69698399652348E-01  2.78046456826180E-03
 cg2d: Sum(rhs),rhsMax =  -7.64867809801721E-01  2.63730949388808E-03
 cg2d: Sum(rhs),rhsMax =  -9.31747868334103E-01  2.54529698189185E-03
 cg2d: Sum(rhs),rhsMax =  -1.31074341456879E+00  2.59464763429194E-03
 cg2d: Sum(rhs),rhsMax =  -1.82960846638455E+00  2.67470083093316E-03
 cg2d: Sum(rhs),rhsMax =  -2.36415413520153E+00  2.77096207148918E-03
 cg2d: Sum(rhs),rhsMax =  -2.80794784401605E+00  2.86583701072650E-03
 cg2d: Sum(rhs),rhsMax =  -3.09076543235392E+00  2.94225349126299E-03
 cg2d: Sum(rhs),rhsMax =  -3.17911029253718E+00  2.98708401903449E-03
 cg2d: Sum(rhs),rhsMax =  -3.06968985993388E+00  2.99369696633534E-03
 cg2d: Sum(rhs),rhsMax =  -2.74200032130642E+00  3.00868114696585E-03
 cg2d: Sum(rhs),rhsMax =  -2.22987019565480E+00  3.08320495157139E-03
 cg2d: Sum(rhs),rhsMax =  -1.72892385126037E+00  3.09216601214178E-03
 cg2d: Sum(rhs),rhsMax =  -1.30661126825165E+00  3.03707922793673E-03
 cg2d: Sum(rhs),rhsMax =  -1.02724588109130E+00  2.93201253407008E-03
 cg2d: Sum(rhs),rhsMax =  -9.49612087389186E-01  2.80059567141560E-03
 cg2d: Sum(rhs),rhsMax =  -1.10546683802694E+00  2.68802005903695E-03
 cg2d: Sum(rhs),rhsMax =  -1.41911848743095E+00  2.73183497905325E-03
 cg2d: Sum(rhs),rhsMax =  -1.85263656050428E+00  2.80075118096711E-03
 cg2d: Sum(rhs),rhsMax =  -2.30607109847461E+00  2.88121978445701E-03
 cg2d: Sum(rhs),rhsMax =  -2.69038338284839E+00  2.95745892688012E-03
 cg2d: Sum(rhs),rhsMax =  -2.94313290723353E+00  3.01465303664102E-03
 cg2d: Sum(rhs),rhsMax =  -3.03123929780523E+00  3.04190019763213E-03
 cg2d: Sum(rhs),rhsMax =  -2.94785328079569E+00  3.03433133854936E-03
 cg2d: Sum(rhs),rhsMax =  -2.61356656935763E+00  3.10365975965271E-03
 cg2d: Sum(rhs),rhsMax =  -2.18161318616326E+00  3.16115502844364E-03
 cg2d: Sum(rhs),rhsMax =  -1.75526124479756E+00  3.15966311280031E-03
 cg2d: Sum(rhs),rhsMax =  -1.39603743647451E+00  3.10114910005347E-03
 cg2d: Sum(rhs),rhsMax =  -1.16177139960131E+00  2.99876543215136E-03
 cg2d: Sum(rhs),rhsMax =  -1.10293746934423E+00  2.87411080962590E-03
 cg2d: Sum(rhs),rhsMax =  -1.24975133991307E+00  2.75286352141645E-03
 cg2d: Sum(rhs),rhsMax =  -1.53840872113872E+00  2.75098208507396E-03
 cg2d: Sum(rhs),rhsMax =  -1.91301876653639E+00  2.81271661015717E-03
 cg2d: Sum(rhs),rhsMax =  -2.30705945948695E+00  2.88449373057551E-03
 cg2d: Sum(rhs),rhsMax =  -2.64297559734592E+00  2.95188717427745E-03
 cg2d: Sum(rhs),rhsMax =  -2.86495136709288E+00  3.00154110396566E-03
 cg2d: Sum(rhs),rhsMax =  -2.94238816236063E+00  3.02377917841391E-03
 cg2d: Sum(rhs),rhsMax =  -2.84207314563400E+00  3.04217203928783E-03
 cg2d: Sum(rhs),rhsMax =  -2.51902176724607E+00  3.13830802257202E-03
 cg2d: Sum(rhs),rhsMax =  -2.14123730643436E+00  3.18959320792873E-03
 cg2d: Sum(rhs),rhsMax =  -1.76835918916315E+00  3.18714929782143E-03
 cg2d: Sum(rhs),rhsMax =  -1.45590349135342E+00  3.13272226719290E-03
 cg2d: Sum(rhs),rhsMax =  -1.25508069970532E+00  3.03818414845452E-03
 cg2d: Sum(rhs),rhsMax =  -1.20874902875803E+00  2.92305989686243E-03
 cg2d: Sum(rhs),rhsMax =  -1.34034309659314E+00  2.81059303947138E-03
 cg2d: Sum(rhs),rhsMax =  -1.62624333911892E+00  2.74190563296262E-03
(PID.TID 0000.0001) %CHECKPOINT       100 ckptB
 --> objf_test(bi,bj)   =  0.509071981599534E-01
 --> objf_tracer(bi,bj) =  0.000000000000000E+00
 --> objf_atl(bi,bj)    =  0.000000000000000E+00
  local fc =  0.509071981599534E-01
 global fc =  0.509071981599534E-01
(PID.TID 0000.0001)  MDS_READ_FIELD: opening file: xx_depth.0000000000.001.001.data
grad-res -------------------------------
 grad-res     0    4    4    1    1    1    1    1   0.509071982062E-01 0.509071982523E-01 0.509071981600E-01
 grad-res     0    4    4    4   25    1    1    1   0.462340817856E-06 0.461980939614E-06 0.778383018995E-03
(PID.TID 0000.0001)   ADM  precision_derivative_cost =    5.09071982061515E-02
(PID.TID 0000.0001)   ADM  precision_derivative_grad =    4.62340817856078E-07
 ph-grd  ierr ---------------------------
 ph-grd  ierr =  0, icomp =  4, ichknum =  4
 ph-grd -->hit<--  5 1 1 1
(PID.TID 0000.0001)  MDS_READ_FIELD: opening file: adxx_depth.0000000000.001.001.data
(PID.TID 0000.0001)  MDS_READ_FIELD: opening file: xx_depth.0000000000.001.001.data
(PID.TID 0000.0001)  MDS_READ_FIELD: opening global file: noWalls.bigRidge
(PID.TID 0000.0001) // =======================================================
(PID.TID 0000.0001) // Field Model R_low (ini_masks_etc) at iteration          1
(PID.TID 0000.0001) // CMIN =         -5.000000000000000E+03
(PID.TID 0000.0001) // CMAX =         -2.000000000000000E+03
(PID.TID 0000.0001) // CINT =          1.111111111111111E+02
(PID.TID 0000.0001) // SYMBOLS (CMIN->CMAX): -abcdefghijklmnopqrstuvwxyz+
(PID.TID 0000.0001) //                  0.0: .
(PID.TID 0000.0001) // RANGE I (Lo:Hi:Step):(  -1:   7:   1)
(PID.TID 0000.0001) // RANGE J (Lo:Hi:Step):(   7:  -1:  -1)
(PID.TID 0000.0001) // RANGE K (Lo:Hi:Step):(   1:   1:   1)
(PID.TID 0000.0001) // =======================================================
(PID.TID 0000.0001) K =   1
(PID.TID 0000.0001) //
(PID.TID 0000.0001) // |--J--|101234567
(PID.TID 0000.0001) //      7 ----+----
(PID.TID 0000.0001) //      6 ----+----
(PID.TID 0000.0001) //      5 ----+----
(PID.TID 0000.0001) //      4 ----+----
(PID.TID 0000.0001) //      3 ----+----
(PID.TID 0000.0001) //      2 ----+----
(PID.TID 0000.0001) //      1 ----+----
(PID.TID 0000.0001) //      0 ----+----
(PID.TID 0000.0001) //     -1 ----+----
(PID.TID 0000.0001) // =======================================================
(PID.TID 0000.0001) // END OF FIELD                                          =
(PID.TID 0000.0001) // =======================================================
(PID.TID 0000.0001) 
(PID.TID 0000.0001) // =======================================================
(PID.TID 0000.0001) // Field Model Ro_surf (ini_masks_etc) at iteration          1
(PID.TID 0000.0001) // CMIN =          1.000000000000000E+32
(PID.TID 0000.0001) // CMAX =         -1.000000000000000E+32
(PID.TID 0000.0001) // CINT =          0.000000000000000E+00
(PID.TID 0000.0001) // SYMBOLS (CMIN->CMAX): -abcdefghijklmnopqrstuvwxyz+
(PID.TID 0000.0001) //                  0.0: .
(PID.TID 0000.0001) // RANGE I (Lo:Hi:Step):(  -1:   7:   1)
(PID.TID 0000.0001) // RANGE J (Lo:Hi:Step):(   7:  -1:  -1)
(PID.TID 0000.0001) // RANGE K (Lo:Hi:Step):(   1:   1:   1)
(PID.TID 0000.0001) // =======================================================
(PID.TID 0000.0001) // =======================================================
(PID.TID 0000.0001) // END OF FIELD                                          =
(PID.TID 0000.0001) // =======================================================
(PID.TID 0000.0001) 
(PID.TID 0000.0001) // =======================================================
(PID.TID 0000.0001) // Field hFacC at iteration          1
(PID.TID 0000.0001) // CMIN =          1.000000000000000E+00
(PID.TID 0000.0001) // CMAX =          1.000000000000000E+00
(PID.TID 0000.0001) // CINT =          0.000000000000000E+00
(PID.TID 0000.0001) // SYMBOLS (CMIN->CMAX): -abcdefghijklmnopqrstuvwxyz+
(PID.TID 0000.0001) //                  0.0: .
(PID.TID 0000.0001) // RANGE I (Lo:Hi:Step):(  -1:   7:   1)
(PID.TID 0000.0001) // RANGE J (Lo:Hi:Step):(   7:  -1:  -1)
(PID.TID 0000.0001) // RANGE K (Lo:Hi:Step):(   1:   1:   1)
(PID.TID 0000.0001) // =======================================================
(PID.TID 0000.0001) // =======================================================
(PID.TID 0000.0001) // END OF FIELD                                          =
(PID.TID 0000.0001) // =======================================================
(PID.TID 0000.0001) 
(PID.TID 0000.0001) // =======================================================
(PID.TID 0000.0001) // Field hFacW at iteration          1
(PID.TID 0000.0001) // CMIN =          1.000000000000000E+00
(PID.TID 0000.0001) // CMAX =          1.000000000000000E+00
(PID.TID 0000.0001) // CINT =          0.000000000000000E+00
(PID.TID 0000.0001) // SYMBOLS (CMIN->CMAX): -abcdefghijklmnopqrstuvwxyz+
(PID.TID 0000.0001) //                  0.0: .
(PID.TID 0000.0001) // RANGE I (Lo:Hi:Step):(  -1:   7:   1)
(PID.TID 0000.0001) // RANGE J (Lo:Hi:Step):(   7:  -1:  -1)
(PID.TID 0000.0001) // RANGE K (Lo:Hi:Step):(   1:   1:   1)
(PID.TID 0000.0001) // =======================================================
(PID.TID 0000.0001) // =======================================================
(PID.TID 0000.0001) // END OF FIELD                                          =
(PID.TID 0000.0001) // =======================================================
(PID.TID 0000.0001) 
(PID.TID 0000.0001) // =======================================================
(PID.TID 0000.0001) // Field hFacS at iteration          1
(PID.TID 0000.0001) // CMIN =          1.000000000000000E+00
(PID.TID 0000.0001) // CMAX =          1.000000000000000E+00
(PID.TID 0000.0001) // CINT =          0.000000000000000E+00
(PID.TID 0000.0001) // SYMBOLS (CMIN->CMAX): -abcdefghijklmnopqrstuvwxyz+
(PID.TID 0000.0001) //                  0.0: .
(PID.TID 0000.0001) // RANGE I (Lo:Hi:Step):(  -1:   7:   1)
(PID.TID 0000.0001) // RANGE J (Lo:Hi:Step):(   7:  -1:  -1)
(PID.TID 0000.0001) // RANGE K (Lo:Hi:Step):(   1:   1:   1)
(PID.TID 0000.0001) // =======================================================
(PID.TID 0000.0001) // =======================================================
(PID.TID 0000.0001) // END OF FIELD                                          =
(PID.TID 0000.0001) // =======================================================
(PID.TID 0000.0001) 
(PID.TID 0000.0001) %MON surfExpanfCori_max           =  -1.0735540000000E-04
(PID.TID 0000.0001) %MON surfExpanfCori_min           =  -1.1783060000000E-04
(PID.TID 0000.0001) %MON surfExpanfCori_mean          =  -1.1259300000000E-04
(PID.TID 0000.0001) %MON surfExpanfCori_sd            =   3.7035424771427E-06
(PID.TID 0000.0001) %MON surfExpanfCoriG_max          =  -1.0866480000000E-04
(PID.TID 0000.0001) %MON surfExpanfCoriG_min          =  -1.1914000000000E-04
(PID.TID 0000.0001) %MON surfExpanfCoriG_mean         =  -1.1390240000000E-04
(PID.TID 0000.0001) %MON surfExpanfCoriG_sd           =   3.7035424771427E-06
(PID.TID 0000.0001) %MON surfExpanfCoriCos_max        =   0.0000000000000E+00
(PID.TID 0000.0001) %MON surfExpanfCoriCos_min        =   0.0000000000000E+00
(PID.TID 0000.0001) %MON surfExpanfCoriCos_mean       =   0.0000000000000E+00
(PID.TID 0000.0001) %MON surfExpanfCoriCos_sd         =   0.0000000000000E+00
(PID.TID 0000.0001) INI_CG2D: CG2D normalisation factor =  1.9999999999999996E-04
(PID.TID 0000.0001) 
                     ctrl_depth_ini: ctrl update R_low,
                                     adding the control vector.
(PID.TID 0000.0001)  MDS_READ_FIELD: opening file: xx_depth.0000000000.001.001.data
(PID.TID 0000.0001) // =======================================================
(PID.TID 0000.0001) // Field Model Ro_surf (update_masks_etc) at iteration          1
(PID.TID 0000.0001) // CMIN =          1.000000000000000E+32
(PID.TID 0000.0001) // CMAX =         -1.000000000000000E+32
(PID.TID 0000.0001) // CINT =          0.000000000000000E+00
(PID.TID 0000.0001) // SYMBOLS (CMIN->CMAX): -abcdefghijklmnopqrstuvwxyz+
(PID.TID 0000.0001) //                  0.0: .
(PID.TID 0000.0001) // RANGE I (Lo:Hi:Step):(  -1:   7:   1)
(PID.TID 0000.0001) // RANGE J (Lo:Hi:Step):(   7:  -1:  -1)
(PID.TID 0000.0001) // RANGE K (Lo:Hi:Step):(   1:   1:   1)
(PID.TID 0000.0001) // =======================================================
(PID.TID 0000.0001) // =======================================================
(PID.TID 0000.0001) // END OF FIELD                                          =
(PID.TID 0000.0001) // =======================================================
(PID.TID 0000.0001) 
(PID.TID 0000.0001) // =======================================================
(PID.TID 0000.0001) // Field hFacC at iteration          1
(PID.TID 0000.0001) // CMIN =          1.000000000000000E+00
(PID.TID 0000.0001) // CMAX =          1.000000000000000E+00
(PID.TID 0000.0001) // CINT =          0.000000000000000E+00
(PID.TID 0000.0001) // SYMBOLS (CMIN->CMAX): -abcdefghijklmnopqrstuvwxyz+
(PID.TID 0000.0001) //                  0.0: .
(PID.TID 0000.0001) // RANGE I (Lo:Hi:Step):(  -1:   7:   1)
(PID.TID 0000.0001) // RANGE J (Lo:Hi:Step):(   7:  -1:  -1)
(PID.TID 0000.0001) // RANGE K (Lo:Hi:Step):(   1:   1:   1)
(PID.TID 0000.0001) // =======================================================
(PID.TID 0000.0001) // =======================================================
(PID.TID 0000.0001) // END OF FIELD                                          =
(PID.TID 0000.0001) // =======================================================
(PID.TID 0000.0001) 
(PID.TID 0000.0001) // =======================================================
(PID.TID 0000.0001) // Field hFacW at iteration          1
(PID.TID 0000.0001) // CMIN =          1.000000000000000E+00
(PID.TID 0000.0001) // CMAX =          1.000000000000000E+00
(PID.TID 0000.0001) // CINT =          0.000000000000000E+00
(PID.TID 0000.0001) // SYMBOLS (CMIN->CMAX): -abcdefghijklmnopqrstuvwxyz+
(PID.TID 0000.0001) //                  0.0: .
(PID.TID 0000.0001) // RANGE I (Lo:Hi:Step):(  -1:   7:   1)
(PID.TID 0000.0001) // RANGE J (Lo:Hi:Step):(   7:  -1:  -1)
(PID.TID 0000.0001) // RANGE K (Lo:Hi:Step):(   1:   1:   1)
(PID.TID 0000.0001) // =======================================================
(PID.TID 0000.0001) // =======================================================
(PID.TID 0000.0001) // END OF FIELD                                          =
(PID.TID 0000.0001) // =======================================================
(PID.TID 0000.0001) 
(PID.TID 0000.0001) // =======================================================
(PID.TID 0000.0001) // Field hFacS at iteration          1
(PID.TID 0000.0001) // CMIN =          1.000000000000000E+00
(PID.TID 0000.0001) // CMAX =          1.000000000000000E+00
(PID.TID 0000.0001) // CINT =          0.000000000000000E+00
(PID.TID 0000.0001) // SYMBOLS (CMIN->CMAX): -abcdefghijklmnopqrstuvwxyz+
(PID.TID 0000.0001) //                  0.0: .
(PID.TID 0000.0001) // RANGE I (Lo:Hi:Step):(  -1:   7:   1)
(PID.TID 0000.0001) // RANGE J (Lo:Hi:Step):(   7:  -1:  -1)
(PID.TID 0000.0001) // RANGE K (Lo:Hi:Step):(   1:   1:   1)
(PID.TID 0000.0001) // =======================================================
(PID.TID 0000.0001) // =======================================================
(PID.TID 0000.0001) // END OF FIELD                                          =
(PID.TID 0000.0001) // =======================================================
(PID.TID 0000.0001) 
(PID.TID 0000.0001) // =======================================================
(PID.TID 0000.0001) // Field Initial Temperature at iteration          1
(PID.TID 0000.0001) // CMIN =          4.000000000000000E+00
(PID.TID 0000.0001) // CMAX =          4.000000000000000E+00
(PID.TID 0000.0001) // CINT =          0.000000000000000E+00
(PID.TID 0000.0001) // SYMBOLS (CMIN->CMAX): -abcdefghijklmnopqrstuvwxyz+
(PID.TID 0000.0001) //                  0.0: .
(PID.TID 0000.0001) // RANGE I (Lo:Hi:Step):(   1:   5:   1)
(PID.TID 0000.0001) // RANGE J (Lo:Hi:Step):(   5:   1:  -1)
(PID.TID 0000.0001) // RANGE K (Lo:Hi:Step):(   1:   1:   1)
(PID.TID 0000.0001) // =======================================================
(PID.TID 0000.0001) // =======================================================
(PID.TID 0000.0001) // END OF FIELD                                          =
(PID.TID 0000.0001) // =======================================================
(PID.TID 0000.0001) 
(PID.TID 0000.0001) // =======================================================
(PID.TID 0000.0001) // Field Initial Salinity at iteration          1
(PID.TID 0000.0001) // CMIN =          3.500000000000000E+01
(PID.TID 0000.0001) // CMAX =          3.500000000000000E+01
(PID.TID 0000.0001) // CINT =          0.000000000000000E+00
(PID.TID 0000.0001) // SYMBOLS (CMIN->CMAX): -abcdefghijklmnopqrstuvwxyz+
(PID.TID 0000.0001) //                  0.0: .
(PID.TID 0000.0001) // RANGE I (Lo:Hi:Step):(   1:   5:   1)
(PID.TID 0000.0001) // RANGE J (Lo:Hi:Step):(   5:   1:  -1)
(PID.TID 0000.0001) // RANGE K (Lo:Hi:Step):(   1:   1:   1)
(PID.TID 0000.0001) // =======================================================
(PID.TID 0000.0001) // =======================================================
(PID.TID 0000.0001) // END OF FIELD                                          =
(PID.TID 0000.0001) // =======================================================
(PID.TID 0000.0001) 
(PID.TID 0000.0001) Start initial hydrostatic pressure computation
(PID.TID 0000.0001) Pressure is predetermined for buoyancyRelation OCEANIC
(PID.TID 0000.0001) 
(PID.TID 0000.0001)  MDS_READ_FIELD: opening global file: windx.sin_y
(PID.TID 0000.0001) // =======================================================
(PID.TID 0000.0001) // Model current state
(PID.TID 0000.0001) // =======================================================
(PID.TID 0000.0001) 
 cg2d: Sum(rhs),rhsMax =   0.00000000000000E+00  0.00000000000000E+00
 cg2d: Sum(rhs),rhsMax =  -2.49999999999996E+01  6.03492218443698E-05
 cg2d: Sum(rhs),rhsMax =  -1.81034404639062E+01  2.18766023587219E-04
 cg2d: Sum(rhs),rhsMax =  -1.54955562832178E+01  4.32479836297446E-04
 cg2d: Sum(rhs),rhsMax =  -1.41111452320313E+01  6.49958988364853E-04
 cg2d: Sum(rhs),rhsMax =  -1.31144322323688E+01  8.30737102882035E-04
 cg2d: Sum(rhs),rhsMax =  -1.21209090322694E+01  9.52510661980611E-04
 cg2d: Sum(rhs),rhsMax =  -1.07124742393970E+01  1.02806631141183E-03
 cg2d: Sum(rhs),rhsMax =  -7.41375936693836E+00  1.27086596327312E-03
 cg2d: Sum(rhs),rhsMax =  -4.70217533476514E+00  1.51019014083320E-03
 cg2d: Sum(rhs),rhsMax =  -2.72440685935988E+00  1.65833738297816E-03
 cg2d: Sum(rhs),rhsMax =  -1.27958669042087E+00  1.70565508817094E-03
 cg2d: Sum(rhs),rhsMax =  -3.29564699014374E-01  1.66071960612881E-03
 cg2d: Sum(rhs),rhsMax =   5.21320408357283E-02  1.54812756174913E-03
 cg2d: Sum(rhs),rhsMax =  -2.86625374103661E-01  1.40338816132885E-03
 cg2d: Sum(rhs),rhsMax =  -1.30315843830020E+00  1.44268599146166E-03
 cg2d: Sum(rhs),rhsMax =  -2.68067691002959E+00  1.50836886213752E-03
 cg2d: Sum(rhs),rhsMax =  -4.07407454100529E+00  1.58424366605597E-03
 cg2d: Sum(rhs),rhsMax =  -5.18272348683313E+00  1.66593592621739E-03
 cg2d: Sum(rhs),rhsMax =  -5.80990599086572E+00  1.74846175096946E-03
 cg2d: Sum(rhs),rhsMax =  -5.87740628690849E+00  1.82725970814759E-03
 cg2d: Sum(rhs),rhsMax =  -5.41358312920156E+00  1.89900434095469E-03
 cg2d: Sum(rhs),rhsMax =  -4.53080678622676E+00  1.96213933680736E-03
 cg2d: Sum(rhs),rhsMax =  -3.22587898367546E+00  2.12611202965955E-03
 cg2d: Sum(rhs),rhsMax =  -2.04447211458799E+00  2.24837954137764E-03
 cg2d: Sum(rhs),rhsMax =  -1.10818136961478E+00  2.30404049569632E-03
 cg2d: Sum(rhs),rhsMax =  -4.90484877915965E-01  2.29576532846206E-03
 cg2d: Sum(rhs),rhsMax =  -2.61247061457807E-01  2.23814842636331E-03
 cg2d: Sum(rhs),rhsMax =  -4.50921970440970E-01  2.26266904959190E-03
 cg2d: Sum(rhs),rhsMax =  -1.00469611210299E+00  2.31946121122666E-03
 cg2d: Sum(rhs),rhsMax =  -1.78565332485108E+00  2.37599939778490E-03
 cg2d: Sum(rhs),rhsMax =  -2.62429310328505E+00  2.42805541719904E-03
 cg2d: Sum(rhs),rhsMax =  -3.35748488521358E+00  2.47123043414931E-03
 cg2d: Sum(rhs),rhsMax =  -3.85508919905597E+00  2.50195596714371E-03
 cg2d: Sum(rhs),rhsMax =  -4.03589980443641E+00  2.51830320832771E-03
 cg2d: Sum(rhs),rhsMax =  -3.87512850478513E+00  2.52047517216115E-03
 cg2d: Sum(rhs),rhsMax =  -3.40600371027412E+00  2.51092919647595E-03
 cg2d: Sum(rhs),rhsMax =  -2.61682440872097E+00  2.58874089165429E-03
 cg2d: Sum(rhs),rhsMax =  -1.83238710227453E+00  2.61669731827095E-03
 cg2d: Sum(rhs),rhsMax =  -1.17513336563524E+00  2.56005948123603E-03
 cg2d: Sum(rhs),rhsMax =  -7.11994607119514E-01  2.47855831237948E-03
 cg2d: Sum(rhs),rhsMax =  -5.26422150093349E-01  2.47042089291484E-03
 cg2d: Sum(rhs),rhsMax =  -6.78930215725863E-01  2.49676867021031E-03
 cg2d: Sum(rhs),rhsMax =  -1.12673722772886E+00  2.53652608156736E-03
 cg2d: Sum(rhs),rhsMax =  -1.75981626971930E+00  2.58504760601153E-03
 cg2d: Sum(rhs),rhsMax =  -2.43940638226498E+00  2.63568087064540E-03
 cg2d: Sum(rhs),rhsMax =  -3.03203012544168E+00  2.68092810649234E-03
 cg2d: Sum(rhs),rhsMax =  -3.40991311959153E+00  2.73286303336734E-03
 cg2d: Sum(rhs),rhsMax =  -3.48046023232177E+00  2.80943921863405E-03
 cg2d: Sum(rhs),rhsMax =  -3.32063072866806E+00  2.84054008234105E-03
 cg2d: Sum(rhs),rhsMax =  -2.96079447097943E+00  2.82589057251782E-03
 cg2d: Sum(rhs),rhsMax =  -2.32992807291198E+00  2.92147978320734E-03
 cg2d: Sum(rhs),rhsMax =  -1.72242452890138E+00  2.94384966531102E-03
 cg2d: Sum(rhs),rhsMax =  -1.21221900702234E+00  2.89157783574150E-03
 cg2d: Sum(rhs),rhsMax =  -8.69698366446720E-01  2.78046461256020E-03
 cg2d: Sum(rhs),rhsMax =  -7.64867775447653E-01  2.63730953938801E-03
 cg2d: Sum(rhs),rhsMax =  -9.31747831479895E-01  2.54529702071475E-03
 cg2d: Sum(rhs),rhsMax =  -1.31074337264914E+00  2.59464767200447E-03
 cg2d: Sum(rhs),rhsMax =  -1.82960841851648E+00  2.67470086758126E-03
 cg2d: Sum(rhs),rhsMax =  -2.36415408193419E+00  2.77096210742126E-03
 cg2d: Sum(rhs),rhsMax =  -2.80794778647694E+00  2.86583704650601E-03
 cg2d: Sum(rhs),rhsMax =  -3.09076537169013E+00  2.94225352753631E-03
 cg2d: Sum(rhs),rhsMax =  -3.17911022984971E+00  2.98708405638289E-03
 cg2d: Sum(rhs),rhsMax =  -3.06968979647543E+00  2.99369700514258E-03
 cg2d: Sum(rhs),rhsMax =  -2.74200024595063E+00  3.00868120290884E-03
 cg2d: Sum(rhs),rhsMax =  -2.22987012991978E+00  3.08320500843432E-03
 cg2d: Sum(rhs),rhsMax =  -1.72892379351848E+00  3.09216607005421E-03
 cg2d: Sum(rhs),rhsMax =  -1.30661121618266E+00  3.03707928706614E-03
 cg2d: Sum(rhs),rhsMax =  -1.02724583151575E+00  2.93201259458680E-03
 cg2d: Sum(rhs),rhsMax =  -9.49612035883819E-01  2.80059573345602E-03
 cg2d: Sum(rhs),rhsMax =  -1.10546678914532E+00  2.68802009891395E-03
 cg2d: Sum(rhs),rhsMax =  -1.41911843478220E+00  2.73183501756198E-03
 cg2d: Sum(rhs),rhsMax =  -1.85263650322712E+00  2.80075121843473E-03
 cg2d: Sum(rhs),rhsMax =  -2.30607103660643E+00  2.88121982148216E-03
 cg2d: Sum(rhs),rhsMax =  -2.69038331680761E+00  2.95745896421773E-03
 cg2d: Sum(rhs),rhsMax =  -2.94313283754960E+00  3.01465307505287E-03
 cg2d: Sum(rhs),rhsMax =  -3.03123922517496E+00  3.04190023773317E-03
 cg2d: Sum(rhs),rhsMax =  -2.94785320627831E+00  3.03433138068104E-03
 cg2d: Sum(rhs),rhsMax =  -2.61356647464178E+00  3.10365983211857E-03
 cg2d: Sum(rhs),rhsMax =  -2.18161310161211E+00  3.16115510178490E-03
 cg2d: Sum(rhs),rhsMax =  -1.75526116867160E+00  3.15966318720001E-03
 cg2d: Sum(rhs),rhsMax =  -1.39603736613440E+00  3.10114917573191E-03
 cg2d: Sum(rhs),rhsMax =  -1.16177133140286E+00  2.99876550932462E-03
 cg2d: Sum(rhs),rhsMax =  -1.10293739837208E+00  2.87411088846485E-03
 cg2d: Sum(rhs),rhsMax =  -1.24975126008490E+00  2.75286360201411E-03
 cg2d: Sum(rhs),rhsMax =  -1.53840865383204E+00  2.75098212683278E-03
 cg2d: Sum(rhs),rhsMax =  -1.91301869541620E+00  2.81271665054562E-03
 cg2d: Sum(rhs),rhsMax =  -2.30705938453672E+00  2.88449377023254E-03
 cg2d: Sum(rhs),rhsMax =  -2.64297551881167E+00  2.95188721402299E-03
 cg2d: Sum(rhs),rhsMax =  -2.86495128526693E+00  3.00154114464432E-03
 cg2d: Sum(rhs),rhsMax =  -2.94238807766615E+00  3.02377922073453E-03
 cg2d: Sum(rhs),rhsMax =  -2.84207301791294E+00  3.04217212875007E-03
 cg2d: Sum(rhs),rhsMax =  -2.51902165112607E+00  3.13830811279280E-03
 cg2d: Sum(rhs),rhsMax =  -2.14123720138982E+00  3.18959329898887E-03
 cg2d: Sum(rhs),rhsMax =  -1.76835909323800E+00  3.18714938987731E-03
 cg2d: Sum(rhs),rhsMax =  -1.45590340151290E+00  3.13272236044524E-03
 cg2d: Sum(rhs),rhsMax =  -1.25508061181631E+00  3.03818424310904E-03
 cg2d: Sum(rhs),rhsMax =  -1.20874893746024E+00  2.92305999309063E-03
 cg2d: Sum(rhs),rhsMax =  -1.34034299557548E+00  2.81059313737878E-03
 cg2d: Sum(rhs),rhsMax =  -1.62624325527173E+00  2.74190567920564E-03
(PID.TID 0000.0001) %CHECKPOINT       100 ckptA
 --> objf_test(bi,bj)   =  0.509071988178014E-01
 --> objf_tracer(bi,bj) =  0.000000000000000E+00
 --> objf_atl(bi,bj)    =  0.000000000000000E+00
  local fc =  0.509071988178014E-01
 global fc =  0.509071988178014E-01
 ph-check fcpertplus =   0.0509071988
(PID.TID 0000.0001)  MDS_READ_FIELD: opening file: xx_depth.0000000000.001.001.data
 ph-check fcpertminus =   0.0509071982
(PID.TID 0000.0001)  MDS_READ_FIELD: opening file: xx_depth.0000000000.001.001.data
(PID.TID 0000.0001)  MDS_READ_FIELD: opening global file: noWalls.bigRidge
(PID.TID 0000.0001) // =======================================================
(PID.TID 0000.0001) // Field Model R_low (ini_masks_etc) at iteration          1
(PID.TID 0000.0001) // CMIN =         -5.000000000000000E+03
(PID.TID 0000.0001) // CMAX =         -2.000000000000000E+03
(PID.TID 0000.0001) // CINT =          1.111111111111111E+02
(PID.TID 0000.0001) // SYMBOLS (CMIN->CMAX): -abcdefghijklmnopqrstuvwxyz+
(PID.TID 0000.0001) //                  0.0: .
(PID.TID 0000.0001) // RANGE I (Lo:Hi:Step):(  -1:   7:   1)
(PID.TID 0000.0001) // RANGE J (Lo:Hi:Step):(   7:  -1:  -1)
(PID.TID 0000.0001) // RANGE K (Lo:Hi:Step):(   1:   1:   1)
(PID.TID 0000.0001) // =======================================================
(PID.TID 0000.0001) K =   1
(PID.TID 0000.0001) //
(PID.TID 0000.0001) // |--J--|101234567
(PID.TID 0000.0001) //      7 ----+----
(PID.TID 0000.0001) //      6 ----+----
(PID.TID 0000.0001) //      5 ----+----
(PID.TID 0000.0001) //      4 ----+----
(PID.TID 0000.0001) //      3 ----+----
(PID.TID 0000.0001) //      2 ----+----
(PID.TID 0000.0001) //      1 ----+----
(PID.TID 0000.0001) //      0 ----+----
(PID.TID 0000.0001) //     -1 ----+----
(PID.TID 0000.0001) // =======================================================
(PID.TID 0000.0001) // END OF FIELD                                          =
(PID.TID 0000.0001) // =======================================================
(PID.TID 0000.0001) 
(PID.TID 0000.0001) // =======================================================
(PID.TID 0000.0001) // Field Model Ro_surf (ini_masks_etc) at iteration          1
(PID.TID 0000.0001) // CMIN =          1.000000000000000E+32
(PID.TID 0000.0001) // CMAX =         -1.000000000000000E+32
(PID.TID 0000.0001) // CINT =          0.000000000000000E+00
(PID.TID 0000.0001) // SYMBOLS (CMIN->CMAX): -abcdefghijklmnopqrstuvwxyz+
(PID.TID 0000.0001) //                  0.0: .
(PID.TID 0000.0001) // RANGE I (Lo:Hi:Step):(  -1:   7:   1)
(PID.TID 0000.0001) // RANGE J (Lo:Hi:Step):(   7:  -1:  -1)
(PID.TID 0000.0001) // RANGE K (Lo:Hi:Step):(   1:   1:   1)
(PID.TID 0000.0001) // =======================================================
(PID.TID 0000.0001) // =======================================================
(PID.TID 0000.0001) // END OF FIELD                                          =
(PID.TID 0000.0001) // =======================================================
(PID.TID 0000.0001) 
(PID.TID 0000.0001) // =======================================================
(PID.TID 0000.0001) // Field hFacC at iteration          1
(PID.TID 0000.0001) // CMIN =          1.000000000000000E+00
(PID.TID 0000.0001) // CMAX =          1.000000000000000E+00
(PID.TID 0000.0001) // CINT =          0.000000000000000E+00
(PID.TID 0000.0001) // SYMBOLS (CMIN->CMAX): -abcdefghijklmnopqrstuvwxyz+
(PID.TID 0000.0001) //                  0.0: .
(PID.TID 0000.0001) // RANGE I (Lo:Hi:Step):(  -1:   7:   1)
(PID.TID 0000.0001) // RANGE J (Lo:Hi:Step):(   7:  -1:  -1)
(PID.TID 0000.0001) // RANGE K (Lo:Hi:Step):(   1:   1:   1)
(PID.TID 0000.0001) // =======================================================
(PID.TID 0000.0001) // =======================================================
(PID.TID 0000.0001) // END OF FIELD                                          =
(PID.TID 0000.0001) // =======================================================
(PID.TID 0000.0001) 
(PID.TID 0000.0001) // =======================================================
(PID.TID 0000.0001) // Field hFacW at iteration          1
(PID.TID 0000.0001) // CMIN =          1.000000000000000E+00
(PID.TID 0000.0001) // CMAX =          1.000000000000000E+00
(PID.TID 0000.0001) // CINT =          0.000000000000000E+00
(PID.TID 0000.0001) // SYMBOLS (CMIN->CMAX): -abcdefghijklmnopqrstuvwxyz+
(PID.TID 0000.0001) //                  0.0: .
(PID.TID 0000.0001) // RANGE I (Lo:Hi:Step):(  -1:   7:   1)
(PID.TID 0000.0001) // RANGE J (Lo:Hi:Step):(   7:  -1:  -1)
(PID.TID 0000.0001) // RANGE K (Lo:Hi:Step):(   1:   1:   1)
(PID.TID 0000.0001) // =======================================================
(PID.TID 0000.0001) // =======================================================
(PID.TID 0000.0001) // END OF FIELD                                          =
(PID.TID 0000.0001) // =======================================================
(PID.TID 0000.0001) 
(PID.TID 0000.0001) // =======================================================
(PID.TID 0000.0001) // Field hFacS at iteration          1
(PID.TID 0000.0001) // CMIN =          1.000000000000000E+00
(PID.TID 0000.0001) // CMAX =          1.000000000000000E+00
(PID.TID 0000.0001) // CINT =          0.000000000000000E+00
(PID.TID 0000.0001) // SYMBOLS (CMIN->CMAX): -abcdefghijklmnopqrstuvwxyz+
(PID.TID 0000.0001) //                  0.0: .
(PID.TID 0000.0001) // RANGE I (Lo:Hi:Step):(  -1:   7:   1)
(PID.TID 0000.0001) // RANGE J (Lo:Hi:Step):(   7:  -1:  -1)
(PID.TID 0000.0001) // RANGE K (Lo:Hi:Step):(   1:   1:   1)
(PID.TID 0000.0001) // =======================================================
(PID.TID 0000.0001) // =======================================================
(PID.TID 0000.0001) // END OF FIELD                                          =
(PID.TID 0000.0001) // =======================================================
(PID.TID 0000.0001) 
(PID.TID 0000.0001) %MON surfExpanfCori_max           =  -1.0735540000000E-04
(PID.TID 0000.0001) %MON surfExpanfCori_min           =  -1.1783060000000E-04
(PID.TID 0000.0001) %MON surfExpanfCori_mean          =  -1.1259300000000E-04
(PID.TID 0000.0001) %MON surfExpanfCori_sd            =   3.7035424771427E-06
(PID.TID 0000.0001) %MON surfExpanfCoriG_max          =  -1.0866480000000E-04
(PID.TID 0000.0001) %MON surfExpanfCoriG_min          =  -1.1914000000000E-04
(PID.TID 0000.0001) %MON surfExpanfCoriG_mean         =  -1.1390240000000E-04
(PID.TID 0000.0001) %MON surfExpanfCoriG_sd           =   3.7035424771427E-06
(PID.TID 0000.0001) %MON surfExpanfCoriCos_max        =   0.0000000000000E+00
(PID.TID 0000.0001) %MON surfExpanfCoriCos_min        =   0.0000000000000E+00
(PID.TID 0000.0001) %MON surfExpanfCoriCos_mean       =   0.0000000000000E+00
(PID.TID 0000.0001) %MON surfExpanfCoriCos_sd         =   0.0000000000000E+00
(PID.TID 0000.0001) INI_CG2D: CG2D normalisation factor =  1.9999999999999996E-04
(PID.TID 0000.0001) 
                     ctrl_depth_ini: ctrl update R_low,
                                     adding the control vector.
(PID.TID 0000.0001)  MDS_READ_FIELD: opening file: xx_depth.0000000000.001.001.data
(PID.TID 0000.0001) // =======================================================
(PID.TID 0000.0001) // Field Model Ro_surf (update_masks_etc) at iteration          1
(PID.TID 0000.0001) // CMIN =          1.000000000000000E+32
(PID.TID 0000.0001) // CMAX =         -1.000000000000000E+32
(PID.TID 0000.0001) // CINT =          0.000000000000000E+00
(PID.TID 0000.0001) // SYMBOLS (CMIN->CMAX): -abcdefghijklmnopqrstuvwxyz+
(PID.TID 0000.0001) //                  0.0: .
(PID.TID 0000.0001) // RANGE I (Lo:Hi:Step):(  -1:   7:   1)
(PID.TID 0000.0001) // RANGE J (Lo:Hi:Step):(   7:  -1:  -1)
(PID.TID 0000.0001) // RANGE K (Lo:Hi:Step):(   1:   1:   1)
(PID.TID 0000.0001) // =======================================================
(PID.TID 0000.0001) // =======================================================
(PID.TID 0000.0001) // END OF FIELD                                          =
(PID.TID 0000.0001) // =======================================================
(PID.TID 0000.0001) 
(PID.TID 0000.0001) // =======================================================
(PID.TID 0000.0001) // Field hFacC at iteration          1
(PID.TID 0000.0001) // CMIN =          1.000000000000000E+00
(PID.TID 0000.0001) // CMAX =          1.000000000000000E+00
(PID.TID 0000.0001) // CINT =          0.000000000000000E+00
(PID.TID 0000.0001) // SYMBOLS (CMIN->CMAX): -abcdefghijklmnopqrstuvwxyz+
(PID.TID 0000.0001) //                  0.0: .
(PID.TID 0000.0001) // RANGE I (Lo:Hi:Step):(  -1:   7:   1)
(PID.TID 0000.0001) // RANGE J (Lo:Hi:Step):(   7:  -1:  -1)
(PID.TID 0000.0001) // RANGE K (Lo:Hi:Step):(   1:   1:   1)
(PID.TID 0000.0001) // =======================================================
(PID.TID 0000.0001) // =======================================================
(PID.TID 0000.0001) // END OF FIELD                                          =
(PID.TID 0000.0001) // =======================================================
(PID.TID 0000.0001) 
(PID.TID 0000.0001) // =======================================================
(PID.TID 0000.0001) // Field hFacW at iteration          1
(PID.TID 0000.0001) // CMIN =          1.000000000000000E+00
(PID.TID 0000.0001) // CMAX =          1.000000000000000E+00
(PID.TID 0000.0001) // CINT =          0.000000000000000E+00
(PID.TID 0000.0001) // SYMBOLS (CMIN->CMAX): -abcdefghijklmnopqrstuvwxyz+
(PID.TID 0000.0001) //                  0.0: .
(PID.TID 0000.0001) // RANGE I (Lo:Hi:Step):(  -1:   7:   1)
(PID.TID 0000.0001) // RANGE J (Lo:Hi:Step):(   7:  -1:  -1)
(PID.TID 0000.0001) // RANGE K (Lo:Hi:Step):(   1:   1:   1)
(PID.TID 0000.0001) // =======================================================
(PID.TID 0000.0001) // =======================================================
(PID.TID 0000.0001) // END OF FIELD                                          =
(PID.TID 0000.0001) // =======================================================
(PID.TID 0000.0001) 
(PID.TID 0000.0001) // =======================================================
(PID.TID 0000.0001) // Field hFacS at iteration          1
(PID.TID 0000.0001) // CMIN =          1.000000000000000E+00
(PID.TID 0000.0001) // CMAX =          1.000000000000000E+00
(PID.TID 0000.0001) // CINT =          0.000000000000000E+00
(PID.TID 0000.0001) // SYMBOLS (CMIN->CMAX): -abcdefghijklmnopqrstuvwxyz+
(PID.TID 0000.0001) //                  0.0: .
(PID.TID 0000.0001) // RANGE I (Lo:Hi:Step):(  -1:   7:   1)
(PID.TID 0000.0001) // RANGE J (Lo:Hi:Step):(   7:  -1:  -1)
(PID.TID 0000.0001) // RANGE K (Lo:Hi:Step):(   1:   1:   1)
(PID.TID 0000.0001) // =======================================================
(PID.TID 0000.0001) // =======================================================
(PID.TID 0000.0001) // END OF FIELD                                          =
(PID.TID 0000.0001) // =======================================================
(PID.TID 0000.0001) 
(PID.TID 0000.0001) // =======================================================
(PID.TID 0000.0001) // Field Initial Temperature at iteration          1
(PID.TID 0000.0001) // CMIN =          4.000000000000000E+00
(PID.TID 0000.0001) // CMAX =          4.000000000000000E+00
(PID.TID 0000.0001) // CINT =          0.000000000000000E+00
(PID.TID 0000.0001) // SYMBOLS (CMIN->CMAX): -abcdefghijklmnopqrstuvwxyz+
(PID.TID 0000.0001) //                  0.0: .
(PID.TID 0000.0001) // RANGE I (Lo:Hi:Step):(   1:   5:   1)
(PID.TID 0000.0001) // RANGE J (Lo:Hi:Step):(   5:   1:  -1)
(PID.TID 0000.0001) // RANGE K (Lo:Hi:Step):(   1:   1:   1)
(PID.TID 0000.0001) // =======================================================
(PID.TID 0000.0001) // =======================================================
(PID.TID 0000.0001) // END OF FIELD                                          =
(PID.TID 0000.0001) // =======================================================
(PID.TID 0000.0001) 
(PID.TID 0000.0001) // =======================================================
(PID.TID 0000.0001) // Field Initial Salinity at iteration          1
(PID.TID 0000.0001) // CMIN =          3.500000000000000E+01
(PID.TID 0000.0001) // CMAX =          3.500000000000000E+01
(PID.TID 0000.0001) // CINT =          0.000000000000000E+00
(PID.TID 0000.0001) // SYMBOLS (CMIN->CMAX): -abcdefghijklmnopqrstuvwxyz+
(PID.TID 0000.0001) //                  0.0: .
(PID.TID 0000.0001) // RANGE I (Lo:Hi:Step):(   1:   5:   1)
(PID.TID 0000.0001) // RANGE J (Lo:Hi:Step):(   5:   1:  -1)
(PID.TID 0000.0001) // RANGE K (Lo:Hi:Step):(   1:   1:   1)
(PID.TID 0000.0001) // =======================================================
(PID.TID 0000.0001) // =======================================================
(PID.TID 0000.0001) // END OF FIELD                                          =
(PID.TID 0000.0001) // =======================================================
(PID.TID 0000.0001) 
(PID.TID 0000.0001) Start initial hydrostatic pressure computation
(PID.TID 0000.0001) Pressure is predetermined for buoyancyRelation OCEANIC
(PID.TID 0000.0001) 
(PID.TID 0000.0001)  MDS_READ_FIELD: opening global file: windx.sin_y
(PID.TID 0000.0001) // =======================================================
(PID.TID 0000.0001) // Model current state
(PID.TID 0000.0001) // =======================================================
(PID.TID 0000.0001) 
 cg2d: Sum(rhs),rhsMax =   0.00000000000000E+00  0.00000000000000E+00
 cg2d: Sum(rhs),rhsMax =  -2.49999999999996E+01  6.03492218443698E-05
 cg2d: Sum(rhs),rhsMax =  -1.81034404639062E+01  2.18766023587219E-04
 cg2d: Sum(rhs),rhsMax =  -1.54955562832117E+01  4.32479836297446E-04
 cg2d: Sum(rhs),rhsMax =  -1.41111452338680E+01  6.49958988281975E-04
 cg2d: Sum(rhs),rhsMax =  -1.31144322341536E+01  8.30737102774747E-04
 cg2d: Sum(rhs),rhsMax =  -1.21209090328082E+01  9.52510661949972E-04
 cg2d: Sum(rhs),rhsMax =  -1.07124742350169E+01  1.02806631185230E-03
 cg2d: Sum(rhs),rhsMax =  -7.41375936637576E+00  1.27086596340831E-03
 cg2d: Sum(rhs),rhsMax =  -4.70217533434295E+00  1.51019014104297E-03
 cg2d: Sum(rhs),rhsMax =  -2.72440685919852E+00  1.65833738322204E-03
 cg2d: Sum(rhs),rhsMax =  -1.27958669052520E+00  1.70565508837175E-03
 cg2d: Sum(rhs),rhsMax =  -3.29564699290639E-01  1.66071960617899E-03
 cg2d: Sum(rhs),rhsMax =   5.21320404951835E-02  1.54812756152350E-03
 cg2d: Sum(rhs),rhsMax =  -2.86625374697333E-01  1.40338816070225E-03
 cg2d: Sum(rhs),rhsMax =  -1.30315842910342E+00  1.44268600229569E-03
 cg2d: Sum(rhs),rhsMax =  -2.68067689595883E+00  1.50836887048758E-03
 cg2d: Sum(rhs),rhsMax =  -4.07407452602550E+00  1.58424367227541E-03
 cg2d: Sum(rhs),rhsMax =  -5.18272347214542E+00  1.66593593136424E-03
 cg2d: Sum(rhs),rhsMax =  -5.80990597369571E+00  1.74846175664608E-03
 cg2d: Sum(rhs),rhsMax =  -5.87740626304272E+00  1.82725971622354E-03
 cg2d: Sum(rhs),rhsMax =  -5.41358309678411E+00  1.89900435322687E-03
 cg2d: Sum(rhs),rhsMax =  -4.53080674804421E+00  1.96213935466446E-03
 cg2d: Sum(rhs),rhsMax =  -3.22587899449423E+00  2.12611202474962E-03
 cg2d: Sum(rhs),rhsMax =  -2.04447212307669E+00  2.24837953614011E-03
 cg2d: Sum(rhs),rhsMax =  -1.10818137650366E+00  2.30404049005324E-03
 cg2d: Sum(rhs),rhsMax =  -4.90484883976641E-01  2.29576532229186E-03
 cg2d: Sum(rhs),rhsMax =  -2.61247067709078E-01  2.23814841951585E-03
 cg2d: Sum(rhs),rhsMax =  -4.50921968202099E-01  2.26266909097831E-03
 cg2d: Sum(rhs),rhsMax =  -1.00469610133766E+00  2.31946125112106E-03
 cg2d: Sum(rhs),rhsMax =  -1.78565330372400E+00  2.37599943530282E-03
 cg2d: Sum(rhs),rhsMax =  -2.62429307309806E+00  2.42805545225078E-03
 cg2d: Sum(rhs),rhsMax =  -3.35748484840317E+00  2.47123046744559E-03
 cg2d: Sum(rhs),rhsMax =  -3.85508915763253E+00  2.50195600004861E-03
 cg2d: Sum(rhs),rhsMax =  -4.03589975978952E+00  2.51830324258962E-03
 cg2d: Sum(rhs),rhsMax =  -3.87512845864577E+00  2.52047520957545E-03
 cg2d: Sum(rhs),rhsMax =  -3.40600366583786E+00  2.51092923854653E-03
 cg2d: Sum(rhs),rhsMax =  -2.61682445754884E+00  2.58874085667425E-03
 cg2d: Sum(rhs),rhsMax =  -1.83238714173678E+00  2.61669728270661E-03
 cg2d: Sum(rhs),rhsMax =  -1.17513339856281E+00  2.56005944469769E-03
 cg2d: Sum(rhs),rhsMax =  -7.11994630871218E-01  2.47855829239712E-03
 cg2d: Sum(rhs),rhsMax =  -5.26422155545478E-01  2.47042095840299E-03
 cg2d: Sum(rhs),rhsMax =  -6.78930218182987E-01  2.49676873670848E-03
 cg2d: Sum(rhs),rhsMax =  -1.12673721991377E+00  2.53652614770639E-03
 cg2d: Sum(rhs),rhsMax =  -1.75981624807553E+00  2.58504767089863E-03
 cg2d: Sum(rhs),rhsMax =  -2.43940634712832E+00  2.63568093400702E-03
 cg2d: Sum(rhs),rhsMax =  -3.03203007967760E+00  2.68092816868820E-03
 cg2d: Sum(rhs),rhsMax =  -3.40991311748635E+00  2.73286305560226E-03
 cg2d: Sum(rhs),rhsMax =  -3.48046023239447E+00  2.80943923997741E-03
 cg2d: Sum(rhs),rhsMax =  -3.32063073309129E+00  2.84054010239001E-03
 cg2d: Sum(rhs),rhsMax =  -2.96079448098765E+00  2.82589059132933E-03
 cg2d: Sum(rhs),rhsMax =  -2.32992814919092E+00  2.92147972574147E-03
 cg2d: Sum(rhs),rhsMax =  -1.72242459501592E+00  2.94384960689523E-03
 cg2d: Sum(rhs),rhsMax =  -1.21221906627261E+00  2.89157777616270E-03
 cg2d: Sum(rhs),rhsMax =  -8.69698422998182E-01  2.78046455156230E-03
 cg2d: Sum(rhs),rhsMax =  -7.64867835044722E-01  2.63730947673486E-03
 cg2d: Sum(rhs),rhsMax =  -9.31747867360246E-01  2.54529704537708E-03
 cg2d: Sum(rhs),rhsMax =  -1.31074340518209E+00  2.59464769867309E-03
 cg2d: Sum(rhs),rhsMax =  -1.82960844578426E+00  2.67470089575487E-03
 cg2d: Sum(rhs),rhsMax =  -2.36415410398183E+00  2.77096213643531E-03
 cg2d: Sum(rhs),rhsMax =  -2.80794780499265E+00  2.86583707569622E-03
 cg2d: Sum(rhs),rhsMax =  -3.09076538913270E+00  2.94225355639893E-03
 cg2d: Sum(rhs),rhsMax =  -3.17911024865751E+00  2.98708408469726E-03
 cg2d: Sum(rhs),rhsMax =  -3.06968981865809E+00  2.99369703303000E-03
 cg2d: Sum(rhs),rhsMax =  -2.74200036681698E+00  3.00868112789167E-03
 cg2d: Sum(rhs),rhsMax =  -2.22987023809972E+00  3.08320493238479E-03
 cg2d: Sum(rhs),rhsMax =  -1.72892389171643E+00  3.09216599274923E-03
 cg2d: Sum(rhs),rhsMax =  -1.30661130804050E+00  3.03707920824705E-03
 cg2d: Sum(rhs),rhsMax =  -1.02724592179603E+00  2.93201251401731E-03
 cg2d: Sum(rhs),rhsMax =  -9.49612130911110E-01  2.80059565097683E-03
 cg2d: Sum(rhs),rhsMax =  -1.10546684462896E+00  2.68802013914497E-03
 cg2d: Sum(rhs),rhsMax =  -1.41911848585190E+00  2.73183505974747E-03
 cg2d: Sum(rhs),rhsMax =  -1.85263654781580E+00  2.80075126175741E-03
 cg2d: Sum(rhs),rhsMax =  -2.30607107494828E+00  2.88121986505171E-03
 cg2d: Sum(rhs),rhsMax =  -2.69038335097767E+00  2.95745900724820E-03
 cg2d: Sum(rhs),rhsMax =  -2.94313287048195E+00  3.01465311702297E-03
 cg2d: Sum(rhs),rhsMax =  -3.03123925979689E+00  3.04190027849749E-03
 cg2d: Sum(rhs),rhsMax =  -2.94785324504677E+00  3.03433142050971E-03
 cg2d: Sum(rhs),rhsMax =  -2.61356663061983E+00  3.10365973919983E-03
 cg2d: Sum(rhs),rhsMax =  -2.18161324461413E+00  3.16115500800390E-03
 cg2d: Sum(rhs),rhsMax =  -1.75526130168491E+00  3.15966309224472E-03
 cg2d: Sum(rhs),rhsMax =  -1.39603749328942E+00  3.10114907926348E-03
 cg2d: Sum(rhs),rhsMax =  -1.16177145803850E+00  2.99876541104356E-03
 cg2d: Sum(rhs),rhsMax =  -1.10293753127214E+00  2.87411078817015E-03
 cg2d: Sum(rhs),rhsMax =  -1.24975140718550E+00  2.75286349964353E-03
 cg2d: Sum(rhs),rhsMax =  -1.53840872457955E+00  2.75098218400873E-03
 cg2d: Sum(rhs),rhsMax =  -1.91301875761357E+00  2.81271670970966E-03
 cg2d: Sum(rhs),rhsMax =  -2.30705943820677E+00  2.88449383042751E-03
 cg2d: Sum(rhs),rhsMax =  -2.64297556620168E+00  2.95188727434027E-03
 cg2d: Sum(rhs),rhsMax =  -2.86495132985999E+00  3.00154120439219E-03
 cg2d: Sum(rhs),rhsMax =  -2.94238812321845E+00  3.02377927956311E-03
 cg2d: Sum(rhs),rhsMax =  -2.84207322515712E+00  3.04217201835787E-03
 cg2d: Sum(rhs),rhsMax =  -2.51902184295144E+00  3.13830800189804E-03
 cg2d: Sum(rhs),rhsMax =  -2.14123737931614E+00  3.18959318740003E-03
 cg2d: Sum(rhs),rhsMax =  -1.76835926062101E+00  3.18714927730766E-03
 cg2d: Sum(rhs),rhsMax =  -1.45590356300485E+00  3.13272224657051E-03
 cg2d: Sum(rhs),rhsMax =  -1.25508077329359E+00  3.03818412763106E-03
 cg2d: Sum(rhs),rhsMax =  -1.20874910605647E+00  2.92305987579459E-03
 cg2d: Sum(rhs),rhsMax =  -1.34034317917675E+00  2.81059301817305E-03
 cg2d: Sum(rhs),rhsMax =  -1.62624334364354E+00  2.74190575240944E-03
(PID.TID 0000.0001) %CHECKPOINT       100 ckptB
 --> objf_test(bi,bj)   =  0.509071975945016E-01
 --> objf_tracer(bi,bj) =  0.000000000000000E+00
 --> objf_atl(bi,bj)    =  0.000000000000000E+00
  local fc =  0.509071975945016E-01
 global fc =  0.509071975945016E-01
(PID.TID 0000.0001)  MDS_READ_FIELD: opening file: xx_depth.0000000000.001.001.data
grad-res -------------------------------
 grad-res     0    5    5    1    1    1    1    1   0.509071982062E-01 0.509071988178E-01 0.509071975945E-01
 grad-res     0    5    5    5   25    1    1    1   0.611644824312E-05 0.611649907806E-05 -.831118607891E-05
(PID.TID 0000.0001)   ADM  precision_derivative_cost =    5.09071982061515E-02
(PID.TID 0000.0001)   ADM  precision_derivative_grad =    6.11644824311762E-06
 ph-grd  ierr ---------------------------
 ph-grd  ierr =  0, icomp =  5, ichknum =  5
 ph-grd -->hit<--  1 2 1 1
(PID.TID 0000.0001)  MDS_READ_FIELD: opening file: adxx_depth.0000000000.001.001.data
(PID.TID 0000.0001)  MDS_READ_FIELD: opening file: xx_depth.0000000000.001.001.data
(PID.TID 0000.0001)  MDS_READ_FIELD: opening global file: noWalls.bigRidge
(PID.TID 0000.0001) // =======================================================
(PID.TID 0000.0001) // Field Model R_low (ini_masks_etc) at iteration          1
(PID.TID 0000.0001) // CMIN =         -5.000000000000000E+03
(PID.TID 0000.0001) // CMAX =         -2.000000000000000E+03
(PID.TID 0000.0001) // CINT =          1.111111111111111E+02
(PID.TID 0000.0001) // SYMBOLS (CMIN->CMAX): -abcdefghijklmnopqrstuvwxyz+
(PID.TID 0000.0001) //                  0.0: .
(PID.TID 0000.0001) // RANGE I (Lo:Hi:Step):(  -1:   7:   1)
(PID.TID 0000.0001) // RANGE J (Lo:Hi:Step):(   7:  -1:  -1)
(PID.TID 0000.0001) // RANGE K (Lo:Hi:Step):(   1:   1:   1)
(PID.TID 0000.0001) // =======================================================
(PID.TID 0000.0001) K =   1
(PID.TID 0000.0001) //
(PID.TID 0000.0001) // |--J--|101234567
(PID.TID 0000.0001) //      7 ----+----
(PID.TID 0000.0001) //      6 ----+----
(PID.TID 0000.0001) //      5 ----+----
(PID.TID 0000.0001) //      4 ----+----
(PID.TID 0000.0001) //      3 ----+----
(PID.TID 0000.0001) //      2 ----+----
(PID.TID 0000.0001) //      1 ----+----
(PID.TID 0000.0001) //      0 ----+----
(PID.TID 0000.0001) //     -1 ----+----
(PID.TID 0000.0001) // =======================================================
(PID.TID 0000.0001) // END OF FIELD                                          =
(PID.TID 0000.0001) // =======================================================
(PID.TID 0000.0001) 
(PID.TID 0000.0001) // =======================================================
(PID.TID 0000.0001) // Field Model Ro_surf (ini_masks_etc) at iteration          1
(PID.TID 0000.0001) // CMIN =          1.000000000000000E+32
(PID.TID 0000.0001) // CMAX =         -1.000000000000000E+32
(PID.TID 0000.0001) // CINT =          0.000000000000000E+00
(PID.TID 0000.0001) // SYMBOLS (CMIN->CMAX): -abcdefghijklmnopqrstuvwxyz+
(PID.TID 0000.0001) //                  0.0: .
(PID.TID 0000.0001) // RANGE I (Lo:Hi:Step):(  -1:   7:   1)
(PID.TID 0000.0001) // RANGE J (Lo:Hi:Step):(   7:  -1:  -1)
(PID.TID 0000.0001) // RANGE K (Lo:Hi:Step):(   1:   1:   1)
(PID.TID 0000.0001) // =======================================================
(PID.TID 0000.0001) // =======================================================
(PID.TID 0000.0001) // END OF FIELD                                          =
(PID.TID 0000.0001) // =======================================================
(PID.TID 0000.0001) 
(PID.TID 0000.0001) // =======================================================
(PID.TID 0000.0001) // Field hFacC at iteration          1
(PID.TID 0000.0001) // CMIN =          1.000000000000000E+00
(PID.TID 0000.0001) // CMAX =          1.000000000000000E+00
(PID.TID 0000.0001) // CINT =          0.000000000000000E+00
(PID.TID 0000.0001) // SYMBOLS (CMIN->CMAX): -abcdefghijklmnopqrstuvwxyz+
(PID.TID 0000.0001) //                  0.0: .
(PID.TID 0000.0001) // RANGE I (Lo:Hi:Step):(  -1:   7:   1)
(PID.TID 0000.0001) // RANGE J (Lo:Hi:Step):(   7:  -1:  -1)
(PID.TID 0000.0001) // RANGE K (Lo:Hi:Step):(   1:   1:   1)
(PID.TID 0000.0001) // =======================================================
(PID.TID 0000.0001) // =======================================================
(PID.TID 0000.0001) // END OF FIELD                                          =
(PID.TID 0000.0001) // =======================================================
(PID.TID 0000.0001) 
(PID.TID 0000.0001) // =======================================================
(PID.TID 0000.0001) // Field hFacW at iteration          1
(PID.TID 0000.0001) // CMIN =          1.000000000000000E+00
(PID.TID 0000.0001) // CMAX =          1.000000000000000E+00
(PID.TID 0000.0001) // CINT =          0.000000000000000E+00
(PID.TID 0000.0001) // SYMBOLS (CMIN->CMAX): -abcdefghijklmnopqrstuvwxyz+
(PID.TID 0000.0001) //                  0.0: .
(PID.TID 0000.0001) // RANGE I (Lo:Hi:Step):(  -1:   7:   1)
(PID.TID 0000.0001) // RANGE J (Lo:Hi:Step):(   7:  -1:  -1)
(PID.TID 0000.0001) // RANGE K (Lo:Hi:Step):(   1:   1:   1)
(PID.TID 0000.0001) // =======================================================
(PID.TID 0000.0001) // =======================================================
(PID.TID 0000.0001) // END OF FIELD                                          =
(PID.TID 0000.0001) // =======================================================
(PID.TID 0000.0001) 
(PID.TID 0000.0001) // =======================================================
(PID.TID 0000.0001) // Field hFacS at iteration          1
(PID.TID 0000.0001) // CMIN =          1.000000000000000E+00
(PID.TID 0000.0001) // CMAX =          1.000000000000000E+00
(PID.TID 0000.0001) // CINT =          0.000000000000000E+00
(PID.TID 0000.0001) // SYMBOLS (CMIN->CMAX): -abcdefghijklmnopqrstuvwxyz+
(PID.TID 0000.0001) //                  0.0: .
(PID.TID 0000.0001) // RANGE I (Lo:Hi:Step):(  -1:   7:   1)
(PID.TID 0000.0001) // RANGE J (Lo:Hi:Step):(   7:  -1:  -1)
(PID.TID 0000.0001) // RANGE K (Lo:Hi:Step):(   1:   1:   1)
(PID.TID 0000.0001) // =======================================================
(PID.TID 0000.0001) // =======================================================
(PID.TID 0000.0001) // END OF FIELD                                          =
(PID.TID 0000.0001) // =======================================================
(PID.TID 0000.0001) 
(PID.TID 0000.0001) %MON surfExpanfCori_max           =  -1.0735540000000E-04
(PID.TID 0000.0001) %MON surfExpanfCori_min           =  -1.1783060000000E-04
(PID.TID 0000.0001) %MON surfExpanfCori_mean          =  -1.1259300000000E-04
(PID.TID 0000.0001) %MON surfExpanfCori_sd            =   3.7035424771427E-06
(PID.TID 0000.0001) %MON surfExpanfCoriG_max          =  -1.0866480000000E-04
(PID.TID 0000.0001) %MON surfExpanfCoriG_min          =  -1.1914000000000E-04
(PID.TID 0000.0001) %MON surfExpanfCoriG_mean         =  -1.1390240000000E-04
(PID.TID 0000.0001) %MON surfExpanfCoriG_sd           =   3.7035424771427E-06
(PID.TID 0000.0001) %MON surfExpanfCoriCos_max        =   0.0000000000000E+00
(PID.TID 0000.0001) %MON surfExpanfCoriCos_min        =   0.0000000000000E+00
(PID.TID 0000.0001) %MON surfExpanfCoriCos_mean       =   0.0000000000000E+00
(PID.TID 0000.0001) %MON surfExpanfCoriCos_sd         =   0.0000000000000E+00
(PID.TID 0000.0001) INI_CG2D: CG2D normalisation factor =  1.9999999999999996E-04
(PID.TID 0000.0001) 
                     ctrl_depth_ini: ctrl update R_low,
                                     adding the control vector.
(PID.TID 0000.0001)  MDS_READ_FIELD: opening file: xx_depth.0000000000.001.001.data
(PID.TID 0000.0001) // =======================================================
(PID.TID 0000.0001) // Field Model Ro_surf (update_masks_etc) at iteration          1
(PID.TID 0000.0001) // CMIN =          1.000000000000000E+32
(PID.TID 0000.0001) // CMAX =         -1.000000000000000E+32
(PID.TID 0000.0001) // CINT =          0.000000000000000E+00
(PID.TID 0000.0001) // SYMBOLS (CMIN->CMAX): -abcdefghijklmnopqrstuvwxyz+
(PID.TID 0000.0001) //                  0.0: .
(PID.TID 0000.0001) // RANGE I (Lo:Hi:Step):(  -1:   7:   1)
(PID.TID 0000.0001) // RANGE J (Lo:Hi:Step):(   7:  -1:  -1)
(PID.TID 0000.0001) // RANGE K (Lo:Hi:Step):(   1:   1:   1)
(PID.TID 0000.0001) // =======================================================
(PID.TID 0000.0001) // =======================================================
(PID.TID 0000.0001) // END OF FIELD                                          =
(PID.TID 0000.0001) // =======================================================
(PID.TID 0000.0001) 
(PID.TID 0000.0001) // =======================================================
(PID.TID 0000.0001) // Field hFacC at iteration          1
(PID.TID 0000.0001) // CMIN =          1.000000000000000E+00
(PID.TID 0000.0001) // CMAX =          1.000000000000000E+00
(PID.TID 0000.0001) // CINT =          0.000000000000000E+00
(PID.TID 0000.0001) // SYMBOLS (CMIN->CMAX): -abcdefghijklmnopqrstuvwxyz+
(PID.TID 0000.0001) //                  0.0: .
(PID.TID 0000.0001) // RANGE I (Lo:Hi:Step):(  -1:   7:   1)
(PID.TID 0000.0001) // RANGE J (Lo:Hi:Step):(   7:  -1:  -1)
(PID.TID 0000.0001) // RANGE K (Lo:Hi:Step):(   1:   1:   1)
(PID.TID 0000.0001) // =======================================================
(PID.TID 0000.0001) // =======================================================
(PID.TID 0000.0001) // END OF FIELD                                          =
(PID.TID 0000.0001) // =======================================================
(PID.TID 0000.0001) 
(PID.TID 0000.0001) // =======================================================
(PID.TID 0000.0001) // Field hFacW at iteration          1
(PID.TID 0000.0001) // CMIN =          1.000000000000000E+00
(PID.TID 0000.0001) // CMAX =          1.000000000000000E+00
(PID.TID 0000.0001) // CINT =          0.000000000000000E+00
(PID.TID 0000.0001) // SYMBOLS (CMIN->CMAX): -abcdefghijklmnopqrstuvwxyz+
(PID.TID 0000.0001) //                  0.0: .
(PID.TID 0000.0001) // RANGE I (Lo:Hi:Step):(  -1:   7:   1)
(PID.TID 0000.0001) // RANGE J (Lo:Hi:Step):(   7:  -1:  -1)
(PID.TID 0000.0001) // RANGE K (Lo:Hi:Step):(   1:   1:   1)
(PID.TID 0000.0001) // =======================================================
(PID.TID 0000.0001) // =======================================================
(PID.TID 0000.0001) // END OF FIELD                                          =
(PID.TID 0000.0001) // =======================================================
(PID.TID 0000.0001) 
(PID.TID 0000.0001) // =======================================================
(PID.TID 0000.0001) // Field hFacS at iteration          1
(PID.TID 0000.0001) // CMIN =          1.000000000000000E+00
(PID.TID 0000.0001) // CMAX =          1.000000000000000E+00
(PID.TID 0000.0001) // CINT =          0.000000000000000E+00
(PID.TID 0000.0001) // SYMBOLS (CMIN->CMAX): -abcdefghijklmnopqrstuvwxyz+
(PID.TID 0000.0001) //                  0.0: .
(PID.TID 0000.0001) // RANGE I (Lo:Hi:Step):(  -1:   7:   1)
(PID.TID 0000.0001) // RANGE J (Lo:Hi:Step):(   7:  -1:  -1)
(PID.TID 0000.0001) // RANGE K (Lo:Hi:Step):(   1:   1:   1)
(PID.TID 0000.0001) // =======================================================
(PID.TID 0000.0001) // =======================================================
(PID.TID 0000.0001) // END OF FIELD                                          =
(PID.TID 0000.0001) // =======================================================
(PID.TID 0000.0001) 
(PID.TID 0000.0001) // =======================================================
(PID.TID 0000.0001) // Field Initial Temperature at iteration          1
(PID.TID 0000.0001) // CMIN =          4.000000000000000E+00
(PID.TID 0000.0001) // CMAX =          4.000000000000000E+00
(PID.TID 0000.0001) // CINT =          0.000000000000000E+00
(PID.TID 0000.0001) // SYMBOLS (CMIN->CMAX): -abcdefghijklmnopqrstuvwxyz+
(PID.TID 0000.0001) //                  0.0: .
(PID.TID 0000.0001) // RANGE I (Lo:Hi:Step):(   1:   5:   1)
(PID.TID 0000.0001) // RANGE J (Lo:Hi:Step):(   5:   1:  -1)
(PID.TID 0000.0001) // RANGE K (Lo:Hi:Step):(   1:   1:   1)
(PID.TID 0000.0001) // =======================================================
(PID.TID 0000.0001) // =======================================================
(PID.TID 0000.0001) // END OF FIELD                                          =
(PID.TID 0000.0001) // =======================================================
(PID.TID 0000.0001) 
(PID.TID 0000.0001) // =======================================================
(PID.TID 0000.0001) // Field Initial Salinity at iteration          1
(PID.TID 0000.0001) // CMIN =          3.500000000000000E+01
(PID.TID 0000.0001) // CMAX =          3.500000000000000E+01
(PID.TID 0000.0001) // CINT =          0.000000000000000E+00
(PID.TID 0000.0001) // SYMBOLS (CMIN->CMAX): -abcdefghijklmnopqrstuvwxyz+
(PID.TID 0000.0001) //                  0.0: .
(PID.TID 0000.0001) // RANGE I (Lo:Hi:Step):(   1:   5:   1)
(PID.TID 0000.0001) // RANGE J (Lo:Hi:Step):(   5:   1:  -1)
(PID.TID 0000.0001) // RANGE K (Lo:Hi:Step):(   1:   1:   1)
(PID.TID 0000.0001) // =======================================================
(PID.TID 0000.0001) // =======================================================
(PID.TID 0000.0001) // END OF FIELD                                          =
(PID.TID 0000.0001) // =======================================================
(PID.TID 0000.0001) 
(PID.TID 0000.0001) Start initial hydrostatic pressure computation
(PID.TID 0000.0001) Pressure is predetermined for buoyancyRelation OCEANIC
(PID.TID 0000.0001) 
(PID.TID 0000.0001)  MDS_READ_FIELD: opening global file: windx.sin_y
(PID.TID 0000.0001) // =======================================================
(PID.TID 0000.0001) // Model current state
(PID.TID 0000.0001) // =======================================================
(PID.TID 0000.0001) 
 cg2d: Sum(rhs),rhsMax =   0.00000000000000E+00  0.00000000000000E+00
 cg2d: Sum(rhs),rhsMax =  -2.49999999999996E+01  6.03492218443698E-05
 cg2d: Sum(rhs),rhsMax =  -1.81034404639062E+01  2.18766023587219E-04
 cg2d: Sum(rhs),rhsMax =  -1.54955562831935E+01  4.32479836298038E-04
 cg2d: Sum(rhs),rhsMax =  -1.41111452324305E+01  6.49958988347408E-04
 cg2d: Sum(rhs),rhsMax =  -1.31144322331857E+01  8.30737102833508E-04
 cg2d: Sum(rhs),rhsMax =  -1.21209090330100E+01  9.52510661928948E-04
 cg2d: Sum(rhs),rhsMax =  -1.07124742367246E+01  1.02806631167922E-03
 cg2d: Sum(rhs),rhsMax =  -7.41375936629931E+00  1.27086596340225E-03
 cg2d: Sum(rhs),rhsMax =  -4.70217533398424E+00  1.51019014111651E-03
 cg2d: Sum(rhs),rhsMax =  -2.72440685865904E+00  1.65833738345311E-03
 cg2d: Sum(rhs),rhsMax =  -1.27958668995822E+00  1.70565508884863E-03
 cg2d: Sum(rhs),rhsMax =  -3.29564698840777E-01  1.66071960698681E-03
 cg2d: Sum(rhs),rhsMax =   5.21320408732803E-02  1.54812756273054E-03
 cg2d: Sum(rhs),rhsMax =  -2.86625373740311E-01  1.40338816234898E-03
 cg2d: Sum(rhs),rhsMax =  -1.30315843368665E+00  1.44268599633077E-03
 cg2d: Sum(rhs),rhsMax =  -2.68067690360441E+00  1.50836886561529E-03
 cg2d: Sum(rhs),rhsMax =  -4.07407453484693E+00  1.58424366835867E-03
 cg2d: Sum(rhs),rhsMax =  -5.18272348131068E+00  1.66593592793100E-03
 cg2d: Sum(rhs),rhsMax =  -5.80990598413503E+00  1.74846175296083E-03
 cg2d: Sum(rhs),rhsMax =  -5.87740627638652E+00  1.82725971141515E-03
 cg2d: Sum(rhs),rhsMax =  -5.41358311364630E+00  1.89900434644771E-03
 cg2d: Sum(rhs),rhsMax =  -4.53080676695733E+00  1.96213934524922E-03
 cg2d: Sum(rhs),rhsMax =  -3.22587898437612E+00  2.12611202940975E-03
 cg2d: Sum(rhs),rhsMax =  -2.04447211504318E+00  2.24837954132513E-03
 cg2d: Sum(rhs),rhsMax =  -1.10818137000422E+00  2.30404049590469E-03
 cg2d: Sum(rhs),rhsMax =  -4.90484878388529E-01  2.29576532894721E-03
 cg2d: Sum(rhs),rhsMax =  -2.61247062049203E-01  2.23814842708973E-03
 cg2d: Sum(rhs),rhsMax =  -4.50921967124017E-01  2.26266907005525E-03
 cg2d: Sum(rhs),rhsMax =  -1.00469610447431E+00  2.31946123080627E-03
 cg2d: Sum(rhs),rhsMax =  -1.78565331211374E+00  2.37599941602513E-03
 cg2d: Sum(rhs),rhsMax =  -2.62429308617934E+00  2.42805543406797E-03
 cg2d: Sum(rhs),rhsMax =  -3.35748486495300E+00  2.47123045003825E-03
 cg2d: Sum(rhs),rhsMax =  -3.85508917652814E+00  2.50195598278614E-03
 cg2d: Sum(rhs),rhsMax =  -4.03589978014058E+00  2.51830322465468E-03
 cg2d: Sum(rhs),rhsMax =  -3.87512847938143E+00  2.52047519012184E-03
 cg2d: Sum(rhs),rhsMax =  -3.40600368521203E+00  2.51092921685904E-03
 cg2d: Sum(rhs),rhsMax =  -2.61682442460588E+00  2.58874087878975E-03
 cg2d: Sum(rhs),rhsMax =  -1.83238711467983E+00  2.61669730515775E-03
 cg2d: Sum(rhs),rhsMax =  -1.17513337543843E+00  2.56005946788271E-03
 cg2d: Sum(rhs),rhsMax =  -7.11994611562571E-01  2.47855831147862E-03
 cg2d: Sum(rhs),rhsMax =  -5.26422147779300E-01  2.47042092531506E-03
 cg2d: Sum(rhs),rhsMax =  -6.78930211732214E-01  2.49676870305745E-03
 cg2d: Sum(rhs),rhsMax =  -1.12673721852833E+00  2.53652611414377E-03
 cg2d: Sum(rhs),rhsMax =  -1.75981625364403E+00  2.58504763785381E-03
 cg2d: Sum(rhs),rhsMax =  -2.43940635955425E+00  2.63568090161716E-03
 cg2d: Sum(rhs),rhsMax =  -3.03203009752715E+00  2.68092813678878E-03
 cg2d: Sum(rhs),rhsMax =  -3.40991313660020E+00  2.73286302515243E-03
 cg2d: Sum(rhs),rhsMax =  -3.48046025107146E+00  2.80943920925354E-03
 cg2d: Sum(rhs),rhsMax =  -3.32063074880539E+00  2.84054007164258E-03
 cg2d: Sum(rhs),rhsMax =  -2.96079449174366E+00  2.82589056059821E-03
 cg2d: Sum(rhs),rhsMax =  -2.32992809714488E+00  2.92147976360786E-03
 cg2d: Sum(rhs),rhsMax =  -1.72242454967569E+00  2.94384964541260E-03
 cg2d: Sum(rhs),rhsMax =  -1.21221902539274E+00  2.89157781553507E-03
 cg2d: Sum(rhs),rhsMax =  -8.69698383791051E-01  2.78046459200553E-03
 cg2d: Sum(rhs),rhsMax =  -7.64867793682960E-01  2.63730951842633E-03
 cg2d: Sum(rhs),rhsMax =  -9.31747849185270E-01  2.54529700859145E-03
 cg2d: Sum(rhs),rhsMax =  -1.31074339228907E+00  2.59464766021058E-03
 cg2d: Sum(rhs),rhsMax =  -1.82960844049870E+00  2.67470085581677E-03
 cg2d: Sum(rhs),rhsMax =  -2.36415410635643E+00  2.77096209533594E-03
 cg2d: Sum(rhs),rhsMax =  -2.80794781324493E+00  2.86583703378733E-03
 cg2d: Sum(rhs),rhsMax =  -3.09076540052565E+00  2.94225351398696E-03
 cg2d: Sum(rhs),rhsMax =  -3.17911026024745E+00  2.98708404197048E-03
 cg2d: Sum(rhs),rhsMax =  -3.06968982770152E+00  2.99369699001143E-03
 cg2d: Sum(rhs),rhsMax =  -2.74200028479169E+00  3.00868117819404E-03
 cg2d: Sum(rhs),rhsMax =  -2.22987016454067E+00  3.08320498349531E-03
 cg2d: Sum(rhs),rhsMax =  -1.72892382478941E+00  3.09216604485826E-03
 cg2d: Sum(rhs),rhsMax =  -1.30661124529759E+00  3.03707926154787E-03
 cg2d: Sum(rhs),rhsMax =  -1.02724586003221E+00  2.93201256866057E-03
 cg2d: Sum(rhs),rhsMax =  -9.49612065849871E-01  2.80059570703277E-03
 cg2d: Sum(rhs),rhsMax =  -1.10546681695419E+00  2.68802008616615E-03
 cg2d: Sum(rhs),rhsMax =  -1.41911846424917E+00  2.73183500486653E-03
 cg2d: Sum(rhs),rhsMax =  -1.85263653486982E+00  2.80075120531843E-03
 cg2d: Sum(rhs),rhsMax =  -2.30607107078001E+00  2.88121980749068E-03
 cg2d: Sum(rhs),rhsMax =  -2.69038335367284E+00  2.95745894900717E-03
 cg2d: Sum(rhs),rhsMax =  -2.94313287698180E+00  3.01465305846143E-03
 cg2d: Sum(rhs),rhsMax =  -3.03123926669452E+00  3.04190021981825E-03
 cg2d: Sum(rhs),rhsMax =  -2.94785324906955E+00  3.03433136171405E-03
 cg2d: Sum(rhs),rhsMax =  -2.61356652480697E+00  3.10365980155895E-03
 cg2d: Sum(rhs),rhsMax =  -2.18161314742072E+00  3.16115507100285E-03
 cg2d: Sum(rhs),rhsMax =  -1.75526121104971E+00  3.15966315614743E-03
 cg2d: Sum(rhs),rhsMax =  -1.39603740640658E+00  3.10114914432426E-03
 cg2d: Sum(rhs),rhsMax =  -1.16177137129581E+00  2.99876547745589E-03
 cg2d: Sum(rhs),rhsMax =  -1.10293744008064E+00  2.87411085602674E-03
 cg2d: Sum(rhs),rhsMax =  -1.24975130618672E+00  2.75286356891567E-03
 cg2d: Sum(rhs),rhsMax =  -1.53840869386349E+00  2.75098211178948E-03
 cg2d: Sum(rhs),rhsMax =  -1.91301873715407E+00  2.81271663540496E-03
 cg2d: Sum(rhs),rhsMax =  -2.30705942831633E+00  2.88449375446890E-03
 cg2d: Sum(rhs),rhsMax =  -2.64297556485238E+00  2.95188719719683E-03
 cg2d: Sum(rhs),rhsMax =  -2.86495133358544E+00  3.00154112648012E-03
 cg2d: Sum(rhs),rhsMax =  -2.94238812797921E+00  3.02377920116666E-03
 cg2d: Sum(rhs),rhsMax =  -2.84207308431217E+00  3.04217209149441E-03
 cg2d: Sum(rhs),rhsMax =  -2.51902171240361E+00  3.13830807520561E-03
 cg2d: Sum(rhs),rhsMax =  -2.14123725790108E+00  3.18959326107318E-03
 cg2d: Sum(rhs),rhsMax =  -1.76835914598191E+00  3.18714935159382E-03
 cg2d: Sum(rhs),rhsMax =  -1.45590345195603E+00  3.13272232171970E-03
 cg2d: Sum(rhs),rhsMax =  -1.25508066186761E+00  3.03818420384637E-03
 cg2d: Sum(rhs),rhsMax =  -1.20874898948791E+00  2.92305995319289E-03
 cg2d: Sum(rhs),rhsMax =  -1.34034305225758E+00  2.81059309676337E-03
 cg2d: Sum(rhs),rhsMax =  -1.62624330535289E+00  2.74190565987081E-03
(PID.TID 0000.0001) %CHECKPOINT       100 ckptA
 --> objf_test(bi,bj)   =  0.509071983418053E-01
 --> objf_tracer(bi,bj) =  0.000000000000000E+00
 --> objf_atl(bi,bj)    =  0.000000000000000E+00
  local fc =  0.509071983418053E-01
 global fc =  0.509071983418053E-01
 ph-check fcpertplus =   0.0509071983
(PID.TID 0000.0001)  MDS_READ_FIELD: opening file: xx_depth.0000000000.001.001.data
 ph-check fcpertminus =   0.0509071982
(PID.TID 0000.0001)  MDS_READ_FIELD: opening file: xx_depth.0000000000.001.001.data
(PID.TID 0000.0001)  MDS_READ_FIELD: opening global file: noWalls.bigRidge
(PID.TID 0000.0001) // =======================================================
(PID.TID 0000.0001) // Field Model R_low (ini_masks_etc) at iteration          1
(PID.TID 0000.0001) // CMIN =         -5.000000000000000E+03
(PID.TID 0000.0001) // CMAX =         -2.000000000000000E+03
(PID.TID 0000.0001) // CINT =          1.111111111111111E+02
(PID.TID 0000.0001) // SYMBOLS (CMIN->CMAX): -abcdefghijklmnopqrstuvwxyz+
(PID.TID 0000.0001) //                  0.0: .
(PID.TID 0000.0001) // RANGE I (Lo:Hi:Step):(  -1:   7:   1)
(PID.TID 0000.0001) // RANGE J (Lo:Hi:Step):(   7:  -1:  -1)
(PID.TID 0000.0001) // RANGE K (Lo:Hi:Step):(   1:   1:   1)
(PID.TID 0000.0001) // =======================================================
(PID.TID 0000.0001) K =   1
(PID.TID 0000.0001) //
(PID.TID 0000.0001) // |--J--|101234567
(PID.TID 0000.0001) //      7 ----+----
(PID.TID 0000.0001) //      6 ----+----
(PID.TID 0000.0001) //      5 ----+----
(PID.TID 0000.0001) //      4 ----+----
(PID.TID 0000.0001) //      3 ----+----
(PID.TID 0000.0001) //      2 ----+----
(PID.TID 0000.0001) //      1 ----+----
(PID.TID 0000.0001) //      0 ----+----
(PID.TID 0000.0001) //     -1 ----+----
(PID.TID 0000.0001) // =======================================================
(PID.TID 0000.0001) // END OF FIELD                                          =
(PID.TID 0000.0001) // =======================================================
(PID.TID 0000.0001) 
(PID.TID 0000.0001) // =======================================================
(PID.TID 0000.0001) // Field Model Ro_surf (ini_masks_etc) at iteration          1
(PID.TID 0000.0001) // CMIN =          1.000000000000000E+32
(PID.TID 0000.0001) // CMAX =         -1.000000000000000E+32
(PID.TID 0000.0001) // CINT =          0.000000000000000E+00
(PID.TID 0000.0001) // SYMBOLS (CMIN->CMAX): -abcdefghijklmnopqrstuvwxyz+
(PID.TID 0000.0001) //                  0.0: .
(PID.TID 0000.0001) // RANGE I (Lo:Hi:Step):(  -1:   7:   1)
(PID.TID 0000.0001) // RANGE J (Lo:Hi:Step):(   7:  -1:  -1)
(PID.TID 0000.0001) // RANGE K (Lo:Hi:Step):(   1:   1:   1)
(PID.TID 0000.0001) // =======================================================
(PID.TID 0000.0001) // =======================================================
(PID.TID 0000.0001) // END OF FIELD                                          =
(PID.TID 0000.0001) // =======================================================
(PID.TID 0000.0001) 
(PID.TID 0000.0001) // =======================================================
(PID.TID 0000.0001) // Field hFacC at iteration          1
(PID.TID 0000.0001) // CMIN =          1.000000000000000E+00
(PID.TID 0000.0001) // CMAX =          1.000000000000000E+00
(PID.TID 0000.0001) // CINT =          0.000000000000000E+00
(PID.TID 0000.0001) // SYMBOLS (CMIN->CMAX): -abcdefghijklmnopqrstuvwxyz+
(PID.TID 0000.0001) //                  0.0: .
(PID.TID 0000.0001) // RANGE I (Lo:Hi:Step):(  -1:   7:   1)
(PID.TID 0000.0001) // RANGE J (Lo:Hi:Step):(   7:  -1:  -1)
(PID.TID 0000.0001) // RANGE K (Lo:Hi:Step):(   1:   1:   1)
(PID.TID 0000.0001) // =======================================================
(PID.TID 0000.0001) // =======================================================
(PID.TID 0000.0001) // END OF FIELD                                          =
(PID.TID 0000.0001) // =======================================================
(PID.TID 0000.0001) 
(PID.TID 0000.0001) // =======================================================
(PID.TID 0000.0001) // Field hFacW at iteration          1
(PID.TID 0000.0001) // CMIN =          1.000000000000000E+00
(PID.TID 0000.0001) // CMAX =          1.000000000000000E+00
(PID.TID 0000.0001) // CINT =          0.000000000000000E+00
(PID.TID 0000.0001) // SYMBOLS (CMIN->CMAX): -abcdefghijklmnopqrstuvwxyz+
(PID.TID 0000.0001) //                  0.0: .
(PID.TID 0000.0001) // RANGE I (Lo:Hi:Step):(  -1:   7:   1)
(PID.TID 0000.0001) // RANGE J (Lo:Hi:Step):(   7:  -1:  -1)
(PID.TID 0000.0001) // RANGE K (Lo:Hi:Step):(   1:   1:   1)
(PID.TID 0000.0001) // =======================================================
(PID.TID 0000.0001) // =======================================================
(PID.TID 0000.0001) // END OF FIELD                                          =
(PID.TID 0000.0001) // =======================================================
(PID.TID 0000.0001) 
(PID.TID 0000.0001) // =======================================================
(PID.TID 0000.0001) // Field hFacS at iteration          1
(PID.TID 0000.0001) // CMIN =          1.000000000000000E+00
(PID.TID 0000.0001) // CMAX =          1.000000000000000E+00
(PID.TID 0000.0001) // CINT =          0.000000000000000E+00
(PID.TID 0000.0001) // SYMBOLS (CMIN->CMAX): -abcdefghijklmnopqrstuvwxyz+
(PID.TID 0000.0001) //                  0.0: .
(PID.TID 0000.0001) // RANGE I (Lo:Hi:Step):(  -1:   7:   1)
(PID.TID 0000.0001) // RANGE J (Lo:Hi:Step):(   7:  -1:  -1)
(PID.TID 0000.0001) // RANGE K (Lo:Hi:Step):(   1:   1:   1)
(PID.TID 0000.0001) // =======================================================
(PID.TID 0000.0001) // =======================================================
(PID.TID 0000.0001) // END OF FIELD                                          =
(PID.TID 0000.0001) // =======================================================
(PID.TID 0000.0001) 
(PID.TID 0000.0001) %MON surfExpanfCori_max           =  -1.0735540000000E-04
(PID.TID 0000.0001) %MON surfExpanfCori_min           =  -1.1783060000000E-04
(PID.TID 0000.0001) %MON surfExpanfCori_mean          =  -1.1259300000000E-04
(PID.TID 0000.0001) %MON surfExpanfCori_sd            =   3.7035424771427E-06
(PID.TID 0000.0001) %MON surfExpanfCoriG_max          =  -1.0866480000000E-04
(PID.TID 0000.0001) %MON surfExpanfCoriG_min          =  -1.1914000000000E-04
(PID.TID 0000.0001) %MON surfExpanfCoriG_mean         =  -1.1390240000000E-04
(PID.TID 0000.0001) %MON surfExpanfCoriG_sd           =   3.7035424771427E-06
(PID.TID 0000.0001) %MON surfExpanfCoriCos_max        =   0.0000000000000E+00
(PID.TID 0000.0001) %MON surfExpanfCoriCos_min        =   0.0000000000000E+00
(PID.TID 0000.0001) %MON surfExpanfCoriCos_mean       =   0.0000000000000E+00
(PID.TID 0000.0001) %MON surfExpanfCoriCos_sd         =   0.0000000000000E+00
(PID.TID 0000.0001) INI_CG2D: CG2D normalisation factor =  1.9999999999999996E-04
(PID.TID 0000.0001) 
                     ctrl_depth_ini: ctrl update R_low,
                                     adding the control vector.
(PID.TID 0000.0001)  MDS_READ_FIELD: opening file: xx_depth.0000000000.001.001.data
(PID.TID 0000.0001) // =======================================================
(PID.TID 0000.0001) // Field Model Ro_surf (update_masks_etc) at iteration          1
(PID.TID 0000.0001) // CMIN =          1.000000000000000E+32
(PID.TID 0000.0001) // CMAX =         -1.000000000000000E+32
(PID.TID 0000.0001) // CINT =          0.000000000000000E+00
(PID.TID 0000.0001) // SYMBOLS (CMIN->CMAX): -abcdefghijklmnopqrstuvwxyz+
(PID.TID 0000.0001) //                  0.0: .
(PID.TID 0000.0001) // RANGE I (Lo:Hi:Step):(  -1:   7:   1)
(PID.TID 0000.0001) // RANGE J (Lo:Hi:Step):(   7:  -1:  -1)
(PID.TID 0000.0001) // RANGE K (Lo:Hi:Step):(   1:   1:   1)
(PID.TID 0000.0001) // =======================================================
(PID.TID 0000.0001) // =======================================================
(PID.TID 0000.0001) // END OF FIELD                                          =
(PID.TID 0000.0001) // =======================================================
(PID.TID 0000.0001) 
(PID.TID 0000.0001) // =======================================================
(PID.TID 0000.0001) // Field hFacC at iteration          1
(PID.TID 0000.0001) // CMIN =          1.000000000000000E+00
(PID.TID 0000.0001) // CMAX =          1.000000000000000E+00
(PID.TID 0000.0001) // CINT =          0.000000000000000E+00
(PID.TID 0000.0001) // SYMBOLS (CMIN->CMAX): -abcdefghijklmnopqrstuvwxyz+
(PID.TID 0000.0001) //                  0.0: .
(PID.TID 0000.0001) // RANGE I (Lo:Hi:Step):(  -1:   7:   1)
(PID.TID 0000.0001) // RANGE J (Lo:Hi:Step):(   7:  -1:  -1)
(PID.TID 0000.0001) // RANGE K (Lo:Hi:Step):(   1:   1:   1)
(PID.TID 0000.0001) // =======================================================
(PID.TID 0000.0001) // =======================================================
(PID.TID 0000.0001) // END OF FIELD                                          =
(PID.TID 0000.0001) // =======================================================
(PID.TID 0000.0001) 
(PID.TID 0000.0001) // =======================================================
(PID.TID 0000.0001) // Field hFacW at iteration          1
(PID.TID 0000.0001) // CMIN =          1.000000000000000E+00
(PID.TID 0000.0001) // CMAX =          1.000000000000000E+00
(PID.TID 0000.0001) // CINT =          0.000000000000000E+00
(PID.TID 0000.0001) // SYMBOLS (CMIN->CMAX): -abcdefghijklmnopqrstuvwxyz+
(PID.TID 0000.0001) //                  0.0: .
(PID.TID 0000.0001) // RANGE I (Lo:Hi:Step):(  -1:   7:   1)
(PID.TID 0000.0001) // RANGE J (Lo:Hi:Step):(   7:  -1:  -1)
(PID.TID 0000.0001) // RANGE K (Lo:Hi:Step):(   1:   1:   1)
(PID.TID 0000.0001) // =======================================================
(PID.TID 0000.0001) // =======================================================
(PID.TID 0000.0001) // END OF FIELD                                          =
(PID.TID 0000.0001) // =======================================================
(PID.TID 0000.0001) 
(PID.TID 0000.0001) // =======================================================
(PID.TID 0000.0001) // Field hFacS at iteration          1
(PID.TID 0000.0001) // CMIN =          1.000000000000000E+00
(PID.TID 0000.0001) // CMAX =          1.000000000000000E+00
(PID.TID 0000.0001) // CINT =          0.000000000000000E+00
(PID.TID 0000.0001) // SYMBOLS (CMIN->CMAX): -abcdefghijklmnopqrstuvwxyz+
(PID.TID 0000.0001) //                  0.0: .
(PID.TID 0000.0001) // RANGE I (Lo:Hi:Step):(  -1:   7:   1)
(PID.TID 0000.0001) // RANGE J (Lo:Hi:Step):(   7:  -1:  -1)
(PID.TID 0000.0001) // RANGE K (Lo:Hi:Step):(   1:   1:   1)
(PID.TID 0000.0001) // =======================================================
(PID.TID 0000.0001) // =======================================================
(PID.TID 0000.0001) // END OF FIELD                                          =
(PID.TID 0000.0001) // =======================================================
(PID.TID 0000.0001) 
(PID.TID 0000.0001) // =======================================================
(PID.TID 0000.0001) // Field Initial Temperature at iteration          1
(PID.TID 0000.0001) // CMIN =          4.000000000000000E+00
(PID.TID 0000.0001) // CMAX =          4.000000000000000E+00
(PID.TID 0000.0001) // CINT =          0.000000000000000E+00
(PID.TID 0000.0001) // SYMBOLS (CMIN->CMAX): -abcdefghijklmnopqrstuvwxyz+
(PID.TID 0000.0001) //                  0.0: .
(PID.TID 0000.0001) // RANGE I (Lo:Hi:Step):(   1:   5:   1)
(PID.TID 0000.0001) // RANGE J (Lo:Hi:Step):(   5:   1:  -1)
(PID.TID 0000.0001) // RANGE K (Lo:Hi:Step):(   1:   1:   1)
(PID.TID 0000.0001) // =======================================================
(PID.TID 0000.0001) // =======================================================
(PID.TID 0000.0001) // END OF FIELD                                          =
(PID.TID 0000.0001) // =======================================================
(PID.TID 0000.0001) 
(PID.TID 0000.0001) // =======================================================
(PID.TID 0000.0001) // Field Initial Salinity at iteration          1
(PID.TID 0000.0001) // CMIN =          3.500000000000000E+01
(PID.TID 0000.0001) // CMAX =          3.500000000000000E+01
(PID.TID 0000.0001) // CINT =          0.000000000000000E+00
(PID.TID 0000.0001) // SYMBOLS (CMIN->CMAX): -abcdefghijklmnopqrstuvwxyz+
(PID.TID 0000.0001) //                  0.0: .
(PID.TID 0000.0001) // RANGE I (Lo:Hi:Step):(   1:   5:   1)
(PID.TID 0000.0001) // RANGE J (Lo:Hi:Step):(   5:   1:  -1)
(PID.TID 0000.0001) // RANGE K (Lo:Hi:Step):(   1:   1:   1)
(PID.TID 0000.0001) // =======================================================
(PID.TID 0000.0001) // =======================================================
(PID.TID 0000.0001) // END OF FIELD                                          =
(PID.TID 0000.0001) // =======================================================
(PID.TID 0000.0001) 
(PID.TID 0000.0001) Start initial hydrostatic pressure computation
(PID.TID 0000.0001) Pressure is predetermined for buoyancyRelation OCEANIC
(PID.TID 0000.0001) 
(PID.TID 0000.0001)  MDS_READ_FIELD: opening global file: windx.sin_y
(PID.TID 0000.0001) // =======================================================
(PID.TID 0000.0001) // Model current state
(PID.TID 0000.0001) // =======================================================
(PID.TID 0000.0001) 
 cg2d: Sum(rhs),rhsMax =   0.00000000000000E+00  0.00000000000000E+00
 cg2d: Sum(rhs),rhsMax =  -2.49999999999996E+01  6.03492218443698E-05
 cg2d: Sum(rhs),rhsMax =  -1.81034404639062E+01  2.18766023587219E-04
 cg2d: Sum(rhs),rhsMax =  -1.54955562832361E+01  4.32479836296850E-04
 cg2d: Sum(rhs),rhsMax =  -1.41111452334686E+01  6.49958988299426E-04
 cg2d: Sum(rhs),rhsMax =  -1.31144322333371E+01  8.30737102823248E-04
 cg2d: Sum(rhs),rhsMax =  -1.21209090320673E+01  9.52510662001652E-04
 cg2d: Sum(rhs),rhsMax =  -1.07124742376892E+01  1.02806631158492E-03
 cg2d: Sum(rhs),rhsMax =  -7.41375936701484E+00  1.27086596327918E-03
 cg2d: Sum(rhs),rhsMax =  -4.70217533512385E+00  1.51019014075967E-03
 cg2d: Sum(rhs),rhsMax =  -2.72440685989933E+00  1.65833738274710E-03
 cg2d: Sum(rhs),rhsMax =  -1.27958669098786E+00  1.70565508769405E-03
 cg2d: Sum(rhs),rhsMax =  -3.29564699464237E-01  1.66071960532098E-03
 cg2d: Sum(rhs),rhsMax =   5.21320404576331E-02  1.54812756054209E-03
 cg2d: Sum(rhs),rhsMax =  -2.86625375060675E-01  1.40338815968213E-03
 cg2d: Sum(rhs),rhsMax =  -1.30315843371697E+00  1.44268599742658E-03
 cg2d: Sum(rhs),rhsMax =  -2.68067690238401E+00  1.50836886700982E-03
 cg2d: Sum(rhs),rhsMax =  -4.07407453218386E+00  1.58424366997271E-03
 cg2d: Sum(rhs),rhsMax =  -5.18272347766788E+00  1.66593592965063E-03
 cg2d: Sum(rhs),rhsMax =  -5.80990598042636E+00  1.74846175465472E-03
 cg2d: Sum(rhs),rhsMax =  -5.87740627356472E+00  1.82725971295599E-03
 cg2d: Sum(rhs),rhsMax =  -5.41358311233937E+00  1.89900434773385E-03
 cg2d: Sum(rhs),rhsMax =  -4.53080676731363E+00  1.96213934622261E-03
 cg2d: Sum(rhs),rhsMax =  -3.22587899379357E+00  2.12611202499943E-03
 cg2d: Sum(rhs),rhsMax =  -2.04447212262151E+00  2.24837953619261E-03
 cg2d: Sum(rhs),rhsMax =  -1.10818137611422E+00  2.30404048984487E-03
 cg2d: Sum(rhs),rhsMax =  -4.90484883504081E-01  2.29576532180672E-03
 cg2d: Sum(rhs),rhsMax =  -2.61247067117688E-01  2.23814841878944E-03
 cg2d: Sum(rhs),rhsMax =  -4.50921971519057E-01  2.26266907051496E-03
 cg2d: Sum(rhs),rhsMax =  -1.00469610896634E+00  2.31946123154145E-03
 cg2d: Sum(rhs),rhsMax =  -1.78565331646135E+00  2.37599941706260E-03
 cg2d: Sum(rhs),rhsMax =  -2.62429309020378E+00  2.42805543538187E-03
 cg2d: Sum(rhs),rhsMax =  -3.35748486866374E+00  2.47123045155667E-03
 cg2d: Sum(rhs),rhsMax =  -3.85508918016039E+00  2.50195598440618E-03
 cg2d: Sum(rhs),rhsMax =  -4.03589978408535E+00  2.51830322626265E-03
 cg2d: Sum(rhs),rhsMax =  -3.87512848404946E+00  2.52047519161477E-03
 cg2d: Sum(rhs),rhsMax =  -3.40600369089996E+00  2.51092921816344E-03
 cg2d: Sum(rhs),rhsMax =  -2.61682444166395E+00  2.58874086953879E-03
 cg2d: Sum(rhs),rhsMax =  -1.83238712933151E+00  2.61669729581979E-03
 cg2d: Sum(rhs),rhsMax =  -1.17513338875963E+00  2.56005945805101E-03
 cg2d: Sum(rhs),rhsMax =  -7.11994626428171E-01  2.47855829329797E-03
 cg2d: Sum(rhs),rhsMax =  -5.26422157859531E-01  2.47042092600276E-03
 cg2d: Sum(rhs),rhsMax =  -6.78930222176636E-01  2.49676870386133E-03
 cg2d: Sum(rhs),rhsMax =  -1.12673722911431E+00  2.53652611512998E-03
 cg2d: Sum(rhs),rhsMax =  -1.75981626415080E+00  2.58504763905636E-03
 cg2d: Sum(rhs),rhsMax =  -2.43940636983906E+00  2.63568090303525E-03
 cg2d: Sum(rhs),rhsMax =  -3.03203010759212E+00  2.68092813839175E-03
 cg2d: Sum(rhs),rhsMax =  -3.40991310047771E+00  2.73286306381715E-03
 cg2d: Sum(rhs),rhsMax =  -3.48046021364478E+00  2.80943924935791E-03
 cg2d: Sum(rhs),rhsMax =  -3.32063071295396E+00  2.84054011308848E-03
 cg2d: Sum(rhs),rhsMax =  -2.96079446022339E+00  2.82589060324896E-03
 cg2d: Sum(rhs),rhsMax =  -2.32992812495804E+00  2.92147974534095E-03
 cg2d: Sum(rhs),rhsMax =  -1.72242457424162E+00  2.94384962679365E-03
 cg2d: Sum(rhs),rhsMax =  -1.21221904790221E+00  2.89157779636913E-03
 cg2d: Sum(rhs),rhsMax =  -8.69698405653850E-01  2.78046457211697E-03
 cg2d: Sum(rhs),rhsMax =  -7.64867816809409E-01  2.63730949769655E-03
 cg2d: Sum(rhs),rhsMax =  -9.31747849654874E-01  2.54529705750038E-03
 cg2d: Sum(rhs),rhsMax =  -1.31074338554217E+00  2.59464771046699E-03
 cg2d: Sum(rhs),rhsMax =  -1.82960842380205E+00  2.67470090751936E-03
 cg2d: Sum(rhs),rhsMax =  -2.36415407955960E+00  2.77096214852065E-03
 cg2d: Sum(rhs),rhsMax =  -2.80794777822468E+00  2.86583708841489E-03
 cg2d: Sum(rhs),rhsMax =  -3.09076536029719E+00  2.94225356994829E-03
 cg2d: Sum(rhs),rhsMax =  -3.17911021825980E+00  2.98708409910966E-03
 cg2d: Sum(rhs),rhsMax =  -3.06968978743202E+00  2.99369704816115E-03
 cg2d: Sum(rhs),rhsMax =  -2.74200032797593E+00  3.00868115260650E-03
 cg2d: Sum(rhs),rhsMax =  -2.22987020347886E+00  3.08320495732381E-03
 cg2d: Sum(rhs),rhsMax =  -1.72892386044550E+00  3.09216601794520E-03
 cg2d: Sum(rhs),rhsMax =  -1.30661127892558E+00  3.03707923376531E-03
 cg2d: Sum(rhs),rhsMax =  -1.02724589327957E+00  2.93201253994356E-03
 cg2d: Sum(rhs),rhsMax =  -9.49612100945069E-01  2.80059567740010E-03
 cg2d: Sum(rhs),rhsMax =  -1.10546681682011E+00  2.68802015189276E-03
 cg2d: Sum(rhs),rhsMax =  -1.41911845638494E+00  2.73183507244292E-03
 cg2d: Sum(rhs),rhsMax =  -1.85263651617311E+00  2.80075127487371E-03
 cg2d: Sum(rhs),rhsMax =  -2.30607104077472E+00  2.88121987904319E-03
 cg2d: Sum(rhs),rhsMax =  -2.69038331411246E+00  2.95745902245876E-03
 cg2d: Sum(rhs),rhsMax =  -2.94313283104975E+00  3.01465313361442E-03
 cg2d: Sum(rhs),rhsMax =  -3.03123921827736E+00  3.04190029641239E-03
 cg2d: Sum(rhs),rhsMax =  -2.94785320225556E+00  3.03433143947667E-03
 cg2d: Sum(rhs),rhsMax =  -2.61356658045467E+00  3.10365976975942E-03
 cg2d: Sum(rhs),rhsMax =  -2.18161319880550E+00  3.16115503878598E-03
 cg2d: Sum(rhs),rhsMax =  -1.75526125930678E+00  3.15966312329732E-03
 cg2d: Sum(rhs),rhsMax =  -1.39603745301723E+00  3.10114911067113E-03
 cg2d: Sum(rhs),rhsMax =  -1.16177141814554E+00  2.99876544291228E-03
 cg2d: Sum(rhs),rhsMax =  -1.10293748956356E+00  2.87411082060827E-03
 cg2d: Sum(rhs),rhsMax =  -1.24975136108367E+00  2.75286353274197E-03
 cg2d: Sum(rhs),rhsMax =  -1.53840868454808E+00  2.75098219905203E-03
 cg2d: Sum(rhs),rhsMax =  -1.91301871587568E+00  2.81271672485031E-03
 cg2d: Sum(rhs),rhsMax =  -2.30705939442714E+00  2.88449384619114E-03
 cg2d: Sum(rhs),rhsMax =  -2.64297552016095E+00  2.95188729116645E-03
 cg2d: Sum(rhs),rhsMax =  -2.86495128154147E+00  3.00154122255638E-03
 cg2d: Sum(rhs),rhsMax =  -2.94238807290539E+00  3.02377929913097E-03
 cg2d: Sum(rhs),rhsMax =  -2.84207315875787E+00  3.04217205561352E-03
 cg2d: Sum(rhs),rhsMax =  -2.51902178167386E+00  3.13830803948524E-03
 cg2d: Sum(rhs),rhsMax =  -2.14123732280484E+00  3.18959322531572E-03
 cg2d: Sum(rhs),rhsMax =  -1.76835920787706E+00  3.18714931559115E-03
 cg2d: Sum(rhs),rhsMax =  -1.45590351256169E+00  3.13272228529603E-03
 cg2d: Sum(rhs),rhsMax =  -1.25508072324225E+00  3.03818416689371E-03
 cg2d: Sum(rhs),rhsMax =  -1.20874905402875E+00  2.92305991569233E-03
 cg2d: Sum(rhs),rhsMax =  -1.34034312249460E+00  2.81059305878846E-03
 cg2d: Sum(rhs),rhsMax =  -1.62624329356234E+00  2.74190577174426E-03
(PID.TID 0000.0001) %CHECKPOINT       100 ckptB
 --> objf_test(bi,bj)   =  0.509071980704979E-01
 --> objf_tracer(bi,bj) =  0.000000000000000E+00
 --> objf_atl(bi,bj)    =  0.000000000000000E+00
  local fc =  0.509071980704979E-01
 global fc =  0.509071980704979E-01
(PID.TID 0000.0001)  MDS_READ_FIELD: opening file: xx_depth.0000000000.001.001.data
grad-res -------------------------------
 grad-res     0    6    1    2    1    1    1    1   0.509071982062E-01 0.509071983418E-01 0.509071980705E-01
 grad-res     0    6    6    6   25    1    1    1   0.135640535589E-05 0.135653665384E-05 -.967984627678E-04
(PID.TID 0000.0001)   ADM  precision_derivative_cost =    5.09071982061515E-02
(PID.TID 0000.0001)   ADM  precision_derivative_grad =    1.35640535588705E-06
 ph-grd  ierr ---------------------------
 ph-grd  ierr =  0, icomp =  6, ichknum =  6
 ph-grd -->hit<--  2 2 1 1
(PID.TID 0000.0001)  MDS_READ_FIELD: opening file: adxx_depth.0000000000.001.001.data
(PID.TID 0000.0001)  MDS_READ_FIELD: opening file: xx_depth.0000000000.001.001.data
(PID.TID 0000.0001)  MDS_READ_FIELD: opening global file: noWalls.bigRidge
(PID.TID 0000.0001) // =======================================================
(PID.TID 0000.0001) // Field Model R_low (ini_masks_etc) at iteration          1
(PID.TID 0000.0001) // CMIN =         -5.000000000000000E+03
(PID.TID 0000.0001) // CMAX =         -2.000000000000000E+03
(PID.TID 0000.0001) // CINT =          1.111111111111111E+02
(PID.TID 0000.0001) // SYMBOLS (CMIN->CMAX): -abcdefghijklmnopqrstuvwxyz+
(PID.TID 0000.0001) //                  0.0: .
(PID.TID 0000.0001) // RANGE I (Lo:Hi:Step):(  -1:   7:   1)
(PID.TID 0000.0001) // RANGE J (Lo:Hi:Step):(   7:  -1:  -1)
(PID.TID 0000.0001) // RANGE K (Lo:Hi:Step):(   1:   1:   1)
(PID.TID 0000.0001) // =======================================================
(PID.TID 0000.0001) K =   1
(PID.TID 0000.0001) //
(PID.TID 0000.0001) // |--J--|101234567
(PID.TID 0000.0001) //      7 ----+----
(PID.TID 0000.0001) //      6 ----+----
(PID.TID 0000.0001) //      5 ----+----
(PID.TID 0000.0001) //      4 ----+----
(PID.TID 0000.0001) //      3 ----+----
(PID.TID 0000.0001) //      2 ----+----
(PID.TID 0000.0001) //      1 ----+----
(PID.TID 0000.0001) //      0 ----+----
(PID.TID 0000.0001) //     -1 ----+----
(PID.TID 0000.0001) // =======================================================
(PID.TID 0000.0001) // END OF FIELD                                          =
(PID.TID 0000.0001) // =======================================================
(PID.TID 0000.0001) 
(PID.TID 0000.0001) // =======================================================
(PID.TID 0000.0001) // Field Model Ro_surf (ini_masks_etc) at iteration          1
(PID.TID 0000.0001) // CMIN =          1.000000000000000E+32
(PID.TID 0000.0001) // CMAX =         -1.000000000000000E+32
(PID.TID 0000.0001) // CINT =          0.000000000000000E+00
(PID.TID 0000.0001) // SYMBOLS (CMIN->CMAX): -abcdefghijklmnopqrstuvwxyz+
(PID.TID 0000.0001) //                  0.0: .
(PID.TID 0000.0001) // RANGE I (Lo:Hi:Step):(  -1:   7:   1)
(PID.TID 0000.0001) // RANGE J (Lo:Hi:Step):(   7:  -1:  -1)
(PID.TID 0000.0001) // RANGE K (Lo:Hi:Step):(   1:   1:   1)
(PID.TID 0000.0001) // =======================================================
(PID.TID 0000.0001) // =======================================================
(PID.TID 0000.0001) // END OF FIELD                                          =
(PID.TID 0000.0001) // =======================================================
(PID.TID 0000.0001) 
(PID.TID 0000.0001) // =======================================================
(PID.TID 0000.0001) // Field hFacC at iteration          1
(PID.TID 0000.0001) // CMIN =          1.000000000000000E+00
(PID.TID 0000.0001) // CMAX =          1.000000000000000E+00
(PID.TID 0000.0001) // CINT =          0.000000000000000E+00
(PID.TID 0000.0001) // SYMBOLS (CMIN->CMAX): -abcdefghijklmnopqrstuvwxyz+
(PID.TID 0000.0001) //                  0.0: .
(PID.TID 0000.0001) // RANGE I (Lo:Hi:Step):(  -1:   7:   1)
(PID.TID 0000.0001) // RANGE J (Lo:Hi:Step):(   7:  -1:  -1)
(PID.TID 0000.0001) // RANGE K (Lo:Hi:Step):(   1:   1:   1)
(PID.TID 0000.0001) // =======================================================
(PID.TID 0000.0001) // =======================================================
(PID.TID 0000.0001) // END OF FIELD                                          =
(PID.TID 0000.0001) // =======================================================
(PID.TID 0000.0001) 
(PID.TID 0000.0001) // =======================================================
(PID.TID 0000.0001) // Field hFacW at iteration          1
(PID.TID 0000.0001) // CMIN =          1.000000000000000E+00
(PID.TID 0000.0001) // CMAX =          1.000000000000000E+00
(PID.TID 0000.0001) // CINT =          0.000000000000000E+00
(PID.TID 0000.0001) // SYMBOLS (CMIN->CMAX): -abcdefghijklmnopqrstuvwxyz+
(PID.TID 0000.0001) //                  0.0: .
(PID.TID 0000.0001) // RANGE I (Lo:Hi:Step):(  -1:   7:   1)
(PID.TID 0000.0001) // RANGE J (Lo:Hi:Step):(   7:  -1:  -1)
(PID.TID 0000.0001) // RANGE K (Lo:Hi:Step):(   1:   1:   1)
(PID.TID 0000.0001) // =======================================================
(PID.TID 0000.0001) // =======================================================
(PID.TID 0000.0001) // END OF FIELD                                          =
(PID.TID 0000.0001) // =======================================================
(PID.TID 0000.0001) 
(PID.TID 0000.0001) // =======================================================
(PID.TID 0000.0001) // Field hFacS at iteration          1
(PID.TID 0000.0001) // CMIN =          1.000000000000000E+00
(PID.TID 0000.0001) // CMAX =          1.000000000000000E+00
(PID.TID 0000.0001) // CINT =          0.000000000000000E+00
(PID.TID 0000.0001) // SYMBOLS (CMIN->CMAX): -abcdefghijklmnopqrstuvwxyz+
(PID.TID 0000.0001) //                  0.0: .
(PID.TID 0000.0001) // RANGE I (Lo:Hi:Step):(  -1:   7:   1)
(PID.TID 0000.0001) // RANGE J (Lo:Hi:Step):(   7:  -1:  -1)
(PID.TID 0000.0001) // RANGE K (Lo:Hi:Step):(   1:   1:   1)
(PID.TID 0000.0001) // =======================================================
(PID.TID 0000.0001) // =======================================================
(PID.TID 0000.0001) // END OF FIELD                                          =
(PID.TID 0000.0001) // =======================================================
(PID.TID 0000.0001) 
(PID.TID 0000.0001) %MON surfExpanfCori_max           =  -1.0735540000000E-04
(PID.TID 0000.0001) %MON surfExpanfCori_min           =  -1.1783060000000E-04
(PID.TID 0000.0001) %MON surfExpanfCori_mean          =  -1.1259300000000E-04
(PID.TID 0000.0001) %MON surfExpanfCori_sd            =   3.7035424771427E-06
(PID.TID 0000.0001) %MON surfExpanfCoriG_max          =  -1.0866480000000E-04
(PID.TID 0000.0001) %MON surfExpanfCoriG_min          =  -1.1914000000000E-04
(PID.TID 0000.0001) %MON surfExpanfCoriG_mean         =  -1.1390240000000E-04
(PID.TID 0000.0001) %MON surfExpanfCoriG_sd           =   3.7035424771427E-06
(PID.TID 0000.0001) %MON surfExpanfCoriCos_max        =   0.0000000000000E+00
(PID.TID 0000.0001) %MON surfExpanfCoriCos_min        =   0.0000000000000E+00
(PID.TID 0000.0001) %MON surfExpanfCoriCos_mean       =   0.0000000000000E+00
(PID.TID 0000.0001) %MON surfExpanfCoriCos_sd         =   0.0000000000000E+00
(PID.TID 0000.0001) INI_CG2D: CG2D normalisation factor =  1.9999999999999996E-04
(PID.TID 0000.0001) 
                     ctrl_depth_ini: ctrl update R_low,
                                     adding the control vector.
(PID.TID 0000.0001)  MDS_READ_FIELD: opening file: xx_depth.0000000000.001.001.data
(PID.TID 0000.0001) // =======================================================
(PID.TID 0000.0001) // Field Model Ro_surf (update_masks_etc) at iteration          1
(PID.TID 0000.0001) // CMIN =          1.000000000000000E+32
(PID.TID 0000.0001) // CMAX =         -1.000000000000000E+32
(PID.TID 0000.0001) // CINT =          0.000000000000000E+00
(PID.TID 0000.0001) // SYMBOLS (CMIN->CMAX): -abcdefghijklmnopqrstuvwxyz+
(PID.TID 0000.0001) //                  0.0: .
(PID.TID 0000.0001) // RANGE I (Lo:Hi:Step):(  -1:   7:   1)
(PID.TID 0000.0001) // RANGE J (Lo:Hi:Step):(   7:  -1:  -1)
(PID.TID 0000.0001) // RANGE K (Lo:Hi:Step):(   1:   1:   1)
(PID.TID 0000.0001) // =======================================================
(PID.TID 0000.0001) // =======================================================
(PID.TID 0000.0001) // END OF FIELD                                          =
(PID.TID 0000.0001) // =======================================================
(PID.TID 0000.0001) 
(PID.TID 0000.0001) // =======================================================
(PID.TID 0000.0001) // Field hFacC at iteration          1
(PID.TID 0000.0001) // CMIN =          1.000000000000000E+00
(PID.TID 0000.0001) // CMAX =          1.000000000000000E+00
(PID.TID 0000.0001) // CINT =          0.000000000000000E+00
(PID.TID 0000.0001) // SYMBOLS (CMIN->CMAX): -abcdefghijklmnopqrstuvwxyz+
(PID.TID 0000.0001) //                  0.0: .
(PID.TID 0000.0001) // RANGE I (Lo:Hi:Step):(  -1:   7:   1)
(PID.TID 0000.0001) // RANGE J (Lo:Hi:Step):(   7:  -1:  -1)
(PID.TID 0000.0001) // RANGE K (Lo:Hi:Step):(   1:   1:   1)
(PID.TID 0000.0001) // =======================================================
(PID.TID 0000.0001) // =======================================================
(PID.TID 0000.0001) // END OF FIELD                                          =
(PID.TID 0000.0001) // =======================================================
(PID.TID 0000.0001) 
(PID.TID 0000.0001) // =======================================================
(PID.TID 0000.0001) // Field hFacW at iteration          1
(PID.TID 0000.0001) // CMIN =          1.000000000000000E+00
(PID.TID 0000.0001) // CMAX =          1.000000000000000E+00
(PID.TID 0000.0001) // CINT =          0.000000000000000E+00
(PID.TID 0000.0001) // SYMBOLS (CMIN->CMAX): -abcdefghijklmnopqrstuvwxyz+
(PID.TID 0000.0001) //                  0.0: .
(PID.TID 0000.0001) // RANGE I (Lo:Hi:Step):(  -1:   7:   1)
(PID.TID 0000.0001) // RANGE J (Lo:Hi:Step):(   7:  -1:  -1)
(PID.TID 0000.0001) // RANGE K (Lo:Hi:Step):(   1:   1:   1)
(PID.TID 0000.0001) // =======================================================
(PID.TID 0000.0001) // =======================================================
(PID.TID 0000.0001) // END OF FIELD                                          =
(PID.TID 0000.0001) // =======================================================
(PID.TID 0000.0001) 
(PID.TID 0000.0001) // =======================================================
(PID.TID 0000.0001) // Field hFacS at iteration          1
(PID.TID 0000.0001) // CMIN =          1.000000000000000E+00
(PID.TID 0000.0001) // CMAX =          1.000000000000000E+00
(PID.TID 0000.0001) // CINT =          0.000000000000000E+00
(PID.TID 0000.0001) // SYMBOLS (CMIN->CMAX): -abcdefghijklmnopqrstuvwxyz+
(PID.TID 0000.0001) //                  0.0: .
(PID.TID 0000.0001) // RANGE I (Lo:Hi:Step):(  -1:   7:   1)
(PID.TID 0000.0001) // RANGE J (Lo:Hi:Step):(   7:  -1:  -1)
(PID.TID 0000.0001) // RANGE K (Lo:Hi:Step):(   1:   1:   1)
(PID.TID 0000.0001) // =======================================================
(PID.TID 0000.0001) // =======================================================
(PID.TID 0000.0001) // END OF FIELD                                          =
(PID.TID 0000.0001) // =======================================================
(PID.TID 0000.0001) 
(PID.TID 0000.0001) // =======================================================
(PID.TID 0000.0001) // Field Initial Temperature at iteration          1
(PID.TID 0000.0001) // CMIN =          4.000000000000000E+00
(PID.TID 0000.0001) // CMAX =          4.000000000000000E+00
(PID.TID 0000.0001) // CINT =          0.000000000000000E+00
(PID.TID 0000.0001) // SYMBOLS (CMIN->CMAX): -abcdefghijklmnopqrstuvwxyz+
(PID.TID 0000.0001) //                  0.0: .
(PID.TID 0000.0001) // RANGE I (Lo:Hi:Step):(   1:   5:   1)
(PID.TID 0000.0001) // RANGE J (Lo:Hi:Step):(   5:   1:  -1)
(PID.TID 0000.0001) // RANGE K (Lo:Hi:Step):(   1:   1:   1)
(PID.TID 0000.0001) // =======================================================
(PID.TID 0000.0001) // =======================================================
(PID.TID 0000.0001) // END OF FIELD                                          =
(PID.TID 0000.0001) // =======================================================
(PID.TID 0000.0001) 
(PID.TID 0000.0001) // =======================================================
(PID.TID 0000.0001) // Field Initial Salinity at iteration          1
(PID.TID 0000.0001) // CMIN =          3.500000000000000E+01
(PID.TID 0000.0001) // CMAX =          3.500000000000000E+01
(PID.TID 0000.0001) // CINT =          0.000000000000000E+00
(PID.TID 0000.0001) // SYMBOLS (CMIN->CMAX): -abcdefghijklmnopqrstuvwxyz+
(PID.TID 0000.0001) //                  0.0: .
(PID.TID 0000.0001) // RANGE I (Lo:Hi:Step):(   1:   5:   1)
(PID.TID 0000.0001) // RANGE J (Lo:Hi:Step):(   5:   1:  -1)
(PID.TID 0000.0001) // RANGE K (Lo:Hi:Step):(   1:   1:   1)
(PID.TID 0000.0001) // =======================================================
(PID.TID 0000.0001) // =======================================================
(PID.TID 0000.0001) // END OF FIELD                                          =
(PID.TID 0000.0001) // =======================================================
(PID.TID 0000.0001) 
(PID.TID 0000.0001) Start initial hydrostatic pressure computation
(PID.TID 0000.0001) Pressure is predetermined for buoyancyRelation OCEANIC
(PID.TID 0000.0001) 
(PID.TID 0000.0001)  MDS_READ_FIELD: opening global file: windx.sin_y
(PID.TID 0000.0001) // =======================================================
(PID.TID 0000.0001) // Model current state
(PID.TID 0000.0001) // =======================================================
(PID.TID 0000.0001) 
 cg2d: Sum(rhs),rhsMax =   0.00000000000000E+00  0.00000000000000E+00
 cg2d: Sum(rhs),rhsMax =  -2.49999999999996E+01  6.03492218443698E-05
 cg2d: Sum(rhs),rhsMax =  -1.81034404639062E+01  2.18766023587219E-04
 cg2d: Sum(rhs),rhsMax =  -1.54955563078392E+01  4.32479835610180E-04
 cg2d: Sum(rhs),rhsMax =  -1.41111452374742E+01  6.49958988115232E-04
 cg2d: Sum(rhs),rhsMax =  -1.31144322168414E+01  8.30737103869039E-04
 cg2d: Sum(rhs),rhsMax =  -1.21209089990130E+01  9.52510664600611E-04
 cg2d: Sum(rhs),rhsMax =  -1.07124742365899E+01  1.02806631169179E-03
 cg2d: Sum(rhs),rhsMax =  -7.41375936567255E+00  1.27086596350872E-03
 cg2d: Sum(rhs),rhsMax =  -4.70217533306688E+00  1.51019014141041E-03
 cg2d: Sum(rhs),rhsMax =  -2.72440685776768E+00  1.65833738400140E-03
 cg2d: Sum(rhs),rhsMax =  -1.27958668936746E+00  1.70565508968177E-03
 cg2d: Sum(rhs),rhsMax =  -3.29564698703086E-01  1.66071960808175E-03
 cg2d: Sum(rhs),rhsMax =   5.21320406757253E-02  1.54812756400041E-03
 cg2d: Sum(rhs),rhsMax =  -2.86625373744553E-01  1.40338816364604E-03
 cg2d: Sum(rhs),rhsMax =  -1.30315843159288E+00  1.44268599906038E-03
 cg2d: Sum(rhs),rhsMax =  -2.68067689816525E+00  1.50836886893674E-03
 cg2d: Sum(rhs),rhsMax =  -4.07407452556899E+00  1.58424367217408E-03
 cg2d: Sum(rhs),rhsMax =  -5.18272346896870E+00  1.66593593208204E-03
 cg2d: Sum(rhs),rhsMax =  -5.80990597046535E+00  1.74846175724678E-03
 cg2d: Sum(rhs),rhsMax =  -5.87740626339480E+00  1.82725971561977E-03
 cg2d: Sum(rhs),rhsMax =  -5.41358310292023E+00  1.89900435037027E-03
 cg2d: Sum(rhs),rhsMax =  -4.53080675925765E+00  1.96213934873474E-03
 cg2d: Sum(rhs),rhsMax =  -3.22587899064007E+00  2.12611202541840E-03
 cg2d: Sum(rhs),rhsMax =  -2.04447211895367E+00  2.24837953710413E-03
 cg2d: Sum(rhs),rhsMax =  -1.10818137201623E+00  2.30404049160581E-03
 cg2d: Sum(rhs),rhsMax =  -4.90484879129349E-01  2.29576532465554E-03
 cg2d: Sum(rhs),rhsMax =  -2.61247062260949E-01  2.23814842280433E-03
 cg2d: Sum(rhs),rhsMax =  -4.50921966428634E-01  2.26266907167755E-03
 cg2d: Sum(rhs),rhsMax =  -1.00469610324224E+00  2.31946123266091E-03
 cg2d: Sum(rhs),rhsMax =  -1.78565330999176E+00  2.37599941822351E-03
 cg2d: Sum(rhs),rhsMax =  -2.62429308288256E+00  2.42805543664949E-03
 cg2d: Sum(rhs),rhsMax =  -3.35748486042435E+00  2.47123045296533E-03
 cg2d: Sum(rhs),rhsMax =  -3.85508917103118E+00  2.50195598595292E-03
 cg2d: Sum(rhs),rhsMax =  -4.03589977421438E+00  2.51830322790746E-03
 cg2d: Sum(rhs),rhsMax =  -3.87512847366994E+00  2.52047519328719E-03
 cg2d: Sum(rhs),rhsMax =  -3.40600368024382E+00  2.51092921977442E-03
 cg2d: Sum(rhs),rhsMax =  -2.61682443410907E+00  2.58874086823083E-03
 cg2d: Sum(rhs),rhsMax =  -1.83238712105166E+00  2.61669729411625E-03
 cg2d: Sum(rhs),rhsMax =  -1.17513337916730E+00  2.56005945626715E-03
 cg2d: Sum(rhs),rhsMax =  -7.11994613788432E-01  2.47855829722439E-03
 cg2d: Sum(rhs),rhsMax =  -5.26422145495718E-01  2.47042092631001E-03
 cg2d: Sum(rhs),rhsMax =  -6.78930209281029E-01  2.49676870390639E-03
 cg2d: Sum(rhs),rhsMax =  -1.12673721582944E+00  2.53652611497844E-03
 cg2d: Sum(rhs),rhsMax =  -1.75981625060819E+00  2.58504763878417E-03
 cg2d: Sum(rhs),rhsMax =  -2.43940635608006E+00  2.63568090271549E-03
 cg2d: Sum(rhs),rhsMax =  -3.03203009355292E+00  2.68092813808283E-03
 cg2d: Sum(rhs),rhsMax =  -3.40991312727143E+00  2.73286303057722E-03
 cg2d: Sum(rhs),rhsMax =  -3.48046024128366E+00  2.80943921505869E-03
 cg2d: Sum(rhs),rhsMax =  -3.32063073889239E+00  2.84054007782325E-03
 cg2d: Sum(rhs),rhsMax =  -2.96079448207362E+00  2.82589056711949E-03
 cg2d: Sum(rhs),rhsMax =  -2.32992811030146E+00  2.92147974349185E-03
 cg2d: Sum(rhs),rhsMax =  -1.72242455878759E+00  2.94384962469885E-03
 cg2d: Sum(rhs),rhsMax =  -1.21221903114359E+00  2.89157779418204E-03
 cg2d: Sum(rhs),rhsMax =  -8.69698387227157E-01  2.78046456997048E-03
 cg2d: Sum(rhs),rhsMax =  -7.64867796528944E-01  2.63730949567635E-03
 cg2d: Sum(rhs),rhsMax =  -9.31747842306691E-01  2.54529701654341E-03
 cg2d: Sum(rhs),rhsMax =  -1.31074338416116E+00  2.59464766850184E-03
 cg2d: Sum(rhs),rhsMax =  -1.82960843070699E+00  2.67470086451561E-03
 cg2d: Sum(rhs),rhsMax =  -2.36415409483035E+00  2.77096210449761E-03
 cg2d: Sum(rhs),rhsMax =  -2.80794780020512E+00  2.86583704344233E-03
 cg2d: Sum(rhs),rhsMax =  -3.09076538638524E+00  2.94225352413496E-03
 cg2d: Sum(rhs),rhsMax =  -3.17911024552708E+00  2.98708405258176E-03
 cg2d: Sum(rhs),rhsMax =  -3.06968981297189E+00  2.99369700103530E-03
 cg2d: Sum(rhs),rhsMax =  -2.74200030703947E+00  3.00868115002898E-03
 cg2d: Sum(rhs),rhsMax =  -2.22987018193091E+00  3.08320495481941E-03
 cg2d: Sum(rhs),rhsMax =  -1.72892383778446E+00  3.09216601564152E-03
 cg2d: Sum(rhs),rhsMax =  -1.30661125472938E+00  3.03707923175980E-03
 cg2d: Sum(rhs),rhsMax =  -1.02724586721928E+00  2.93201253828043E-03
 cg2d: Sum(rhs),rhsMax =  -9.49612072821913E-01  2.80059567605820E-03
 cg2d: Sum(rhs),rhsMax =  -1.10546680782746E+00  2.68802009974058E-03
 cg2d: Sum(rhs),rhsMax =  -1.41911845354504E+00  2.73183501908968E-03
 cg2d: Sum(rhs),rhsMax =  -1.85263652193337E+00  2.80075122028796E-03
 cg2d: Sum(rhs),rhsMax =  -2.30607105541434E+00  2.88121982327298E-03
 cg2d: Sum(rhs),rhsMax =  -2.69038333611290E+00  2.95745896562609E-03
 cg2d: Sum(rhs),rhsMax =  -2.94313285778596E+00  3.01465307589501E-03
 cg2d: Sum(rhs),rhsMax =  -3.03123924662977E+00  3.04190023800453E-03
 cg2d: Sum(rhs),rhsMax =  -2.94785322901865E+00  3.03433138056479E-03
 cg2d: Sum(rhs),rhsMax =  -2.61356655207956E+00  3.10365976739634E-03
 cg2d: Sum(rhs),rhsMax =  -2.18161316990465E+00  3.16115503659277E-03
 cg2d: Sum(rhs),rhsMax =  -1.75526122928062E+00  3.15966312145000E-03
 cg2d: Sum(rhs),rhsMax =  -1.39603742135915E+00  3.10114910930125E-03
 cg2d: Sum(rhs),rhsMax =  -1.16177138445478E+00  2.99876544208211E-03
 cg2d: Sum(rhs),rhsMax =  -1.10293745357685E+00  2.87411082029903E-03
 cg2d: Sum(rhs),rhsMax =  -1.24975132275368E+00  2.75286353285760E-03
 cg2d: Sum(rhs),rhsMax =  -1.53840868148940E+00  2.75098213510827E-03
 cg2d: Sum(rhs),rhsMax =  -1.91301872181220E+00  2.81271665965217E-03
 cg2d: Sum(rhs),rhsMax =  -2.30705940974503E+00  2.88449377973139E-03
 cg2d: Sum(rhs),rhsMax =  -2.64297554339967E+00  2.95188722351819E-03
 cg2d: Sum(rhs),rhsMax =  -2.86495131004946E+00  3.00154115385598E-03
 cg2d: Sum(rhs),rhsMax =  -2.94238810344635E+00  3.02377922954908E-03
 cg2d: Sum(rhs),rhsMax =  -2.84207312203342E+00  3.04217205494071E-03
 cg2d: Sum(rhs),rhsMax =  -2.51902174563129E+00  3.13830803873290E-03
 cg2d: Sum(rhs),rhsMax =  -2.14123728672689E+00  3.18959322465488E-03
 cg2d: Sum(rhs),rhsMax =  -1.76835917106593E+00  3.18714931519160E-03
 cg2d: Sum(rhs),rhsMax =  -1.45590347439760E+00  3.13272228529459E-03
 cg2d: Sum(rhs),rhsMax =  -1.25508068321743E+00  3.03818416736971E-03
 cg2d: Sum(rhs),rhsMax =  -1.20874901179117E+00  2.92305991665502E-03
 cg2d: Sum(rhs),rhsMax =  -1.34034307792801E+00  2.81059306017823E-03
 cg2d: Sum(rhs),rhsMax =  -1.62624329350254E+00  2.74190569542410E-03
(PID.TID 0000.0001) %CHECKPOINT       100 ckptA
 --> objf_test(bi,bj)   =  0.509071982379660E-01
 --> objf_tracer(bi,bj) =  0.000000000000000E+00
 --> objf_atl(bi,bj)    =  0.000000000000000E+00
  local fc =  0.509071982379660E-01
 global fc =  0.509071982379660E-01
 ph-check fcpertplus =   0.0509071982
(PID.TID 0000.0001)  MDS_READ_FIELD: opening file: xx_depth.0000000000.001.001.data
 ph-check fcpertminus =   0.0509071982
(PID.TID 0000.0001)  MDS_READ_FIELD: opening file: xx_depth.0000000000.001.001.data
(PID.TID 0000.0001)  MDS_READ_FIELD: opening global file: noWalls.bigRidge
(PID.TID 0000.0001) // =======================================================
(PID.TID 0000.0001) // Field Model R_low (ini_masks_etc) at iteration          1
(PID.TID 0000.0001) // CMIN =         -5.000000000000000E+03
(PID.TID 0000.0001) // CMAX =         -2.000000000000000E+03
(PID.TID 0000.0001) // CINT =          1.111111111111111E+02
(PID.TID 0000.0001) // SYMBOLS (CMIN->CMAX): -abcdefghijklmnopqrstuvwxyz+
(PID.TID 0000.0001) //                  0.0: .
(PID.TID 0000.0001) // RANGE I (Lo:Hi:Step):(  -1:   7:   1)
(PID.TID 0000.0001) // RANGE J (Lo:Hi:Step):(   7:  -1:  -1)
(PID.TID 0000.0001) // RANGE K (Lo:Hi:Step):(   1:   1:   1)
(PID.TID 0000.0001) // =======================================================
(PID.TID 0000.0001) K =   1
(PID.TID 0000.0001) //
(PID.TID 0000.0001) // |--J--|101234567
(PID.TID 0000.0001) //      7 ----+----
(PID.TID 0000.0001) //      6 ----+----
(PID.TID 0000.0001) //      5 ----+----
(PID.TID 0000.0001) //      4 ----+----
(PID.TID 0000.0001) //      3 ----+----
(PID.TID 0000.0001) //      2 ----+----
(PID.TID 0000.0001) //      1 ----+----
(PID.TID 0000.0001) //      0 ----+----
(PID.TID 0000.0001) //     -1 ----+----
(PID.TID 0000.0001) // =======================================================
(PID.TID 0000.0001) // END OF FIELD                                          =
(PID.TID 0000.0001) // =======================================================
(PID.TID 0000.0001) 
(PID.TID 0000.0001) // =======================================================
(PID.TID 0000.0001) // Field Model Ro_surf (ini_masks_etc) at iteration          1
(PID.TID 0000.0001) // CMIN =          1.000000000000000E+32
(PID.TID 0000.0001) // CMAX =         -1.000000000000000E+32
(PID.TID 0000.0001) // CINT =          0.000000000000000E+00
(PID.TID 0000.0001) // SYMBOLS (CMIN->CMAX): -abcdefghijklmnopqrstuvwxyz+
(PID.TID 0000.0001) //                  0.0: .
(PID.TID 0000.0001) // RANGE I (Lo:Hi:Step):(  -1:   7:   1)
(PID.TID 0000.0001) // RANGE J (Lo:Hi:Step):(   7:  -1:  -1)
(PID.TID 0000.0001) // RANGE K (Lo:Hi:Step):(   1:   1:   1)
(PID.TID 0000.0001) // =======================================================
(PID.TID 0000.0001) // =======================================================
(PID.TID 0000.0001) // END OF FIELD                                          =
(PID.TID 0000.0001) // =======================================================
(PID.TID 0000.0001) 
(PID.TID 0000.0001) // =======================================================
(PID.TID 0000.0001) // Field hFacC at iteration          1
(PID.TID 0000.0001) // CMIN =          1.000000000000000E+00
(PID.TID 0000.0001) // CMAX =          1.000000000000000E+00
(PID.TID 0000.0001) // CINT =          0.000000000000000E+00
(PID.TID 0000.0001) // SYMBOLS (CMIN->CMAX): -abcdefghijklmnopqrstuvwxyz+
(PID.TID 0000.0001) //                  0.0: .
(PID.TID 0000.0001) // RANGE I (Lo:Hi:Step):(  -1:   7:   1)
(PID.TID 0000.0001) // RANGE J (Lo:Hi:Step):(   7:  -1:  -1)
(PID.TID 0000.0001) // RANGE K (Lo:Hi:Step):(   1:   1:   1)
(PID.TID 0000.0001) // =======================================================
(PID.TID 0000.0001) // =======================================================
(PID.TID 0000.0001) // END OF FIELD                                          =
(PID.TID 0000.0001) // =======================================================
(PID.TID 0000.0001) 
(PID.TID 0000.0001) // =======================================================
(PID.TID 0000.0001) // Field hFacW at iteration          1
(PID.TID 0000.0001) // CMIN =          1.000000000000000E+00
(PID.TID 0000.0001) // CMAX =          1.000000000000000E+00
(PID.TID 0000.0001) // CINT =          0.000000000000000E+00
(PID.TID 0000.0001) // SYMBOLS (CMIN->CMAX): -abcdefghijklmnopqrstuvwxyz+
(PID.TID 0000.0001) //                  0.0: .
(PID.TID 0000.0001) // RANGE I (Lo:Hi:Step):(  -1:   7:   1)
(PID.TID 0000.0001) // RANGE J (Lo:Hi:Step):(   7:  -1:  -1)
(PID.TID 0000.0001) // RANGE K (Lo:Hi:Step):(   1:   1:   1)
(PID.TID 0000.0001) // =======================================================
(PID.TID 0000.0001) // =======================================================
(PID.TID 0000.0001) // END OF FIELD                                          =
(PID.TID 0000.0001) // =======================================================
(PID.TID 0000.0001) 
(PID.TID 0000.0001) // =======================================================
(PID.TID 0000.0001) // Field hFacS at iteration          1
(PID.TID 0000.0001) // CMIN =          1.000000000000000E+00
(PID.TID 0000.0001) // CMAX =          1.000000000000000E+00
(PID.TID 0000.0001) // CINT =          0.000000000000000E+00
(PID.TID 0000.0001) // SYMBOLS (CMIN->CMAX): -abcdefghijklmnopqrstuvwxyz+
(PID.TID 0000.0001) //                  0.0: .
(PID.TID 0000.0001) // RANGE I (Lo:Hi:Step):(  -1:   7:   1)
(PID.TID 0000.0001) // RANGE J (Lo:Hi:Step):(   7:  -1:  -1)
(PID.TID 0000.0001) // RANGE K (Lo:Hi:Step):(   1:   1:   1)
(PID.TID 0000.0001) // =======================================================
(PID.TID 0000.0001) // =======================================================
(PID.TID 0000.0001) // END OF FIELD                                          =
(PID.TID 0000.0001) // =======================================================
(PID.TID 0000.0001) 
(PID.TID 0000.0001) %MON surfExpanfCori_max           =  -1.0735540000000E-04
(PID.TID 0000.0001) %MON surfExpanfCori_min           =  -1.1783060000000E-04
(PID.TID 0000.0001) %MON surfExpanfCori_mean          =  -1.1259300000000E-04
(PID.TID 0000.0001) %MON surfExpanfCori_sd            =   3.7035424771427E-06
(PID.TID 0000.0001) %MON surfExpanfCoriG_max          =  -1.0866480000000E-04
(PID.TID 0000.0001) %MON surfExpanfCoriG_min          =  -1.1914000000000E-04
(PID.TID 0000.0001) %MON surfExpanfCoriG_mean         =  -1.1390240000000E-04
(PID.TID 0000.0001) %MON surfExpanfCoriG_sd           =   3.7035424771427E-06
(PID.TID 0000.0001) %MON surfExpanfCoriCos_max        =   0.0000000000000E+00
(PID.TID 0000.0001) %MON surfExpanfCoriCos_min        =   0.0000000000000E+00
(PID.TID 0000.0001) %MON surfExpanfCoriCos_mean       =   0.0000000000000E+00
(PID.TID 0000.0001) %MON surfExpanfCoriCos_sd         =   0.0000000000000E+00
(PID.TID 0000.0001) INI_CG2D: CG2D normalisation factor =  1.9999999999999996E-04
(PID.TID 0000.0001) 
                     ctrl_depth_ini: ctrl update R_low,
                                     adding the control vector.
(PID.TID 0000.0001)  MDS_READ_FIELD: opening file: xx_depth.0000000000.001.001.data
(PID.TID 0000.0001) // =======================================================
(PID.TID 0000.0001) // Field Model Ro_surf (update_masks_etc) at iteration          1
(PID.TID 0000.0001) // CMIN =          1.000000000000000E+32
(PID.TID 0000.0001) // CMAX =         -1.000000000000000E+32
(PID.TID 0000.0001) // CINT =          0.000000000000000E+00
(PID.TID 0000.0001) // SYMBOLS (CMIN->CMAX): -abcdefghijklmnopqrstuvwxyz+
(PID.TID 0000.0001) //                  0.0: .
(PID.TID 0000.0001) // RANGE I (Lo:Hi:Step):(  -1:   7:   1)
(PID.TID 0000.0001) // RANGE J (Lo:Hi:Step):(   7:  -1:  -1)
(PID.TID 0000.0001) // RANGE K (Lo:Hi:Step):(   1:   1:   1)
(PID.TID 0000.0001) // =======================================================
(PID.TID 0000.0001) // =======================================================
(PID.TID 0000.0001) // END OF FIELD                                          =
(PID.TID 0000.0001) // =======================================================
(PID.TID 0000.0001) 
(PID.TID 0000.0001) // =======================================================
(PID.TID 0000.0001) // Field hFacC at iteration          1
(PID.TID 0000.0001) // CMIN =          1.000000000000000E+00
(PID.TID 0000.0001) // CMAX =          1.000000000000000E+00
(PID.TID 0000.0001) // CINT =          0.000000000000000E+00
(PID.TID 0000.0001) // SYMBOLS (CMIN->CMAX): -abcdefghijklmnopqrstuvwxyz+
(PID.TID 0000.0001) //                  0.0: .
(PID.TID 0000.0001) // RANGE I (Lo:Hi:Step):(  -1:   7:   1)
(PID.TID 0000.0001) // RANGE J (Lo:Hi:Step):(   7:  -1:  -1)
(PID.TID 0000.0001) // RANGE K (Lo:Hi:Step):(   1:   1:   1)
(PID.TID 0000.0001) // =======================================================
(PID.TID 0000.0001) // =======================================================
(PID.TID 0000.0001) // END OF FIELD                                          =
(PID.TID 0000.0001) // =======================================================
(PID.TID 0000.0001) 
(PID.TID 0000.0001) // =======================================================
(PID.TID 0000.0001) // Field hFacW at iteration          1
(PID.TID 0000.0001) // CMIN =          1.000000000000000E+00
(PID.TID 0000.0001) // CMAX =          1.000000000000000E+00
(PID.TID 0000.0001) // CINT =          0.000000000000000E+00
(PID.TID 0000.0001) // SYMBOLS (CMIN->CMAX): -abcdefghijklmnopqrstuvwxyz+
(PID.TID 0000.0001) //                  0.0: .
(PID.TID 0000.0001) // RANGE I (Lo:Hi:Step):(  -1:   7:   1)
(PID.TID 0000.0001) // RANGE J (Lo:Hi:Step):(   7:  -1:  -1)
(PID.TID 0000.0001) // RANGE K (Lo:Hi:Step):(   1:   1:   1)
(PID.TID 0000.0001) // =======================================================
(PID.TID 0000.0001) // =======================================================
(PID.TID 0000.0001) // END OF FIELD                                          =
(PID.TID 0000.0001) // =======================================================
(PID.TID 0000.0001) 
(PID.TID 0000.0001) // =======================================================
(PID.TID 0000.0001) // Field hFacS at iteration          1
(PID.TID 0000.0001) // CMIN =          1.000000000000000E+00
(PID.TID 0000.0001) // CMAX =          1.000000000000000E+00
(PID.TID 0000.0001) // CINT =          0.000000000000000E+00
(PID.TID 0000.0001) // SYMBOLS (CMIN->CMAX): -abcdefghijklmnopqrstuvwxyz+
(PID.TID 0000.0001) //                  0.0: .
(PID.TID 0000.0001) // RANGE I (Lo:Hi:Step):(  -1:   7:   1)
(PID.TID 0000.0001) // RANGE J (Lo:Hi:Step):(   7:  -1:  -1)
(PID.TID 0000.0001) // RANGE K (Lo:Hi:Step):(   1:   1:   1)
(PID.TID 0000.0001) // =======================================================
(PID.TID 0000.0001) // =======================================================
(PID.TID 0000.0001) // END OF FIELD                                          =
(PID.TID 0000.0001) // =======================================================
(PID.TID 0000.0001) 
(PID.TID 0000.0001) // =======================================================
(PID.TID 0000.0001) // Field Initial Temperature at iteration          1
(PID.TID 0000.0001) // CMIN =          4.000000000000000E+00
(PID.TID 0000.0001) // CMAX =          4.000000000000000E+00
(PID.TID 0000.0001) // CINT =          0.000000000000000E+00
(PID.TID 0000.0001) // SYMBOLS (CMIN->CMAX): -abcdefghijklmnopqrstuvwxyz+
(PID.TID 0000.0001) //                  0.0: .
(PID.TID 0000.0001) // RANGE I (Lo:Hi:Step):(   1:   5:   1)
(PID.TID 0000.0001) // RANGE J (Lo:Hi:Step):(   5:   1:  -1)
(PID.TID 0000.0001) // RANGE K (Lo:Hi:Step):(   1:   1:   1)
(PID.TID 0000.0001) // =======================================================
(PID.TID 0000.0001) // =======================================================
(PID.TID 0000.0001) // END OF FIELD                                          =
(PID.TID 0000.0001) // =======================================================
(PID.TID 0000.0001) 
(PID.TID 0000.0001) // =======================================================
(PID.TID 0000.0001) // Field Initial Salinity at iteration          1
(PID.TID 0000.0001) // CMIN =          3.500000000000000E+01
(PID.TID 0000.0001) // CMAX =          3.500000000000000E+01
(PID.TID 0000.0001) // CINT =          0.000000000000000E+00
(PID.TID 0000.0001) // SYMBOLS (CMIN->CMAX): -abcdefghijklmnopqrstuvwxyz+
(PID.TID 0000.0001) //                  0.0: .
(PID.TID 0000.0001) // RANGE I (Lo:Hi:Step):(   1:   5:   1)
(PID.TID 0000.0001) // RANGE J (Lo:Hi:Step):(   5:   1:  -1)
(PID.TID 0000.0001) // RANGE K (Lo:Hi:Step):(   1:   1:   1)
(PID.TID 0000.0001) // =======================================================
(PID.TID 0000.0001) // =======================================================
(PID.TID 0000.0001) // END OF FIELD                                          =
(PID.TID 0000.0001) // =======================================================
(PID.TID 0000.0001) 
(PID.TID 0000.0001) Start initial hydrostatic pressure computation
(PID.TID 0000.0001) Pressure is predetermined for buoyancyRelation OCEANIC
(PID.TID 0000.0001) 
(PID.TID 0000.0001)  MDS_READ_FIELD: opening global file: windx.sin_y
(PID.TID 0000.0001) // =======================================================
(PID.TID 0000.0001) // Model current state
(PID.TID 0000.0001) // =======================================================
(PID.TID 0000.0001) 
 cg2d: Sum(rhs),rhsMax =   0.00000000000000E+00  0.00000000000000E+00
 cg2d: Sum(rhs),rhsMax =  -2.49999999999996E+01  6.03492218443698E-05
 cg2d: Sum(rhs),rhsMax =  -1.81034404639062E+01  2.18766023587219E-04
 cg2d: Sum(rhs),rhsMax =  -1.54955562585904E+01  4.32479836984711E-04
 cg2d: Sum(rhs),rhsMax =  -1.41111452284253E+01  6.49958988531588E-04
 cg2d: Sum(rhs),rhsMax =  -1.31144322496813E+01  8.30737101787719E-04
 cg2d: Sum(rhs),rhsMax =  -1.21209090660645E+01  9.52510659329972E-04
 cg2d: Sum(rhs),rhsMax =  -1.07124742378238E+01  1.02806631157235E-03
 cg2d: Sum(rhs),rhsMax =  -7.41375936764159E+00  1.27086596317270E-03
 cg2d: Sum(rhs),rhsMax =  -4.70217533604114E+00  1.51019014046577E-03
 cg2d: Sum(rhs),rhsMax =  -2.72440686079068E+00  1.65833738219881E-03
 cg2d: Sum(rhs),rhsMax =  -1.27958669157859E+00  1.70565508686092E-03
 cg2d: Sum(rhs),rhsMax =  -3.29564699601916E-01  1.66071960422604E-03
 cg2d: Sum(rhs),rhsMax =   5.21320406552039E-02  1.54812755927222E-03
 cg2d: Sum(rhs),rhsMax =  -2.86625375056420E-01  1.40338815838507E-03
 cg2d: Sum(rhs),rhsMax =  -1.30315843581073E+00  1.44268599469697E-03
 cg2d: Sum(rhs),rhsMax =  -2.68067690782316E+00  1.50836886368836E-03
 cg2d: Sum(rhs),rhsMax =  -4.07407454146177E+00  1.58424366615730E-03
 cg2d: Sum(rhs),rhsMax =  -5.18272349000985E+00  1.66593592549959E-03
 cg2d: Sum(rhs),rhsMax =  -5.80990599409609E+00  1.74846175036876E-03
 cg2d: Sum(rhs),rhsMax =  -5.87740628655635E+00  1.82725970875138E-03
 cg2d: Sum(rhs),rhsMax =  -5.41358312306550E+00  1.89900434381127E-03
 cg2d: Sum(rhs),rhsMax =  -4.53080677501337E+00  1.96213934273707E-03
 cg2d: Sum(rhs),rhsMax =  -3.22587898752959E+00  2.12611202899079E-03
 cg2d: Sum(rhs),rhsMax =  -2.04447211871103E+00  2.24837954041361E-03
 cg2d: Sum(rhs),rhsMax =  -1.10818137410222E+00  2.30404049414377E-03
 cg2d: Sum(rhs),rhsMax =  -4.90484882763284E-01  2.29576532609838E-03
 cg2d: Sum(rhs),rhsMax =  -2.61247066905965E-01  2.23814842307484E-03
 cg2d: Sum(rhs),rhsMax =  -4.50921972214460E-01  2.26266906889267E-03
 cg2d: Sum(rhs),rhsMax =  -1.00469611019844E+00  2.31946122968681E-03
 cg2d: Sum(rhs),rhsMax =  -1.78565331858334E+00  2.37599941486423E-03
 cg2d: Sum(rhs),rhsMax =  -2.62429309350057E+00  2.42805543280035E-03
 cg2d: Sum(rhs),rhsMax =  -3.35748487319242E+00  2.47123044862958E-03
 cg2d: Sum(rhs),rhsMax =  -3.85508918565736E+00  2.50195598123940E-03
 cg2d: Sum(rhs),rhsMax =  -4.03589979001155E+00  2.51830322300987E-03
 cg2d: Sum(rhs),rhsMax =  -3.87512848976098E+00  2.52047518844941E-03
 cg2d: Sum(rhs),rhsMax =  -3.40600369586817E+00  2.51092921524807E-03
 cg2d: Sum(rhs),rhsMax =  -2.61682443216077E+00  2.58874088009770E-03
 cg2d: Sum(rhs),rhsMax =  -1.83238712295969E+00  2.61669730686131E-03
 cg2d: Sum(rhs),rhsMax =  -1.17513338503079E+00  2.56005946966656E-03
 cg2d: Sum(rhs),rhsMax =  -7.11994624202329E-01  2.47855830755220E-03
 cg2d: Sum(rhs),rhsMax =  -5.26422160143133E-01  2.47042092500782E-03
 cg2d: Sum(rhs),rhsMax =  -6.78930224627847E-01  2.49676870301240E-03
 cg2d: Sum(rhs),rhsMax =  -1.12673723181323E+00  2.53652611429532E-03
 cg2d: Sum(rhs),rhsMax =  -1.75981626718667E+00  2.58504763812600E-03
 cg2d: Sum(rhs),rhsMax =  -2.43940637331327E+00  2.63568090193693E-03
 cg2d: Sum(rhs),rhsMax =  -3.03203011156637E+00  2.68092813709771E-03
 cg2d: Sum(rhs),rhsMax =  -3.40991310980648E+00  2.73286305839238E-03
 cg2d: Sum(rhs),rhsMax =  -3.48046022343261E+00  2.80943924355276E-03
 cg2d: Sum(rhs),rhsMax =  -3.32063072286699E+00  2.84054010690780E-03
 cg2d: Sum(rhs),rhsMax =  -2.96079446989347E+00  2.82589059672766E-03
 cg2d: Sum(rhs),rhsMax =  -2.32992811180147E+00  2.92147976545697E-03
 cg2d: Sum(rhs),rhsMax =  -1.72242456512973E+00  2.94384964750741E-03
 cg2d: Sum(rhs),rhsMax =  -1.21221904215139E+00  2.89157781772217E-03
 cg2d: Sum(rhs),rhsMax =  -8.69698402217775E-01  2.78046459415203E-03
 cg2d: Sum(rhs),rhsMax =  -7.64867813963453E-01  2.63730952044653E-03
 cg2d: Sum(rhs),rhsMax =  -9.31747856533482E-01  2.54529704954841E-03
 cg2d: Sum(rhs),rhsMax =  -1.31074339367011E+00  2.59464770217572E-03
 cg2d: Sum(rhs),rhsMax =  -1.82960843359378E+00  2.67470089882053E-03
 cg2d: Sum(rhs),rhsMax =  -2.36415409108571E+00  2.77096213935898E-03
 cg2d: Sum(rhs),rhsMax =  -2.80794779126451E+00  2.86583707875990E-03
 cg2d: Sum(rhs),rhsMax =  -3.09076537443762E+00  2.94225355980029E-03
 cg2d: Sum(rhs),rhsMax =  -3.17911023298019E+00  2.98708408849838E-03
 cg2d: Sum(rhs),rhsMax =  -3.06968980216167E+00  2.99369703713730E-03
 cg2d: Sum(rhs),rhsMax =  -2.74200030572821E+00  3.00868118077153E-03
 cg2d: Sum(rhs),rhsMax =  -2.22987018608865E+00  3.08320498599972E-03
 cg2d: Sum(rhs),rhsMax =  -1.72892384745049E+00  3.09216604716193E-03
 cg2d: Sum(rhs),rhsMax =  -1.30661126949382E+00  3.03707926355338E-03
 cg2d: Sum(rhs),rhsMax =  -1.02724588609255E+00  2.93201257032369E-03
 cg2d: Sum(rhs),rhsMax =  -9.49612093973071E-01  2.80059570837467E-03
 cg2d: Sum(rhs),rhsMax =  -1.10546682594688E+00  2.68802013831834E-03
 cg2d: Sum(rhs),rhsMax =  -1.41911846708912E+00  2.73183505821978E-03
 cg2d: Sum(rhs),rhsMax =  -1.85263652910961E+00  2.80075125990419E-03
 cg2d: Sum(rhs),rhsMax =  -2.30607105614043E+00  2.88121986326090E-03
 cg2d: Sum(rhs),rhsMax =  -2.69038333167244E+00  2.95745900583986E-03
 cg2d: Sum(rhs),rhsMax =  -2.94313285024564E+00  3.01465311618084E-03
 cg2d: Sum(rhs),rhsMax =  -3.03123923834215E+00  3.04190027822614E-03
 cg2d: Sum(rhs),rhsMax =  -2.94785322230649E+00  3.03433142062596E-03
 cg2d: Sum(rhs),rhsMax =  -2.61356655318212E+00  3.10365980392203E-03
 cg2d: Sum(rhs),rhsMax =  -2.18161317632164E+00  3.16115507319602E-03
 cg2d: Sum(rhs),rhsMax =  -1.75526124107594E+00  3.15966315799473E-03
 cg2d: Sum(rhs),rhsMax =  -1.39603743806472E+00  3.10114914569414E-03
 cg2d: Sum(rhs),rhsMax =  -1.16177140498663E+00  2.99876547828607E-03
 cg2d: Sum(rhs),rhsMax =  -1.10293747606742E+00  2.87411085633598E-03
 cg2d: Sum(rhs),rhsMax =  -1.24975134451678E+00  2.75286356880005E-03
 cg2d: Sum(rhs),rhsMax =  -1.53840869692225E+00  2.75098217573325E-03
 cg2d: Sum(rhs),rhsMax =  -1.91301873121764E+00  2.81271670060310E-03
 cg2d: Sum(rhs),rhsMax =  -2.30705941299852E+00  2.88449382092867E-03
 cg2d: Sum(rhs),rhsMax =  -2.64297554161373E+00  2.95188726484509E-03
 cg2d: Sum(rhs),rhsMax =  -2.86495130507752E+00  3.00154119518053E-03
 cg2d: Sum(rhs),rhsMax =  -2.94238809743831E+00  3.02377927074856E-03
 cg2d: Sum(rhs),rhsMax =  -2.84207312103668E+00  3.04217209216724E-03
 cg2d: Sum(rhs),rhsMax =  -2.51902174844625E+00  3.13830807595796E-03
 cg2d: Sum(rhs),rhsMax =  -2.14123729397911E+00  3.18959326173401E-03
 cg2d: Sum(rhs),rhsMax =  -1.76835918279312E+00  3.18714935199338E-03
 cg2d: Sum(rhs),rhsMax =  -1.45590349012020E+00  3.13272232172117E-03
 cg2d: Sum(rhs),rhsMax =  -1.25508070189251E+00  3.03818420337039E-03
 cg2d: Sum(rhs),rhsMax =  -1.20874903172558E+00  2.92305995223022E-03
 cg2d: Sum(rhs),rhsMax =  -1.34034309682426E+00  2.81059309537362E-03
 cg2d: Sum(rhs),rhsMax =  -1.62624330541278E+00  2.74190573619099E-03
(PID.TID 0000.0001) %CHECKPOINT       100 ckptB
 --> objf_test(bi,bj)   =  0.509071981743371E-01
 --> objf_tracer(bi,bj) =  0.000000000000000E+00
 --> objf_atl(bi,bj)    =  0.000000000000000E+00
  local fc =  0.509071981743371E-01
 global fc =  0.509071981743371E-01
(PID.TID 0000.0001)  MDS_READ_FIELD: opening file: xx_depth.0000000000.001.001.data
grad-res -------------------------------
 grad-res     0    7    2    2    1    1    1    1   0.509071982062E-01 0.509071982380E-01 0.509071981743E-01
 grad-res     0    7    7    7   25    1    1    1   0.317833265773E-06 0.318144399714E-06 -.978921888031E-03
(PID.TID 0000.0001)   ADM  precision_derivative_cost =    5.09071982061515E-02
(PID.TID 0000.0001)   ADM  precision_derivative_grad =    3.17833265772951E-07
 ph-grd  ierr ---------------------------
 ph-grd  ierr =  0, icomp =  7, ichknum =  7
 ph-grd -->hit<--  3 2 1 1
(PID.TID 0000.0001)  MDS_READ_FIELD: opening file: adxx_depth.0000000000.001.001.data
(PID.TID 0000.0001)  MDS_READ_FIELD: opening file: xx_depth.0000000000.001.001.data
(PID.TID 0000.0001)  MDS_READ_FIELD: opening global file: noWalls.bigRidge
(PID.TID 0000.0001) // =======================================================
(PID.TID 0000.0001) // Field Model R_low (ini_masks_etc) at iteration          1
(PID.TID 0000.0001) // CMIN =         -5.000000000000000E+03
(PID.TID 0000.0001) // CMAX =         -2.000000000000000E+03
(PID.TID 0000.0001) // CINT =          1.111111111111111E+02
(PID.TID 0000.0001) // SYMBOLS (CMIN->CMAX): -abcdefghijklmnopqrstuvwxyz+
(PID.TID 0000.0001) //                  0.0: .
(PID.TID 0000.0001) // RANGE I (Lo:Hi:Step):(  -1:   7:   1)
(PID.TID 0000.0001) // RANGE J (Lo:Hi:Step):(   7:  -1:  -1)
(PID.TID 0000.0001) // RANGE K (Lo:Hi:Step):(   1:   1:   1)
(PID.TID 0000.0001) // =======================================================
(PID.TID 0000.0001) K =   1
(PID.TID 0000.0001) //
(PID.TID 0000.0001) // |--J--|101234567
(PID.TID 0000.0001) //      7 ----+----
(PID.TID 0000.0001) //      6 ----+----
(PID.TID 0000.0001) //      5 ----+----
(PID.TID 0000.0001) //      4 ----+----
(PID.TID 0000.0001) //      3 ----+----
(PID.TID 0000.0001) //      2 ----+----
(PID.TID 0000.0001) //      1 ----+----
(PID.TID 0000.0001) //      0 ----+----
(PID.TID 0000.0001) //     -1 ----+----
(PID.TID 0000.0001) // =======================================================
(PID.TID 0000.0001) // END OF FIELD                                          =
(PID.TID 0000.0001) // =======================================================
(PID.TID 0000.0001) 
(PID.TID 0000.0001) // =======================================================
(PID.TID 0000.0001) // Field Model Ro_surf (ini_masks_etc) at iteration          1
(PID.TID 0000.0001) // CMIN =          1.000000000000000E+32
(PID.TID 0000.0001) // CMAX =         -1.000000000000000E+32
(PID.TID 0000.0001) // CINT =          0.000000000000000E+00
(PID.TID 0000.0001) // SYMBOLS (CMIN->CMAX): -abcdefghijklmnopqrstuvwxyz+
(PID.TID 0000.0001) //                  0.0: .
(PID.TID 0000.0001) // RANGE I (Lo:Hi:Step):(  -1:   7:   1)
(PID.TID 0000.0001) // RANGE J (Lo:Hi:Step):(   7:  -1:  -1)
(PID.TID 0000.0001) // RANGE K (Lo:Hi:Step):(   1:   1:   1)
(PID.TID 0000.0001) // =======================================================
(PID.TID 0000.0001) // =======================================================
(PID.TID 0000.0001) // END OF FIELD                                          =
(PID.TID 0000.0001) // =======================================================
(PID.TID 0000.0001) 
(PID.TID 0000.0001) // =======================================================
(PID.TID 0000.0001) // Field hFacC at iteration          1
(PID.TID 0000.0001) // CMIN =          1.000000000000000E+00
(PID.TID 0000.0001) // CMAX =          1.000000000000000E+00
(PID.TID 0000.0001) // CINT =          0.000000000000000E+00
(PID.TID 0000.0001) // SYMBOLS (CMIN->CMAX): -abcdefghijklmnopqrstuvwxyz+
(PID.TID 0000.0001) //                  0.0: .
(PID.TID 0000.0001) // RANGE I (Lo:Hi:Step):(  -1:   7:   1)
(PID.TID 0000.0001) // RANGE J (Lo:Hi:Step):(   7:  -1:  -1)
(PID.TID 0000.0001) // RANGE K (Lo:Hi:Step):(   1:   1:   1)
(PID.TID 0000.0001) // =======================================================
(PID.TID 0000.0001) // =======================================================
(PID.TID 0000.0001) // END OF FIELD                                          =
(PID.TID 0000.0001) // =======================================================
(PID.TID 0000.0001) 
(PID.TID 0000.0001) // =======================================================
(PID.TID 0000.0001) // Field hFacW at iteration          1
(PID.TID 0000.0001) // CMIN =          1.000000000000000E+00
(PID.TID 0000.0001) // CMAX =          1.000000000000000E+00
(PID.TID 0000.0001) // CINT =          0.000000000000000E+00
(PID.TID 0000.0001) // SYMBOLS (CMIN->CMAX): -abcdefghijklmnopqrstuvwxyz+
(PID.TID 0000.0001) //                  0.0: .
(PID.TID 0000.0001) // RANGE I (Lo:Hi:Step):(  -1:   7:   1)
(PID.TID 0000.0001) // RANGE J (Lo:Hi:Step):(   7:  -1:  -1)
(PID.TID 0000.0001) // RANGE K (Lo:Hi:Step):(   1:   1:   1)
(PID.TID 0000.0001) // =======================================================
(PID.TID 0000.0001) // =======================================================
(PID.TID 0000.0001) // END OF FIELD                                          =
(PID.TID 0000.0001) // =======================================================
(PID.TID 0000.0001) 
(PID.TID 0000.0001) // =======================================================
(PID.TID 0000.0001) // Field hFacS at iteration          1
(PID.TID 0000.0001) // CMIN =          1.000000000000000E+00
(PID.TID 0000.0001) // CMAX =          1.000000000000000E+00
(PID.TID 0000.0001) // CINT =          0.000000000000000E+00
(PID.TID 0000.0001) // SYMBOLS (CMIN->CMAX): -abcdefghijklmnopqrstuvwxyz+
(PID.TID 0000.0001) //                  0.0: .
(PID.TID 0000.0001) // RANGE I (Lo:Hi:Step):(  -1:   7:   1)
(PID.TID 0000.0001) // RANGE J (Lo:Hi:Step):(   7:  -1:  -1)
(PID.TID 0000.0001) // RANGE K (Lo:Hi:Step):(   1:   1:   1)
(PID.TID 0000.0001) // =======================================================
(PID.TID 0000.0001) // =======================================================
(PID.TID 0000.0001) // END OF FIELD                                          =
(PID.TID 0000.0001) // =======================================================
(PID.TID 0000.0001) 
(PID.TID 0000.0001) %MON surfExpanfCori_max           =  -1.0735540000000E-04
(PID.TID 0000.0001) %MON surfExpanfCori_min           =  -1.1783060000000E-04
(PID.TID 0000.0001) %MON surfExpanfCori_mean          =  -1.1259300000000E-04
(PID.TID 0000.0001) %MON surfExpanfCori_sd            =   3.7035424771427E-06
(PID.TID 0000.0001) %MON surfExpanfCoriG_max          =  -1.0866480000000E-04
(PID.TID 0000.0001) %MON surfExpanfCoriG_min          =  -1.1914000000000E-04
(PID.TID 0000.0001) %MON surfExpanfCoriG_mean         =  -1.1390240000000E-04
(PID.TID 0000.0001) %MON surfExpanfCoriG_sd           =   3.7035424771427E-06
(PID.TID 0000.0001) %MON surfExpanfCoriCos_max        =   0.0000000000000E+00
(PID.TID 0000.0001) %MON surfExpanfCoriCos_min        =   0.0000000000000E+00
(PID.TID 0000.0001) %MON surfExpanfCoriCos_mean       =   0.0000000000000E+00
(PID.TID 0000.0001) %MON surfExpanfCoriCos_sd         =   0.0000000000000E+00
(PID.TID 0000.0001) INI_CG2D: CG2D normalisation factor =  1.9999999999999996E-04
(PID.TID 0000.0001) 
                     ctrl_depth_ini: ctrl update R_low,
                                     adding the control vector.
(PID.TID 0000.0001)  MDS_READ_FIELD: opening file: xx_depth.0000000000.001.001.data
(PID.TID 0000.0001) // =======================================================
(PID.TID 0000.0001) // Field Model Ro_surf (update_masks_etc) at iteration          1
(PID.TID 0000.0001) // CMIN =          1.000000000000000E+32
(PID.TID 0000.0001) // CMAX =         -1.000000000000000E+32
(PID.TID 0000.0001) // CINT =          0.000000000000000E+00
(PID.TID 0000.0001) // SYMBOLS (CMIN->CMAX): -abcdefghijklmnopqrstuvwxyz+
(PID.TID 0000.0001) //                  0.0: .
(PID.TID 0000.0001) // RANGE I (Lo:Hi:Step):(  -1:   7:   1)
(PID.TID 0000.0001) // RANGE J (Lo:Hi:Step):(   7:  -1:  -1)
(PID.TID 0000.0001) // RANGE K (Lo:Hi:Step):(   1:   1:   1)
(PID.TID 0000.0001) // =======================================================
(PID.TID 0000.0001) // =======================================================
(PID.TID 0000.0001) // END OF FIELD                                          =
(PID.TID 0000.0001) // =======================================================
(PID.TID 0000.0001) 
(PID.TID 0000.0001) // =======================================================
(PID.TID 0000.0001) // Field hFacC at iteration          1
(PID.TID 0000.0001) // CMIN =          1.000000000000000E+00
(PID.TID 0000.0001) // CMAX =          1.000000000000000E+00
(PID.TID 0000.0001) // CINT =          0.000000000000000E+00
(PID.TID 0000.0001) // SYMBOLS (CMIN->CMAX): -abcdefghijklmnopqrstuvwxyz+
(PID.TID 0000.0001) //                  0.0: .
(PID.TID 0000.0001) // RANGE I (Lo:Hi:Step):(  -1:   7:   1)
(PID.TID 0000.0001) // RANGE J (Lo:Hi:Step):(   7:  -1:  -1)
(PID.TID 0000.0001) // RANGE K (Lo:Hi:Step):(   1:   1:   1)
(PID.TID 0000.0001) // =======================================================
(PID.TID 0000.0001) // =======================================================
(PID.TID 0000.0001) // END OF FIELD                                          =
(PID.TID 0000.0001) // =======================================================
(PID.TID 0000.0001) 
(PID.TID 0000.0001) // =======================================================
(PID.TID 0000.0001) // Field hFacW at iteration          1
(PID.TID 0000.0001) // CMIN =          1.000000000000000E+00
(PID.TID 0000.0001) // CMAX =          1.000000000000000E+00
(PID.TID 0000.0001) // CINT =          0.000000000000000E+00
(PID.TID 0000.0001) // SYMBOLS (CMIN->CMAX): -abcdefghijklmnopqrstuvwxyz+
(PID.TID 0000.0001) //                  0.0: .
(PID.TID 0000.0001) // RANGE I (Lo:Hi:Step):(  -1:   7:   1)
(PID.TID 0000.0001) // RANGE J (Lo:Hi:Step):(   7:  -1:  -1)
(PID.TID 0000.0001) // RANGE K (Lo:Hi:Step):(   1:   1:   1)
(PID.TID 0000.0001) // =======================================================
(PID.TID 0000.0001) // =======================================================
(PID.TID 0000.0001) // END OF FIELD                                          =
(PID.TID 0000.0001) // =======================================================
(PID.TID 0000.0001) 
(PID.TID 0000.0001) // =======================================================
(PID.TID 0000.0001) // Field hFacS at iteration          1
(PID.TID 0000.0001) // CMIN =          1.000000000000000E+00
(PID.TID 0000.0001) // CMAX =          1.000000000000000E+00
(PID.TID 0000.0001) // CINT =          0.000000000000000E+00
(PID.TID 0000.0001) // SYMBOLS (CMIN->CMAX): -abcdefghijklmnopqrstuvwxyz+
(PID.TID 0000.0001) //                  0.0: .
(PID.TID 0000.0001) // RANGE I (Lo:Hi:Step):(  -1:   7:   1)
(PID.TID 0000.0001) // RANGE J (Lo:Hi:Step):(   7:  -1:  -1)
(PID.TID 0000.0001) // RANGE K (Lo:Hi:Step):(   1:   1:   1)
(PID.TID 0000.0001) // =======================================================
(PID.TID 0000.0001) // =======================================================
(PID.TID 0000.0001) // END OF FIELD                                          =
(PID.TID 0000.0001) // =======================================================
(PID.TID 0000.0001) 
(PID.TID 0000.0001) // =======================================================
(PID.TID 0000.0001) // Field Initial Temperature at iteration          1
(PID.TID 0000.0001) // CMIN =          4.000000000000000E+00
(PID.TID 0000.0001) // CMAX =          4.000000000000000E+00
(PID.TID 0000.0001) // CINT =          0.000000000000000E+00
(PID.TID 0000.0001) // SYMBOLS (CMIN->CMAX): -abcdefghijklmnopqrstuvwxyz+
(PID.TID 0000.0001) //                  0.0: .
(PID.TID 0000.0001) // RANGE I (Lo:Hi:Step):(   1:   5:   1)
(PID.TID 0000.0001) // RANGE J (Lo:Hi:Step):(   5:   1:  -1)
(PID.TID 0000.0001) // RANGE K (Lo:Hi:Step):(   1:   1:   1)
(PID.TID 0000.0001) // =======================================================
(PID.TID 0000.0001) // =======================================================
(PID.TID 0000.0001) // END OF FIELD                                          =
(PID.TID 0000.0001) // =======================================================
(PID.TID 0000.0001) 
(PID.TID 0000.0001) // =======================================================
(PID.TID 0000.0001) // Field Initial Salinity at iteration          1
(PID.TID 0000.0001) // CMIN =          3.500000000000000E+01
(PID.TID 0000.0001) // CMAX =          3.500000000000000E+01
(PID.TID 0000.0001) // CINT =          0.000000000000000E+00
(PID.TID 0000.0001) // SYMBOLS (CMIN->CMAX): -abcdefghijklmnopqrstuvwxyz+
(PID.TID 0000.0001) //                  0.0: .
(PID.TID 0000.0001) // RANGE I (Lo:Hi:Step):(   1:   5:   1)
(PID.TID 0000.0001) // RANGE J (Lo:Hi:Step):(   5:   1:  -1)
(PID.TID 0000.0001) // RANGE K (Lo:Hi:Step):(   1:   1:   1)
(PID.TID 0000.0001) // =======================================================
(PID.TID 0000.0001) // =======================================================
(PID.TID 0000.0001) // END OF FIELD                                          =
(PID.TID 0000.0001) // =======================================================
(PID.TID 0000.0001) 
(PID.TID 0000.0001) Start initial hydrostatic pressure computation
(PID.TID 0000.0001) Pressure is predetermined for buoyancyRelation OCEANIC
(PID.TID 0000.0001) 
(PID.TID 0000.0001)  MDS_READ_FIELD: opening global file: windx.sin_y
(PID.TID 0000.0001) // =======================================================
(PID.TID 0000.0001) // Model current state
(PID.TID 0000.0001) // =======================================================
(PID.TID 0000.0001) 
 cg2d: Sum(rhs),rhsMax =   0.00000000000000E+00  0.00000000000000E+00
 cg2d: Sum(rhs),rhsMax =  -2.49999999999996E+01  6.03492218443698E-05
 cg2d: Sum(rhs),rhsMax =  -1.81034404639062E+01  2.18766023587219E-04
 cg2d: Sum(rhs),rhsMax =  -1.54955562833133E+01  4.32479836294696E-04
 cg2d: Sum(rhs),rhsMax =  -1.41111452337082E+01  6.49958988288384E-04
 cg2d: Sum(rhs),rhsMax =  -1.31144322328637E+01  8.30737102853660E-04
 cg2d: Sum(rhs),rhsMax =  -1.21209090306012E+01  9.52510662118515E-04
 cg2d: Sum(rhs),rhsMax =  -1.07124742295727E+01  1.02806631236796E-03
 cg2d: Sum(rhs),rhsMax =  -7.41375936285265E+00  1.27086596400291E-03
 cg2d: Sum(rhs),rhsMax =  -4.70217533103358E+00  1.51019014209689E-03
 cg2d: Sum(rhs),rhsMax =  -2.72440685659064E+00  1.65833738481153E-03
 cg2d: Sum(rhs),rhsMax =  -1.27958668897152E+00  1.70565509048938E-03
 cg2d: Sum(rhs),rhsMax =  -3.29564698841330E-01  1.66071960871648E-03
 cg2d: Sum(rhs),rhsMax =   5.21320403694931E-02  1.54812756426798E-03
 cg2d: Sum(rhs),rhsMax =  -2.86625374073622E-01  1.40338816335597E-03
 cg2d: Sum(rhs),rhsMax =  -1.30315843033844E+00  1.44268600056473E-03
 cg2d: Sum(rhs),rhsMax =  -2.68067689727271E+00  1.50836886934187E-03
 cg2d: Sum(rhs),rhsMax =  -4.07407452736042E+00  1.58424367126271E-03
 cg2d: Sum(rhs),rhsMax =  -5.18272347519705E+00  1.66593592975344E-03
 cg2d: Sum(rhs),rhsMax =  -5.80990598128082E+00  1.74846175352959E-03
 cg2d: Sum(rhs),rhsMax =  -5.87740627725267E+00  1.82725971066413E-03
 cg2d: Sum(rhs),rhsMax =  -5.41358311726152E+00  1.89900434442032E-03
 cg2d: Sum(rhs),rhsMax =  -4.53080677149125E+00  1.96213934208574E-03
 cg2d: Sum(rhs),rhsMax =  -3.22587899657522E+00  2.12611201928657E-03
 cg2d: Sum(rhs),rhsMax =  -2.04447212129968E+00  2.24837953059300E-03
 cg2d: Sum(rhs),rhsMax =  -1.10818137159059E+00  2.30404048462544E-03
 cg2d: Sum(rhs),rhsMax =  -4.90484876742637E-01  2.29576531706005E-03
 cg2d: Sum(rhs),rhsMax =  -2.61247058974437E-01  2.23814841441497E-03
 cg2d: Sum(rhs),rhsMax =  -4.50921963583017E-01  2.26266906417537E-03
 cg2d: Sum(rhs),rhsMax =  -1.00469610234987E+00  2.31946122464258E-03
 cg2d: Sum(rhs),rhsMax =  -1.78565331217949E+00  2.37599940939759E-03
 cg2d: Sum(rhs),rhsMax =  -2.62429308896678E+00  2.42805542674619E-03
 cg2d: Sum(rhs),rhsMax =  -3.35748487070818E+00  2.47123044177973E-03
 cg2d: Sum(rhs),rhsMax =  -3.85508918507632E+00  2.50195597337593E-03
 cg2d: Sum(rhs),rhsMax =  -4.03589979072993E+00  2.51830321393940E-03
 cg2d: Sum(rhs),rhsMax =  -3.87512849063083E+00  2.52047517803253E-03
 cg2d: Sum(rhs),rhsMax =  -3.40600369527360E+00  2.51092920341912E-03
 cg2d: Sum(rhs),rhsMax =  -2.61682442793746E+00  2.58874086690083E-03
 cg2d: Sum(rhs),rhsMax =  -1.83238711412627E+00  2.61669729270422E-03
 cg2d: Sum(rhs),rhsMax =  -1.17513337145908E+00  2.56005945465090E-03
 cg2d: Sum(rhs),rhsMax =  -7.11994610665852E-01  2.47855827693056E-03
 cg2d: Sum(rhs),rhsMax =  -5.26422140431505E-01  2.47042090753276E-03
 cg2d: Sum(rhs),rhsMax =  -6.78930205507455E-01  2.49676868489529E-03
 cg2d: Sum(rhs),rhsMax =  -1.12673721569876E+00  2.53652609565178E-03
 cg2d: Sum(rhs),rhsMax =  -1.75981625560280E+00  2.58504761901936E-03
 cg2d: Sum(rhs),rhsMax =  -2.43940636664768E+00  2.63568088237947E-03
 cg2d: Sum(rhs),rhsMax =  -3.03203010917185E+00  2.68092811706173E-03
 cg2d: Sum(rhs),rhsMax =  -3.40991308068811E+00  2.73286306138617E-03
 cg2d: Sum(rhs),rhsMax =  -3.48046019409487E+00  2.80943924656828E-03
 cg2d: Sum(rhs),rhsMax =  -3.32063069301228E+00  2.84054010991421E-03
 cg2d: Sum(rhs),rhsMax =  -2.96079443919669E+00  2.82589059970071E-03
 cg2d: Sum(rhs),rhsMax =  -2.32992810165236E+00  2.92147974336119E-03
 cg2d: Sum(rhs),rhsMax =  -1.72242454985295E+00  2.94384962473607E-03
 cg2d: Sum(rhs),rhsMax =  -1.21221902188878E+00  2.89157779433095E-03
 cg2d: Sum(rhs),rhsMax =  -8.69698377606490E-01  2.78046457021730E-03
 cg2d: Sum(rhs),rhsMax =  -7.64867786521727E-01  2.63730949605595E-03
 cg2d: Sum(rhs),rhsMax =  -9.31747819186048E-01  2.54529705250336E-03
 cg2d: Sum(rhs),rhsMax =  -1.31074335622328E+00  2.59464770520937E-03
 cg2d: Sum(rhs),rhsMax =  -1.82960839638069E+00  2.67470090194008E-03
 cg2d: Sum(rhs),rhsMax =  -2.36415405427742E+00  2.77096214255985E-03
 cg2d: Sum(rhs),rhsMax =  -2.80794775485133E+00  2.86583708202876E-03
 cg2d: Sum(rhs),rhsMax =  -3.09076533824893E+00  2.94225356312050E-03
 cg2d: Sum(rhs),rhsMax =  -3.17911019672837E+00  2.98708409185652E-03
 cg2d: Sum(rhs),rhsMax =  -3.06968976549905E+00  2.99369704052930E-03
 cg2d: Sum(rhs),rhsMax =  -2.74200029581116E+00  3.00868115470750E-03
 cg2d: Sum(rhs),rhsMax =  -2.22987017148953E+00  3.08320495985206E-03
 cg2d: Sum(rhs),rhsMax =  -1.72892382808336E+00  3.09216602096588E-03
 cg2d: Sum(rhs),rhsMax =  -1.30661124563655E+00  3.03707923735638E-03
 cg2d: Sum(rhs),rhsMax =  -1.02724585852069E+00  2.93201254418235E-03
 cg2d: Sum(rhs),rhsMax =  -9.49612064186158E-01  2.80059568234967E-03
 cg2d: Sum(rhs),rhsMax =  -1.10546678390976E+00  2.68802014281036E-03
 cg2d: Sum(rhs),rhsMax =  -1.41911842525253E+00  2.73183506300661E-03
 cg2d: Sum(rhs),rhsMax =  -1.85263648764573E+00  2.80075126498485E-03
 cg2d: Sum(rhs),rhsMax =  -2.30607101509456E+00  2.88121986861966E-03
 cg2d: Sum(rhs),rhsMax =  -2.69038329097545E+00  2.95745901145162E-03
 cg2d: Sum(rhs),rhsMax =  -2.94313280973661E+00  3.01465312201833E-03
 cg2d: Sum(rhs),rhsMax =  -3.03123919780183E+00  3.04190028426763E-03
 cg2d: Sum(rhs),rhsMax =  -2.94785318150274E+00  3.03433142686188E-03
 cg2d: Sum(rhs),rhsMax =  -2.61356653859710E+00  3.10365978065187E-03
 cg2d: Sum(rhs),rhsMax =  -2.18161315830114E+00  3.16115505036277E-03
 cg2d: Sum(rhs),rhsMax =  -1.75526121953414E+00  3.15966313565018E-03
 cg2d: Sum(rhs),rhsMax =  -1.39603741324611E+00  3.10114912390001E-03
 cg2d: Sum(rhs),rhsMax =  -1.16177137752920E+00  2.99876545710941E-03
 cg2d: Sum(rhs),rhsMax =  -1.10293744709812E+00  2.87411083584286E-03
 cg2d: Sum(rhs),rhsMax =  -1.24975131563448E+00  2.75286354904899E-03
 cg2d: Sum(rhs),rhsMax =  -1.53840865484803E+00  2.75098218463010E-03
 cg2d: Sum(rhs),rhsMax =  -1.91301868942665E+00  2.81271670995212E-03
 cg2d: Sum(rhs),rhsMax =  -2.30705937146309E+00  2.88449383071328E-03
 cg2d: Sum(rhs),rhsMax =  -2.64297550030451E+00  2.95188727503880E-03
 cg2d: Sum(rhs),rhsMax =  -2.86495126396391E+00  3.00154120575360E-03
 cg2d: Sum(rhs),rhsMax =  -2.94238805649654E+00  3.02377928167497E-03
 cg2d: Sum(rhs),rhsMax =  -2.84207310445556E+00  3.04217207804709E-03
 cg2d: Sum(rhs),rhsMax =  -2.51902173055751E+00  3.13830806261485E-03
 cg2d: Sum(rhs),rhsMax =  -2.14123727450782E+00  3.18959324918293E-03
 cg2d: Sum(rhs),rhsMax =  -1.76835916168163E+00  3.18714934026737E-03
 cg2d: Sum(rhs),rhsMax =  -1.45590346750253E+00  3.13272231086979E-03
 cg2d: Sum(rhs),rhsMax =  -1.25508067810501E+00  3.03818419345470E-03
 cg2d: Sum(rhs),rhsMax =  -1.20874900731109E+00  2.92305994331555E-03
 cg2d: Sum(rhs),rhsMax =  -1.34034307247268E+00  2.81059308752101E-03
 cg2d: Sum(rhs),rhsMax =  -1.62624326932903E+00  2.74190575070376E-03
(PID.TID 0000.0001) %CHECKPOINT       100 ckptA
 --> objf_test(bi,bj)   =  0.509071986407278E-01
 --> objf_tracer(bi,bj) =  0.000000000000000E+00
 --> objf_atl(bi,bj)    =  0.000000000000000E+00
  local fc =  0.509071986407278E-01
 global fc =  0.509071986407278E-01
 ph-check fcpertplus =   0.0509071986
(PID.TID 0000.0001)  MDS_READ_FIELD: opening file: xx_depth.0000000000.001.001.data
 ph-check fcpertminus =   0.0509071982
(PID.TID 0000.0001)  MDS_READ_FIELD: opening file: xx_depth.0000000000.001.001.data
(PID.TID 0000.0001)  MDS_READ_FIELD: opening global file: noWalls.bigRidge
(PID.TID 0000.0001) // =======================================================
(PID.TID 0000.0001) // Field Model R_low (ini_masks_etc) at iteration          1
(PID.TID 0000.0001) // CMIN =         -5.000000000000000E+03
(PID.TID 0000.0001) // CMAX =         -2.000000000000000E+03
(PID.TID 0000.0001) // CINT =          1.111111111111111E+02
(PID.TID 0000.0001) // SYMBOLS (CMIN->CMAX): -abcdefghijklmnopqrstuvwxyz+
(PID.TID 0000.0001) //                  0.0: .
(PID.TID 0000.0001) // RANGE I (Lo:Hi:Step):(  -1:   7:   1)
(PID.TID 0000.0001) // RANGE J (Lo:Hi:Step):(   7:  -1:  -1)
(PID.TID 0000.0001) // RANGE K (Lo:Hi:Step):(   1:   1:   1)
(PID.TID 0000.0001) // =======================================================
(PID.TID 0000.0001) K =   1
(PID.TID 0000.0001) //
(PID.TID 0000.0001) // |--J--|101234567
(PID.TID 0000.0001) //      7 ----+----
(PID.TID 0000.0001) //      6 ----+----
(PID.TID 0000.0001) //      5 ----+----
(PID.TID 0000.0001) //      4 ----+----
(PID.TID 0000.0001) //      3 ----+----
(PID.TID 0000.0001) //      2 ----+----
(PID.TID 0000.0001) //      1 ----+----
(PID.TID 0000.0001) //      0 ----+----
(PID.TID 0000.0001) //     -1 ----+----
(PID.TID 0000.0001) // =======================================================
(PID.TID 0000.0001) // END OF FIELD                                          =
(PID.TID 0000.0001) // =======================================================
(PID.TID 0000.0001) 
(PID.TID 0000.0001) // =======================================================
(PID.TID 0000.0001) // Field Model Ro_surf (ini_masks_etc) at iteration          1
(PID.TID 0000.0001) // CMIN =          1.000000000000000E+32
(PID.TID 0000.0001) // CMAX =         -1.000000000000000E+32
(PID.TID 0000.0001) // CINT =          0.000000000000000E+00
(PID.TID 0000.0001) // SYMBOLS (CMIN->CMAX): -abcdefghijklmnopqrstuvwxyz+
(PID.TID 0000.0001) //                  0.0: .
(PID.TID 0000.0001) // RANGE I (Lo:Hi:Step):(  -1:   7:   1)
(PID.TID 0000.0001) // RANGE J (Lo:Hi:Step):(   7:  -1:  -1)
(PID.TID 0000.0001) // RANGE K (Lo:Hi:Step):(   1:   1:   1)
(PID.TID 0000.0001) // =======================================================
(PID.TID 0000.0001) // =======================================================
(PID.TID 0000.0001) // END OF FIELD                                          =
(PID.TID 0000.0001) // =======================================================
(PID.TID 0000.0001) 
(PID.TID 0000.0001) // =======================================================
(PID.TID 0000.0001) // Field hFacC at iteration          1
(PID.TID 0000.0001) // CMIN =          1.000000000000000E+00
(PID.TID 0000.0001) // CMAX =          1.000000000000000E+00
(PID.TID 0000.0001) // CINT =          0.000000000000000E+00
(PID.TID 0000.0001) // SYMBOLS (CMIN->CMAX): -abcdefghijklmnopqrstuvwxyz+
(PID.TID 0000.0001) //                  0.0: .
(PID.TID 0000.0001) // RANGE I (Lo:Hi:Step):(  -1:   7:   1)
(PID.TID 0000.0001) // RANGE J (Lo:Hi:Step):(   7:  -1:  -1)
(PID.TID 0000.0001) // RANGE K (Lo:Hi:Step):(   1:   1:   1)
(PID.TID 0000.0001) // =======================================================
(PID.TID 0000.0001) // =======================================================
(PID.TID 0000.0001) // END OF FIELD                                          =
(PID.TID 0000.0001) // =======================================================
(PID.TID 0000.0001) 
(PID.TID 0000.0001) // =======================================================
(PID.TID 0000.0001) // Field hFacW at iteration          1
(PID.TID 0000.0001) // CMIN =          1.000000000000000E+00
(PID.TID 0000.0001) // CMAX =          1.000000000000000E+00
(PID.TID 0000.0001) // CINT =          0.000000000000000E+00
(PID.TID 0000.0001) // SYMBOLS (CMIN->CMAX): -abcdefghijklmnopqrstuvwxyz+
(PID.TID 0000.0001) //                  0.0: .
(PID.TID 0000.0001) // RANGE I (Lo:Hi:Step):(  -1:   7:   1)
(PID.TID 0000.0001) // RANGE J (Lo:Hi:Step):(   7:  -1:  -1)
(PID.TID 0000.0001) // RANGE K (Lo:Hi:Step):(   1:   1:   1)
(PID.TID 0000.0001) // =======================================================
(PID.TID 0000.0001) // =======================================================
(PID.TID 0000.0001) // END OF FIELD                                          =
(PID.TID 0000.0001) // =======================================================
(PID.TID 0000.0001) 
(PID.TID 0000.0001) // =======================================================
(PID.TID 0000.0001) // Field hFacS at iteration          1
(PID.TID 0000.0001) // CMIN =          1.000000000000000E+00
(PID.TID 0000.0001) // CMAX =          1.000000000000000E+00
(PID.TID 0000.0001) // CINT =          0.000000000000000E+00
(PID.TID 0000.0001) // SYMBOLS (CMIN->CMAX): -abcdefghijklmnopqrstuvwxyz+
(PID.TID 0000.0001) //                  0.0: .
(PID.TID 0000.0001) // RANGE I (Lo:Hi:Step):(  -1:   7:   1)
(PID.TID 0000.0001) // RANGE J (Lo:Hi:Step):(   7:  -1:  -1)
(PID.TID 0000.0001) // RANGE K (Lo:Hi:Step):(   1:   1:   1)
(PID.TID 0000.0001) // =======================================================
(PID.TID 0000.0001) // =======================================================
(PID.TID 0000.0001) // END OF FIELD                                          =
(PID.TID 0000.0001) // =======================================================
(PID.TID 0000.0001) 
(PID.TID 0000.0001) %MON surfExpanfCori_max           =  -1.0735540000000E-04
(PID.TID 0000.0001) %MON surfExpanfCori_min           =  -1.1783060000000E-04
(PID.TID 0000.0001) %MON surfExpanfCori_mean          =  -1.1259300000000E-04
(PID.TID 0000.0001) %MON surfExpanfCori_sd            =   3.7035424771427E-06
(PID.TID 0000.0001) %MON surfExpanfCoriG_max          =  -1.0866480000000E-04
(PID.TID 0000.0001) %MON surfExpanfCoriG_min          =  -1.1914000000000E-04
(PID.TID 0000.0001) %MON surfExpanfCoriG_mean         =  -1.1390240000000E-04
(PID.TID 0000.0001) %MON surfExpanfCoriG_sd           =   3.7035424771427E-06
(PID.TID 0000.0001) %MON surfExpanfCoriCos_max        =   0.0000000000000E+00
(PID.TID 0000.0001) %MON surfExpanfCoriCos_min        =   0.0000000000000E+00
(PID.TID 0000.0001) %MON surfExpanfCoriCos_mean       =   0.0000000000000E+00
(PID.TID 0000.0001) %MON surfExpanfCoriCos_sd         =   0.0000000000000E+00
(PID.TID 0000.0001) INI_CG2D: CG2D normalisation factor =  1.9999999999999996E-04
(PID.TID 0000.0001) 
                     ctrl_depth_ini: ctrl update R_low,
                                     adding the control vector.
(PID.TID 0000.0001)  MDS_READ_FIELD: opening file: xx_depth.0000000000.001.001.data
(PID.TID 0000.0001) // =======================================================
(PID.TID 0000.0001) // Field Model Ro_surf (update_masks_etc) at iteration          1
(PID.TID 0000.0001) // CMIN =          1.000000000000000E+32
(PID.TID 0000.0001) // CMAX =         -1.000000000000000E+32
(PID.TID 0000.0001) // CINT =          0.000000000000000E+00
(PID.TID 0000.0001) // SYMBOLS (CMIN->CMAX): -abcdefghijklmnopqrstuvwxyz+
(PID.TID 0000.0001) //                  0.0: .
(PID.TID 0000.0001) // RANGE I (Lo:Hi:Step):(  -1:   7:   1)
(PID.TID 0000.0001) // RANGE J (Lo:Hi:Step):(   7:  -1:  -1)
(PID.TID 0000.0001) // RANGE K (Lo:Hi:Step):(   1:   1:   1)
(PID.TID 0000.0001) // =======================================================
(PID.TID 0000.0001) // =======================================================
(PID.TID 0000.0001) // END OF FIELD                                          =
(PID.TID 0000.0001) // =======================================================
(PID.TID 0000.0001) 
(PID.TID 0000.0001) // =======================================================
(PID.TID 0000.0001) // Field hFacC at iteration          1
(PID.TID 0000.0001) // CMIN =          1.000000000000000E+00
(PID.TID 0000.0001) // CMAX =          1.000000000000000E+00
(PID.TID 0000.0001) // CINT =          0.000000000000000E+00
(PID.TID 0000.0001) // SYMBOLS (CMIN->CMAX): -abcdefghijklmnopqrstuvwxyz+
(PID.TID 0000.0001) //                  0.0: .
(PID.TID 0000.0001) // RANGE I (Lo:Hi:Step):(  -1:   7:   1)
(PID.TID 0000.0001) // RANGE J (Lo:Hi:Step):(   7:  -1:  -1)
(PID.TID 0000.0001) // RANGE K (Lo:Hi:Step):(   1:   1:   1)
(PID.TID 0000.0001) // =======================================================
(PID.TID 0000.0001) // =======================================================
(PID.TID 0000.0001) // END OF FIELD                                          =
(PID.TID 0000.0001) // =======================================================
(PID.TID 0000.0001) 
(PID.TID 0000.0001) // =======================================================
(PID.TID 0000.0001) // Field hFacW at iteration          1
(PID.TID 0000.0001) // CMIN =          1.000000000000000E+00
(PID.TID 0000.0001) // CMAX =          1.000000000000000E+00
(PID.TID 0000.0001) // CINT =          0.000000000000000E+00
(PID.TID 0000.0001) // SYMBOLS (CMIN->CMAX): -abcdefghijklmnopqrstuvwxyz+
(PID.TID 0000.0001) //                  0.0: .
(PID.TID 0000.0001) // RANGE I (Lo:Hi:Step):(  -1:   7:   1)
(PID.TID 0000.0001) // RANGE J (Lo:Hi:Step):(   7:  -1:  -1)
(PID.TID 0000.0001) // RANGE K (Lo:Hi:Step):(   1:   1:   1)
(PID.TID 0000.0001) // =======================================================
(PID.TID 0000.0001) // =======================================================
(PID.TID 0000.0001) // END OF FIELD                                          =
(PID.TID 0000.0001) // =======================================================
(PID.TID 0000.0001) 
(PID.TID 0000.0001) // =======================================================
(PID.TID 0000.0001) // Field hFacS at iteration          1
(PID.TID 0000.0001) // CMIN =          1.000000000000000E+00
(PID.TID 0000.0001) // CMAX =          1.000000000000000E+00
(PID.TID 0000.0001) // CINT =          0.000000000000000E+00
(PID.TID 0000.0001) // SYMBOLS (CMIN->CMAX): -abcdefghijklmnopqrstuvwxyz+
(PID.TID 0000.0001) //                  0.0: .
(PID.TID 0000.0001) // RANGE I (Lo:Hi:Step):(  -1:   7:   1)
(PID.TID 0000.0001) // RANGE J (Lo:Hi:Step):(   7:  -1:  -1)
(PID.TID 0000.0001) // RANGE K (Lo:Hi:Step):(   1:   1:   1)
(PID.TID 0000.0001) // =======================================================
(PID.TID 0000.0001) // =======================================================
(PID.TID 0000.0001) // END OF FIELD                                          =
(PID.TID 0000.0001) // =======================================================
(PID.TID 0000.0001) 
(PID.TID 0000.0001) // =======================================================
(PID.TID 0000.0001) // Field Initial Temperature at iteration          1
(PID.TID 0000.0001) // CMIN =          4.000000000000000E+00
(PID.TID 0000.0001) // CMAX =          4.000000000000000E+00
(PID.TID 0000.0001) // CINT =          0.000000000000000E+00
(PID.TID 0000.0001) // SYMBOLS (CMIN->CMAX): -abcdefghijklmnopqrstuvwxyz+
(PID.TID 0000.0001) //                  0.0: .
(PID.TID 0000.0001) // RANGE I (Lo:Hi:Step):(   1:   5:   1)
(PID.TID 0000.0001) // RANGE J (Lo:Hi:Step):(   5:   1:  -1)
(PID.TID 0000.0001) // RANGE K (Lo:Hi:Step):(   1:   1:   1)
(PID.TID 0000.0001) // =======================================================
(PID.TID 0000.0001) // =======================================================
(PID.TID 0000.0001) // END OF FIELD                                          =
(PID.TID 0000.0001) // =======================================================
(PID.TID 0000.0001) 
(PID.TID 0000.0001) // =======================================================
(PID.TID 0000.0001) // Field Initial Salinity at iteration          1
(PID.TID 0000.0001) // CMIN =          3.500000000000000E+01
(PID.TID 0000.0001) // CMAX =          3.500000000000000E+01
(PID.TID 0000.0001) // CINT =          0.000000000000000E+00
(PID.TID 0000.0001) // SYMBOLS (CMIN->CMAX): -abcdefghijklmnopqrstuvwxyz+
(PID.TID 0000.0001) //                  0.0: .
(PID.TID 0000.0001) // RANGE I (Lo:Hi:Step):(   1:   5:   1)
(PID.TID 0000.0001) // RANGE J (Lo:Hi:Step):(   5:   1:  -1)
(PID.TID 0000.0001) // RANGE K (Lo:Hi:Step):(   1:   1:   1)
(PID.TID 0000.0001) // =======================================================
(PID.TID 0000.0001) // =======================================================
(PID.TID 0000.0001) // END OF FIELD                                          =
(PID.TID 0000.0001) // =======================================================
(PID.TID 0000.0001) 
(PID.TID 0000.0001) Start initial hydrostatic pressure computation
(PID.TID 0000.0001) Pressure is predetermined for buoyancyRelation OCEANIC
(PID.TID 0000.0001) 
(PID.TID 0000.0001)  MDS_READ_FIELD: opening global file: windx.sin_y
(PID.TID 0000.0001) // =======================================================
(PID.TID 0000.0001) // Model current state
(PID.TID 0000.0001) // =======================================================
(PID.TID 0000.0001) 
 cg2d: Sum(rhs),rhsMax =   0.00000000000000E+00  0.00000000000000E+00
 cg2d: Sum(rhs),rhsMax =  -2.49999999999996E+01  6.03492218443698E-05
 cg2d: Sum(rhs),rhsMax =  -1.81034404639062E+01  2.18766023587219E-04
 cg2d: Sum(rhs),rhsMax =  -1.54955562831164E+01  4.32479836300190E-04
 cg2d: Sum(rhs),rhsMax =  -1.41111452321911E+01  6.49958988358439E-04
 cg2d: Sum(rhs),rhsMax =  -1.31144322336587E+01  8.30737102803124E-04
 cg2d: Sum(rhs),rhsMax =  -1.21209090344760E+01  9.52510661812093E-04
 cg2d: Sum(rhs),rhsMax =  -1.07124742448411E+01  1.02806631089617E-03
 cg2d: Sum(rhs),rhsMax =  -7.41375937046141E+00  1.27086596267853E-03
 cg2d: Sum(rhs),rhsMax =  -4.70217533807460E+00  1.51019013977925E-03
 cg2d: Sum(rhs),rhsMax =  -2.72440686196774E+00  1.65833738138868E-03
 cg2d: Sum(rhs),rhsMax =  -1.27958669197455E+00  1.70565508605330E-03
 cg2d: Sum(rhs),rhsMax =  -3.29564699463684E-01  1.66071960359131E-03
 cg2d: Sum(rhs),rhsMax =   5.21320409614231E-02  1.54812755900465E-03
 cg2d: Sum(rhs),rhsMax =  -2.86625374727366E-01  1.40338815867513E-03
 cg2d: Sum(rhs),rhsMax =  -1.30315843706517E+00  1.44268599319262E-03
 cg2d: Sum(rhs),rhsMax =  -2.68067690871573E+00  1.50836886328322E-03
 cg2d: Sum(rhs),rhsMax =  -4.07407453967039E+00  1.58424366706866E-03
 cg2d: Sum(rhs),rhsMax =  -5.18272348378150E+00  1.66593592782818E-03
 cg2d: Sum(rhs),rhsMax =  -5.80990598328063E+00  1.74846175408595E-03
 cg2d: Sum(rhs),rhsMax =  -5.87740627269845E+00  1.82725971370704E-03
 cg2d: Sum(rhs),rhsMax =  -5.41358310872419E+00  1.89900434976123E-03
 cg2d: Sum(rhs),rhsMax =  -4.53080676277973E+00  1.96213934938609E-03
 cg2d: Sum(rhs),rhsMax =  -3.22587898159445E+00  2.12611203512260E-03
 cg2d: Sum(rhs),rhsMax =  -2.04447211636501E+00  2.24837954692474E-03
 cg2d: Sum(rhs),rhsMax =  -1.10818137452784E+00  2.30404050112413E-03
 cg2d: Sum(rhs),rhsMax =  -4.90484885149971E-01  2.29576533369388E-03
 cg2d: Sum(rhs),rhsMax =  -2.61247070192450E-01  2.23814843146419E-03
 cg2d: Sum(rhs),rhsMax =  -4.50921975060049E-01  2.26266907639484E-03
 cg2d: Sum(rhs),rhsMax =  -1.00469611109077E+00  2.31946123770515E-03
 cg2d: Sum(rhs),rhsMax =  -1.78565331639558E+00  2.37599942369013E-03
 cg2d: Sum(rhs),rhsMax =  -2.62429308741633E+00  2.42805544270363E-03
 cg2d: Sum(rhs),rhsMax =  -3.35748486290854E+00  2.47123045981518E-03
 cg2d: Sum(rhs),rhsMax =  -3.85508917161215E+00  2.50195599381640E-03
 cg2d: Sum(rhs),rhsMax =  -4.03589977349599E+00  2.51830323697792E-03
 cg2d: Sum(rhs),rhsMax =  -3.87512847280004E+00  2.52047520370407E-03
 cg2d: Sum(rhs),rhsMax =  -3.40600368083836E+00  2.51092923160336E-03
 cg2d: Sum(rhs),rhsMax =  -2.61682443833233E+00  2.58874088142772E-03
 cg2d: Sum(rhs),rhsMax =  -1.83238712988504E+00  2.61669730827335E-03
 cg2d: Sum(rhs),rhsMax =  -1.17513339273895E+00  2.56005947128283E-03
 cg2d: Sum(rhs),rhsMax =  -7.11994627324859E-01  2.47855832784602E-03
 cg2d: Sum(rhs),rhsMax =  -5.26422165207296E-01  2.47042094378507E-03
 cg2d: Sum(rhs),rhsMax =  -6.78930228401374E-01  2.49676872202349E-03
 cg2d: Sum(rhs),rhsMax =  -1.12673723194385E+00  2.53652613362197E-03
 cg2d: Sum(rhs),rhsMax =  -1.75981626219202E+00  2.58504765789080E-03
 cg2d: Sum(rhs),rhsMax =  -2.43940636274559E+00  2.63568092227295E-03
 cg2d: Sum(rhs),rhsMax =  -3.03203009594741E+00  2.68092815811880E-03
 cg2d: Sum(rhs),rhsMax =  -3.40991315638976E+00  2.73286302758342E-03
 cg2d: Sum(rhs),rhsMax =  -3.48046027062137E+00  2.80943921204316E-03
 cg2d: Sum(rhs),rhsMax =  -3.32063076874706E+00  2.84054007481684E-03
 cg2d: Sum(rhs),rhsMax =  -2.96079451277038E+00  2.82589056414642E-03
 cg2d: Sum(rhs),rhsMax =  -2.32992812045053E+00  2.92147976558762E-03
 cg2d: Sum(rhs),rhsMax =  -1.72242457406433E+00  2.94384964747017E-03
 cg2d: Sum(rhs),rhsMax =  -1.21221905140614E+00  2.89157781757325E-03
 cg2d: Sum(rhs),rhsMax =  -8.69698411838372E-01  2.78046459390521E-03
 cg2d: Sum(rhs),rhsMax =  -7.64867823970606E-01  2.63730952006692E-03
 cg2d: Sum(rhs),rhsMax =  -9.31747879654058E-01  2.54529701358847E-03
 cg2d: Sum(rhs),rhsMax =  -1.31074342160792E+00  2.59464766546819E-03
 cg2d: Sum(rhs),rhsMax =  -1.82960846792002E+00  2.67470086139605E-03
 cg2d: Sum(rhs),rhsMax =  -2.36415413163857E+00  2.77096210129673E-03
 cg2d: Sum(rhs),rhsMax =  -2.80794783661824E+00  2.86583704017346E-03
 cg2d: Sum(rhs),rhsMax =  -3.09076542257387E+00  2.94225352081475E-03
 cg2d: Sum(rhs),rhsMax =  -3.17911028177885E+00  2.98708404922361E-03
 cg2d: Sum(rhs),rhsMax =  -3.06968984963444E+00  2.99369699764329E-03
 cg2d: Sum(rhs),rhsMax =  -2.74200031695642E+00  3.00868117609303E-03
 cg2d: Sum(rhs),rhsMax =  -2.22987019652995E+00  3.08320498096707E-03
 cg2d: Sum(rhs),rhsMax =  -1.72892385715151E+00  3.09216604183759E-03
 cg2d: Sum(rhs),rhsMax =  -1.30661127858659E+00  3.03707925795679E-03
 cg2d: Sum(rhs),rhsMax =  -1.02724589479106E+00  2.93201256442178E-03
 cg2d: Sum(rhs),rhsMax =  -9.49612102608746E-01  2.80059570208319E-03
 cg2d: Sum(rhs),rhsMax =  -1.10546684986450E+00  2.68802009524855E-03
 cg2d: Sum(rhs),rhsMax =  -1.41911849538154E+00  2.73183501430285E-03
 cg2d: Sum(rhs),rhsMax =  -1.85263656339717E+00  2.80075121520730E-03
 cg2d: Sum(rhs),rhsMax =  -2.30607109646014E+00  2.88121981791421E-03
 cg2d: Sum(rhs),rhsMax =  -2.69038337680982E+00  2.95745896001432E-03
 cg2d: Sum(rhs),rhsMax =  -2.94313289829494E+00  3.01465307005749E-03
 cg2d: Sum(rhs),rhsMax =  -3.03123928717003E+00  3.04190023196303E-03
 cg2d: Sum(rhs),rhsMax =  -2.94785326982234E+00  3.03433137432886E-03
 cg2d: Sum(rhs),rhsMax =  -2.61356656666451E+00  3.10365979066651E-03
 cg2d: Sum(rhs),rhsMax =  -2.18161318792506E+00  3.16115505942605E-03
 cg2d: Sum(rhs),rhsMax =  -1.75526125082232E+00  3.15966314379457E-03
 cg2d: Sum(rhs),rhsMax =  -1.39603744617767E+00  3.10114913109537E-03
 cg2d: Sum(rhs),rhsMax =  -1.16177141191211E+00  2.99876546325876E-03
 cg2d: Sum(rhs),rhsMax =  -1.10293748254605E+00  2.87411084079214E-03
 cg2d: Sum(rhs),rhsMax =  -1.24975135163587E+00  2.75286355260864E-03
 cg2d: Sum(rhs),rhsMax =  -1.53840872356352E+00  2.75098212621141E-03
 cg2d: Sum(rhs),rhsMax =  -1.91301876360308E+00  2.81271665030316E-03
 cg2d: Sum(rhs),rhsMax =  -2.30705945128036E+00  2.88449376994676E-03
 cg2d: Sum(rhs),rhsMax =  -2.64297558470881E+00  2.95188721332446E-03
 cg2d: Sum(rhs),rhsMax =  -2.86495135116297E+00  3.00154114328291E-03
 cg2d: Sum(rhs),rhsMax =  -2.94238814438805E+00  3.02377921862265E-03
 cg2d: Sum(rhs),rhsMax =  -2.84207313861445E+00  3.04217206906086E-03
 cg2d: Sum(rhs),rhsMax =  -2.51902176351995E+00  3.13830805207599E-03
 cg2d: Sum(rhs),rhsMax =  -2.14123730619809E+00  3.18959323720598E-03
 cg2d: Sum(rhs),rhsMax =  -1.76835919217734E+00  3.18714932691761E-03
 cg2d: Sum(rhs),rhsMax =  -1.45590349701518E+00  3.13272229614596E-03
 cg2d: Sum(rhs),rhsMax =  -1.25508070700484E+00  3.03818417728539E-03
 cg2d: Sum(rhs),rhsMax =  -1.20874903620556E+00  2.92305992556969E-03
 cg2d: Sum(rhs),rhsMax =  -1.34034310227949E+00  2.81059306803082E-03
 cg2d: Sum(rhs),rhsMax =  -1.62624332958620E+00  2.74190568091132E-03
(PID.TID 0000.0001) %CHECKPOINT       100 ckptB
 --> objf_test(bi,bj)   =  0.509071977715752E-01
 --> objf_tracer(bi,bj) =  0.000000000000000E+00
 --> objf_atl(bi,bj)    =  0.000000000000000E+00
  local fc =  0.509071977715752E-01
 global fc =  0.509071977715752E-01
(PID.TID 0000.0001)  MDS_READ_FIELD: opening file: xx_depth.0000000000.001.001.data
grad-res -------------------------------
 grad-res     0    8    3    2    1    1    1    1   0.509071982062E-01 0.509071986407E-01 0.509071977716E-01
 grad-res     0    8    8    8   25    1    1    1   0.434611527906E-05 0.434576277741E-05 0.811072937297E-04
(PID.TID 0000.0001)   ADM  precision_derivative_cost =    5.09071982061515E-02
(PID.TID 0000.0001)   ADM  precision_derivative_grad =    4.34611527906202E-06
 ph-grd  ierr ---------------------------
 ph-grd  ierr =  0, icomp =  8, ichknum =  8
 ph-grd -->hit<--  4 2 1 1
(PID.TID 0000.0001)  MDS_READ_FIELD: opening file: adxx_depth.0000000000.001.001.data
(PID.TID 0000.0001)  MDS_READ_FIELD: opening file: xx_depth.0000000000.001.001.data
(PID.TID 0000.0001)  MDS_READ_FIELD: opening global file: noWalls.bigRidge
(PID.TID 0000.0001) // =======================================================
(PID.TID 0000.0001) // Field Model R_low (ini_masks_etc) at iteration          1
(PID.TID 0000.0001) // CMIN =         -5.000000000000000E+03
(PID.TID 0000.0001) // CMAX =         -2.000000000000000E+03
(PID.TID 0000.0001) // CINT =          1.111111111111111E+02
(PID.TID 0000.0001) // SYMBOLS (CMIN->CMAX): -abcdefghijklmnopqrstuvwxyz+
(PID.TID 0000.0001) //                  0.0: .
(PID.TID 0000.0001) // RANGE I (Lo:Hi:Step):(  -1:   7:   1)
(PID.TID 0000.0001) // RANGE J (Lo:Hi:Step):(   7:  -1:  -1)
(PID.TID 0000.0001) // RANGE K (Lo:Hi:Step):(   1:   1:   1)
(PID.TID 0000.0001) // =======================================================
(PID.TID 0000.0001) K =   1
(PID.TID 0000.0001) //
(PID.TID 0000.0001) // |--J--|101234567
(PID.TID 0000.0001) //      7 ----+----
(PID.TID 0000.0001) //      6 ----+----
(PID.TID 0000.0001) //      5 ----+----
(PID.TID 0000.0001) //      4 ----+----
(PID.TID 0000.0001) //      3 ----+----
(PID.TID 0000.0001) //      2 ----+----
(PID.TID 0000.0001) //      1 ----+----
(PID.TID 0000.0001) //      0 ----+----
(PID.TID 0000.0001) //     -1 ----+----
(PID.TID 0000.0001) // =======================================================
(PID.TID 0000.0001) // END OF FIELD                                          =
(PID.TID 0000.0001) // =======================================================
(PID.TID 0000.0001) 
(PID.TID 0000.0001) // =======================================================
(PID.TID 0000.0001) // Field Model Ro_surf (ini_masks_etc) at iteration          1
(PID.TID 0000.0001) // CMIN =          1.000000000000000E+32
(PID.TID 0000.0001) // CMAX =         -1.000000000000000E+32
(PID.TID 0000.0001) // CINT =          0.000000000000000E+00
(PID.TID 0000.0001) // SYMBOLS (CMIN->CMAX): -abcdefghijklmnopqrstuvwxyz+
(PID.TID 0000.0001) //                  0.0: .
(PID.TID 0000.0001) // RANGE I (Lo:Hi:Step):(  -1:   7:   1)
(PID.TID 0000.0001) // RANGE J (Lo:Hi:Step):(   7:  -1:  -1)
(PID.TID 0000.0001) // RANGE K (Lo:Hi:Step):(   1:   1:   1)
(PID.TID 0000.0001) // =======================================================
(PID.TID 0000.0001) // =======================================================
(PID.TID 0000.0001) // END OF FIELD                                          =
(PID.TID 0000.0001) // =======================================================
(PID.TID 0000.0001) 
(PID.TID 0000.0001) // =======================================================
(PID.TID 0000.0001) // Field hFacC at iteration          1
(PID.TID 0000.0001) // CMIN =          1.000000000000000E+00
(PID.TID 0000.0001) // CMAX =          1.000000000000000E+00
(PID.TID 0000.0001) // CINT =          0.000000000000000E+00
(PID.TID 0000.0001) // SYMBOLS (CMIN->CMAX): -abcdefghijklmnopqrstuvwxyz+
(PID.TID 0000.0001) //                  0.0: .
(PID.TID 0000.0001) // RANGE I (Lo:Hi:Step):(  -1:   7:   1)
(PID.TID 0000.0001) // RANGE J (Lo:Hi:Step):(   7:  -1:  -1)
(PID.TID 0000.0001) // RANGE K (Lo:Hi:Step):(   1:   1:   1)
(PID.TID 0000.0001) // =======================================================
(PID.TID 0000.0001) // =======================================================
(PID.TID 0000.0001) // END OF FIELD                                          =
(PID.TID 0000.0001) // =======================================================
(PID.TID 0000.0001) 
(PID.TID 0000.0001) // =======================================================
(PID.TID 0000.0001) // Field hFacW at iteration          1
(PID.TID 0000.0001) // CMIN =          1.000000000000000E+00
(PID.TID 0000.0001) // CMAX =          1.000000000000000E+00
(PID.TID 0000.0001) // CINT =          0.000000000000000E+00
(PID.TID 0000.0001) // SYMBOLS (CMIN->CMAX): -abcdefghijklmnopqrstuvwxyz+
(PID.TID 0000.0001) //                  0.0: .
(PID.TID 0000.0001) // RANGE I (Lo:Hi:Step):(  -1:   7:   1)
(PID.TID 0000.0001) // RANGE J (Lo:Hi:Step):(   7:  -1:  -1)
(PID.TID 0000.0001) // RANGE K (Lo:Hi:Step):(   1:   1:   1)
(PID.TID 0000.0001) // =======================================================
(PID.TID 0000.0001) // =======================================================
(PID.TID 0000.0001) // END OF FIELD                                          =
(PID.TID 0000.0001) // =======================================================
(PID.TID 0000.0001) 
(PID.TID 0000.0001) // =======================================================
(PID.TID 0000.0001) // Field hFacS at iteration          1
(PID.TID 0000.0001) // CMIN =          1.000000000000000E+00
(PID.TID 0000.0001) // CMAX =          1.000000000000000E+00
(PID.TID 0000.0001) // CINT =          0.000000000000000E+00
(PID.TID 0000.0001) // SYMBOLS (CMIN->CMAX): -abcdefghijklmnopqrstuvwxyz+
(PID.TID 0000.0001) //                  0.0: .
(PID.TID 0000.0001) // RANGE I (Lo:Hi:Step):(  -1:   7:   1)
(PID.TID 0000.0001) // RANGE J (Lo:Hi:Step):(   7:  -1:  -1)
(PID.TID 0000.0001) // RANGE K (Lo:Hi:Step):(   1:   1:   1)
(PID.TID 0000.0001) // =======================================================
(PID.TID 0000.0001) // =======================================================
(PID.TID 0000.0001) // END OF FIELD                                          =
(PID.TID 0000.0001) // =======================================================
(PID.TID 0000.0001) 
(PID.TID 0000.0001) %MON surfExpanfCori_max           =  -1.0735540000000E-04
(PID.TID 0000.0001) %MON surfExpanfCori_min           =  -1.1783060000000E-04
(PID.TID 0000.0001) %MON surfExpanfCori_mean          =  -1.1259300000000E-04
(PID.TID 0000.0001) %MON surfExpanfCori_sd            =   3.7035424771427E-06
(PID.TID 0000.0001) %MON surfExpanfCoriG_max          =  -1.0866480000000E-04
(PID.TID 0000.0001) %MON surfExpanfCoriG_min          =  -1.1914000000000E-04
(PID.TID 0000.0001) %MON surfExpanfCoriG_mean         =  -1.1390240000000E-04
(PID.TID 0000.0001) %MON surfExpanfCoriG_sd           =   3.7035424771427E-06
(PID.TID 0000.0001) %MON surfExpanfCoriCos_max        =   0.0000000000000E+00
(PID.TID 0000.0001) %MON surfExpanfCoriCos_min        =   0.0000000000000E+00
(PID.TID 0000.0001) %MON surfExpanfCoriCos_mean       =   0.0000000000000E+00
(PID.TID 0000.0001) %MON surfExpanfCoriCos_sd         =   0.0000000000000E+00
(PID.TID 0000.0001) INI_CG2D: CG2D normalisation factor =  1.9999999999999996E-04
(PID.TID 0000.0001) 
                     ctrl_depth_ini: ctrl update R_low,
                                     adding the control vector.
(PID.TID 0000.0001)  MDS_READ_FIELD: opening file: xx_depth.0000000000.001.001.data
(PID.TID 0000.0001) // =======================================================
(PID.TID 0000.0001) // Field Model Ro_surf (update_masks_etc) at iteration          1
(PID.TID 0000.0001) // CMIN =          1.000000000000000E+32
(PID.TID 0000.0001) // CMAX =         -1.000000000000000E+32
(PID.TID 0000.0001) // CINT =          0.000000000000000E+00
(PID.TID 0000.0001) // SYMBOLS (CMIN->CMAX): -abcdefghijklmnopqrstuvwxyz+
(PID.TID 0000.0001) //                  0.0: .
(PID.TID 0000.0001) // RANGE I (Lo:Hi:Step):(  -1:   7:   1)
(PID.TID 0000.0001) // RANGE J (Lo:Hi:Step):(   7:  -1:  -1)
(PID.TID 0000.0001) // RANGE K (Lo:Hi:Step):(   1:   1:   1)
(PID.TID 0000.0001) // =======================================================
(PID.TID 0000.0001) // =======================================================
(PID.TID 0000.0001) // END OF FIELD                                          =
(PID.TID 0000.0001) // =======================================================
(PID.TID 0000.0001) 
(PID.TID 0000.0001) // =======================================================
(PID.TID 0000.0001) // Field hFacC at iteration          1
(PID.TID 0000.0001) // CMIN =          1.000000000000000E+00
(PID.TID 0000.0001) // CMAX =          1.000000000000000E+00
(PID.TID 0000.0001) // CINT =          0.000000000000000E+00
(PID.TID 0000.0001) // SYMBOLS (CMIN->CMAX): -abcdefghijklmnopqrstuvwxyz+
(PID.TID 0000.0001) //                  0.0: .
(PID.TID 0000.0001) // RANGE I (Lo:Hi:Step):(  -1:   7:   1)
(PID.TID 0000.0001) // RANGE J (Lo:Hi:Step):(   7:  -1:  -1)
(PID.TID 0000.0001) // RANGE K (Lo:Hi:Step):(   1:   1:   1)
(PID.TID 0000.0001) // =======================================================
(PID.TID 0000.0001) // =======================================================
(PID.TID 0000.0001) // END OF FIELD                                          =
(PID.TID 0000.0001) // =======================================================
(PID.TID 0000.0001) 
(PID.TID 0000.0001) // =======================================================
(PID.TID 0000.0001) // Field hFacW at iteration          1
(PID.TID 0000.0001) // CMIN =          1.000000000000000E+00
(PID.TID 0000.0001) // CMAX =          1.000000000000000E+00
(PID.TID 0000.0001) // CINT =          0.000000000000000E+00
(PID.TID 0000.0001) // SYMBOLS (CMIN->CMAX): -abcdefghijklmnopqrstuvwxyz+
(PID.TID 0000.0001) //                  0.0: .
(PID.TID 0000.0001) // RANGE I (Lo:Hi:Step):(  -1:   7:   1)
(PID.TID 0000.0001) // RANGE J (Lo:Hi:Step):(   7:  -1:  -1)
(PID.TID 0000.0001) // RANGE K (Lo:Hi:Step):(   1:   1:   1)
(PID.TID 0000.0001) // =======================================================
(PID.TID 0000.0001) // =======================================================
(PID.TID 0000.0001) // END OF FIELD                                          =
(PID.TID 0000.0001) // =======================================================
(PID.TID 0000.0001) 
(PID.TID 0000.0001) // =======================================================
(PID.TID 0000.0001) // Field hFacS at iteration          1
(PID.TID 0000.0001) // CMIN =          1.000000000000000E+00
(PID.TID 0000.0001) // CMAX =          1.000000000000000E+00
(PID.TID 0000.0001) // CINT =          0.000000000000000E+00
(PID.TID 0000.0001) // SYMBOLS (CMIN->CMAX): -abcdefghijklmnopqrstuvwxyz+
(PID.TID 0000.0001) //                  0.0: .
(PID.TID 0000.0001) // RANGE I (Lo:Hi:Step):(  -1:   7:   1)
(PID.TID 0000.0001) // RANGE J (Lo:Hi:Step):(   7:  -1:  -1)
(PID.TID 0000.0001) // RANGE K (Lo:Hi:Step):(   1:   1:   1)
(PID.TID 0000.0001) // =======================================================
(PID.TID 0000.0001) // =======================================================
(PID.TID 0000.0001) // END OF FIELD                                          =
(PID.TID 0000.0001) // =======================================================
(PID.TID 0000.0001) 
(PID.TID 0000.0001) // =======================================================
(PID.TID 0000.0001) // Field Initial Temperature at iteration          1
(PID.TID 0000.0001) // CMIN =          4.000000000000000E+00
(PID.TID 0000.0001) // CMAX =          4.000000000000000E+00
(PID.TID 0000.0001) // CINT =          0.000000000000000E+00
(PID.TID 0000.0001) // SYMBOLS (CMIN->CMAX): -abcdefghijklmnopqrstuvwxyz+
(PID.TID 0000.0001) //                  0.0: .
(PID.TID 0000.0001) // RANGE I (Lo:Hi:Step):(   1:   5:   1)
(PID.TID 0000.0001) // RANGE J (Lo:Hi:Step):(   5:   1:  -1)
(PID.TID 0000.0001) // RANGE K (Lo:Hi:Step):(   1:   1:   1)
(PID.TID 0000.0001) // =======================================================
(PID.TID 0000.0001) // =======================================================
(PID.TID 0000.0001) // END OF FIELD                                          =
(PID.TID 0000.0001) // =======================================================
(PID.TID 0000.0001) 
(PID.TID 0000.0001) // =======================================================
(PID.TID 0000.0001) // Field Initial Salinity at iteration          1
(PID.TID 0000.0001) // CMIN =          3.500000000000000E+01
(PID.TID 0000.0001) // CMAX =          3.500000000000000E+01
(PID.TID 0000.0001) // CINT =          0.000000000000000E+00
(PID.TID 0000.0001) // SYMBOLS (CMIN->CMAX): -abcdefghijklmnopqrstuvwxyz+
(PID.TID 0000.0001) //                  0.0: .
(PID.TID 0000.0001) // RANGE I (Lo:Hi:Step):(   1:   5:   1)
(PID.TID 0000.0001) // RANGE J (Lo:Hi:Step):(   5:   1:  -1)
(PID.TID 0000.0001) // RANGE K (Lo:Hi:Step):(   1:   1:   1)
(PID.TID 0000.0001) // =======================================================
(PID.TID 0000.0001) // =======================================================
(PID.TID 0000.0001) // END OF FIELD                                          =
(PID.TID 0000.0001) // =======================================================
(PID.TID 0000.0001) 
(PID.TID 0000.0001) Start initial hydrostatic pressure computation
(PID.TID 0000.0001) Pressure is predetermined for buoyancyRelation OCEANIC
(PID.TID 0000.0001) 
(PID.TID 0000.0001)  MDS_READ_FIELD: opening global file: windx.sin_y
(PID.TID 0000.0001) // =======================================================
(PID.TID 0000.0001) // Model current state
(PID.TID 0000.0001) // =======================================================
(PID.TID 0000.0001) 
 cg2d: Sum(rhs),rhsMax =   0.00000000000000E+00  0.00000000000000E+00
 cg2d: Sum(rhs),rhsMax =  -2.49999999999996E+01  6.03492218443698E-05
 cg2d: Sum(rhs),rhsMax =  -1.81034404639062E+01  2.18766023587219E-04
 cg2d: Sum(rhs),rhsMax =  -1.54955562832147E+01  4.32479836297446E-04
 cg2d: Sum(rhs),rhsMax =  -1.41111452321991E+01  6.49958988357769E-04
 cg2d: Sum(rhs),rhsMax =  -1.31144322324768E+01  8.30737102877963E-04
 cg2d: Sum(rhs),rhsMax =  -1.21209090319198E+01  9.52510662014791E-04
 cg2d: Sum(rhs),rhsMax =  -1.07124741916566E+01  1.02806631600680E-03
 cg2d: Sum(rhs),rhsMax =  -7.41375936657003E+00  1.27086596336549E-03
 cg2d: Sum(rhs),rhsMax =  -4.70217533448020E+00  1.51019014098682E-03
 cg2d: Sum(rhs),rhsMax =  -2.72440685924203E+00  1.65833738318051E-03
 cg2d: Sum(rhs),rhsMax =  -1.27958669049206E+00  1.70565508838339E-03
 cg2d: Sum(rhs),rhsMax =  -3.29564699217890E-01  1.66071960628746E-03
 cg2d: Sum(rhs),rhsMax =   5.21320406181198E-02  1.54812756176683E-03
 cg2d: Sum(rhs),rhsMax =  -2.86625374309870E-01  1.40338816110331E-03
 cg2d: Sum(rhs),rhsMax =  -1.30315844087447E+00  1.44268598865579E-03
 cg2d: Sum(rhs),rhsMax =  -2.68067691892157E+00  1.50836885707482E-03
 cg2d: Sum(rhs),rhsMax =  -4.07407455562011E+00  1.58424366027164E-03
 cg2d: Sum(rhs),rhsMax =  -5.18272350097495E+00  1.66593592153907E-03
 cg2d: Sum(rhs),rhsMax =  -5.80990599627224E+00  1.74846174917592E-03
 cg2d: Sum(rhs),rhsMax =  -5.87740627826302E+00  1.82725971062466E-03
 cg2d: Sum(rhs),rhsMax =  -5.41358310714076E+00  1.89900434841780E-03
 cg2d: Sum(rhs),rhsMax =  -4.53080675685510E+00  1.96213934914776E-03
 cg2d: Sum(rhs),rhsMax =  -3.22587899061670E+00  2.12611202448899E-03
 cg2d: Sum(rhs),rhsMax =  -2.04447211886280E+00  2.24837953564858E-03
 cg2d: Sum(rhs),rhsMax =  -1.10818137166373E+00  2.30404048939375E-03
 cg2d: Sum(rhs),rhsMax =  -4.90484878342950E-01  2.29576532154417E-03
 cg2d: Sum(rhs),rhsMax =  -2.61247061204501E-01  2.23814841876220E-03
 cg2d: Sum(rhs),rhsMax =  -4.50921967244868E-01  2.26266905967979E-03
 cg2d: Sum(rhs),rhsMax =  -1.00469610838630E+00  2.31946121702115E-03
 cg2d: Sum(rhs),rhsMax =  -1.78565332196558E+00  2.37599940000427E-03
 cg2d: Sum(rhs),rhsMax =  -2.62429310199152E+00  2.42805541727048E-03
 cg2d: Sum(rhs),rhsMax =  -3.35748488430116E+00  2.47123043393703E-03
 cg2d: Sum(rhs),rhsMax =  -3.85508919564477E+00  2.50195596859928E-03
 cg2d: Sum(rhs),rhsMax =  -4.03589979562376E+00  2.51830321313023E-03
 cg2d: Sum(rhs),rhsMax =  -3.87512848951628E+00  2.52047518141587E-03
 cg2d: Sum(rhs),rhsMax =  -3.40600369027595E+00  2.51092921052802E-03
 cg2d: Sum(rhs),rhsMax =  -2.61682442632476E+00  2.58874087347422E-03
 cg2d: Sum(rhs),rhsMax =  -1.83238711465003E+00  2.61669729974069E-03
 cg2d: Sum(rhs),rhsMax =  -1.17513337397819E+00  2.56005946215748E-03
 cg2d: Sum(rhs),rhsMax =  -7.11994613160885E-01  2.47855829068606E-03
 cg2d: Sum(rhs),rhsMax =  -5.26422145588876E-01  2.47042091443218E-03
 cg2d: Sum(rhs),rhsMax =  -6.78930210981137E-01  2.49676868906707E-03
 cg2d: Sum(rhs),rhsMax =  -1.12673722142460E+00  2.53652609736172E-03
 cg2d: Sum(rhs),rhsMax =  -1.75981626192411E+00  2.58504761902791E-03
 cg2d: Sum(rhs),rhsMax =  -2.43940637342627E+00  2.63568088175953E-03
 cg2d: Sum(rhs),rhsMax =  -3.03203011546069E+00  2.68092811696477E-03
 cg2d: Sum(rhs),rhsMax =  -3.40991307476788E+00  2.73286307113780E-03
 cg2d: Sum(rhs),rhsMax =  -3.48046018799395E+00  2.80943925663563E-03
 cg2d: Sum(rhs),rhsMax =  -3.32063068760852E+00  2.84054012025972E-03
 cg2d: Sum(rhs),rhsMax =  -2.96079443524583E+00  2.82589061032550E-03
 cg2d: Sum(rhs),rhsMax =  -2.32992810052158E+00  2.92147975406353E-03
 cg2d: Sum(rhs),rhsMax =  -1.72242455116021E+00  2.94384963578232E-03
 cg2d: Sum(rhs),rhsMax =  -1.21221902537274E+00  2.89157780572844E-03
 cg2d: Sum(rhs),rhsMax =  -8.69698382781638E-01  2.78046458194742E-03
 cg2d: Sum(rhs),rhsMax =  -7.64867792495567E-01  2.63730950807591E-03
 cg2d: Sum(rhs),rhsMax =  -9.31747824136295E-01  2.54529706581361E-03
 cg2d: Sum(rhs),rhsMax =  -1.31074335883233E+00  2.59464771900232E-03
 cg2d: Sum(rhs),rhsMax =  -1.82960839586935E+00  2.67470091614869E-03
 cg2d: Sum(rhs),rhsMax =  -2.36415405070690E+00  2.77096215710557E-03
 cg2d: Sum(rhs),rhsMax =  -2.80794774891743E+00  2.86583709683989E-03
 cg2d: Sum(rhs),rhsMax =  -3.09076533095385E+00  2.94225357814967E-03
 cg2d: Sum(rhs),rhsMax =  -3.17911018912866E+00  2.98708410709329E-03
 cg2d: Sum(rhs),rhsMax =  -3.06968975858184E+00  2.99369705600486E-03
 cg2d: Sum(rhs),rhsMax =  -2.74200029345181E+00  3.00868116753128E-03
 cg2d: Sum(rhs),rhsMax =  -2.22987017163807E+00  3.08320497283051E-03
 cg2d: Sum(rhs),rhsMax =  -1.72892383063844E+00  3.09216603412047E-03
 cg2d: Sum(rhs),rhsMax =  -1.30661125032782E+00  3.03707925068594E-03
 cg2d: Sum(rhs),rhsMax =  -1.02724586483784E+00  2.93201255766062E-03
 cg2d: Sum(rhs),rhsMax =  -9.49612071267439E-01  2.80059569592838E-03
 cg2d: Sum(rhs),rhsMax =  -1.10546678827266E+00  2.68802016185823E-03
 cg2d: Sum(rhs),rhsMax =  -1.41911842707113E+00  2.73183508251119E-03
 cg2d: Sum(rhs),rhsMax =  -1.85263648611905E+00  2.80075128481525E-03
 cg2d: Sum(rhs),rhsMax =  -2.30607101031339E+00  2.88121988863857E-03
 cg2d: Sum(rhs),rhsMax =  -2.69038328371320E+00  2.95745903153967E-03
 cg2d: Sum(rhs),rhsMax =  -2.94313280111011E+00  3.01465314209594E-03
 cg2d: Sum(rhs),rhsMax =  -3.03123918899683E+00  3.04190030430952E-03
 cg2d: Sum(rhs),rhsMax =  -2.94785317362324E+00  3.03433144690169E-03
 cg2d: Sum(rhs),rhsMax =  -2.61356653948899E+00  3.10365979358317E-03
 cg2d: Sum(rhs),rhsMax =  -2.18161316137803E+00  3.16115506332836E-03
 cg2d: Sum(rhs),rhsMax =  -1.75526122475285E+00  3.15966314867043E-03
 cg2d: Sum(rhs),rhsMax =  -1.39603742039512E+00  3.10114913696947E-03
 cg2d: Sum(rhs),rhsMax =  -1.16177138617792E+00  2.99876547019569E-03
 cg2d: Sum(rhs),rhsMax =  -1.10293745652735E+00  2.87411084889125E-03
 cg2d: Sum(rhs),rhsMax =  -1.24975132484490E+00  2.75286356199163E-03
 cg2d: Sum(rhs),rhsMax =  -1.53840865686735E+00  2.75098220791106E-03
 cg2d: Sum(rhs),rhsMax =  -1.91301868798895E+00  2.81271673358870E-03
 cg2d: Sum(rhs),rhsMax =  -2.30705936663128E+00  2.88449385457204E-03
 cg2d: Sum(rhs),rhsMax =  -2.64297549285036E+00  2.95188729899526E-03
 cg2d: Sum(rhs),rhsMax =  -2.86495125504605E+00  3.00154122971520E-03
 cg2d: Sum(rhs),rhsMax =  -2.94238804738231E+00  3.02377930559747E-03
 cg2d: Sum(rhs),rhsMax =  -2.84207310830987E+00  3.04217208943748E-03
 cg2d: Sum(rhs),rhsMax =  -2.51902173599864E+00  3.13830807392258E-03
 cg2d: Sum(rhs),rhsMax =  -2.14123728168931E+00  3.18959326045962E-03
 cg2d: Sum(rhs),rhsMax =  -1.76835917061146E+00  3.18714935154282E-03
 cg2d: Sum(rhs),rhsMax =  -1.45590347804943E+00  3.13272232214565E-03
 cg2d: Sum(rhs),rhsMax =  -1.25508068995927E+00  3.03818420470388E-03
 cg2d: Sum(rhs),rhsMax =  -1.20874901993881E+00  2.92305995448730E-03
 cg2d: Sum(rhs),rhsMax =  -1.34034308513193E+00  2.81059309855103E-03
 cg2d: Sum(rhs),rhsMax =  -1.62624327183549E+00  2.74190577729022E-03
(PID.TID 0000.0001) %CHECKPOINT       100 ckptA
 --> objf_test(bi,bj)   =  0.509071981442208E-01
 --> objf_tracer(bi,bj) =  0.000000000000000E+00
 --> objf_atl(bi,bj)    =  0.000000000000000E+00
  local fc =  0.509071981442208E-01
 global fc =  0.509071981442208E-01
 ph-check fcpertplus =   0.0509071981
(PID.TID 0000.0001)  MDS_READ_FIELD: opening file: xx_depth.0000000000.001.001.data
 ph-check fcpertminus =   0.0509071982
(PID.TID 0000.0001)  MDS_READ_FIELD: opening file: xx_depth.0000000000.001.001.data
(PID.TID 0000.0001)  MDS_READ_FIELD: opening global file: noWalls.bigRidge
(PID.TID 0000.0001) // =======================================================
(PID.TID 0000.0001) // Field Model R_low (ini_masks_etc) at iteration          1
(PID.TID 0000.0001) // CMIN =         -5.000000000000000E+03
(PID.TID 0000.0001) // CMAX =         -2.000000000000000E+03
(PID.TID 0000.0001) // CINT =          1.111111111111111E+02
(PID.TID 0000.0001) // SYMBOLS (CMIN->CMAX): -abcdefghijklmnopqrstuvwxyz+
(PID.TID 0000.0001) //                  0.0: .
(PID.TID 0000.0001) // RANGE I (Lo:Hi:Step):(  -1:   7:   1)
(PID.TID 0000.0001) // RANGE J (Lo:Hi:Step):(   7:  -1:  -1)
(PID.TID 0000.0001) // RANGE K (Lo:Hi:Step):(   1:   1:   1)
(PID.TID 0000.0001) // =======================================================
(PID.TID 0000.0001) K =   1
(PID.TID 0000.0001) //
(PID.TID 0000.0001) // |--J--|101234567
(PID.TID 0000.0001) //      7 ----+----
(PID.TID 0000.0001) //      6 ----+----
(PID.TID 0000.0001) //      5 ----+----
(PID.TID 0000.0001) //      4 ----+----
(PID.TID 0000.0001) //      3 ----+----
(PID.TID 0000.0001) //      2 ----+----
(PID.TID 0000.0001) //      1 ----+----
(PID.TID 0000.0001) //      0 ----+----
(PID.TID 0000.0001) //     -1 ----+----
(PID.TID 0000.0001) // =======================================================
(PID.TID 0000.0001) // END OF FIELD                                          =
(PID.TID 0000.0001) // =======================================================
(PID.TID 0000.0001) 
(PID.TID 0000.0001) // =======================================================
(PID.TID 0000.0001) // Field Model Ro_surf (ini_masks_etc) at iteration          1
(PID.TID 0000.0001) // CMIN =          1.000000000000000E+32
(PID.TID 0000.0001) // CMAX =         -1.000000000000000E+32
(PID.TID 0000.0001) // CINT =          0.000000000000000E+00
(PID.TID 0000.0001) // SYMBOLS (CMIN->CMAX): -abcdefghijklmnopqrstuvwxyz+
(PID.TID 0000.0001) //                  0.0: .
(PID.TID 0000.0001) // RANGE I (Lo:Hi:Step):(  -1:   7:   1)
(PID.TID 0000.0001) // RANGE J (Lo:Hi:Step):(   7:  -1:  -1)
(PID.TID 0000.0001) // RANGE K (Lo:Hi:Step):(   1:   1:   1)
(PID.TID 0000.0001) // =======================================================
(PID.TID 0000.0001) // =======================================================
(PID.TID 0000.0001) // END OF FIELD                                          =
(PID.TID 0000.0001) // =======================================================
(PID.TID 0000.0001) 
(PID.TID 0000.0001) // =======================================================
(PID.TID 0000.0001) // Field hFacC at iteration          1
(PID.TID 0000.0001) // CMIN =          1.000000000000000E+00
(PID.TID 0000.0001) // CMAX =          1.000000000000000E+00
(PID.TID 0000.0001) // CINT =          0.000000000000000E+00
(PID.TID 0000.0001) // SYMBOLS (CMIN->CMAX): -abcdefghijklmnopqrstuvwxyz+
(PID.TID 0000.0001) //                  0.0: .
(PID.TID 0000.0001) // RANGE I (Lo:Hi:Step):(  -1:   7:   1)
(PID.TID 0000.0001) // RANGE J (Lo:Hi:Step):(   7:  -1:  -1)
(PID.TID 0000.0001) // RANGE K (Lo:Hi:Step):(   1:   1:   1)
(PID.TID 0000.0001) // =======================================================
(PID.TID 0000.0001) // =======================================================
(PID.TID 0000.0001) // END OF FIELD                                          =
(PID.TID 0000.0001) // =======================================================
(PID.TID 0000.0001) 
(PID.TID 0000.0001) // =======================================================
(PID.TID 0000.0001) // Field hFacW at iteration          1
(PID.TID 0000.0001) // CMIN =          1.000000000000000E+00
(PID.TID 0000.0001) // CMAX =          1.000000000000000E+00
(PID.TID 0000.0001) // CINT =          0.000000000000000E+00
(PID.TID 0000.0001) // SYMBOLS (CMIN->CMAX): -abcdefghijklmnopqrstuvwxyz+
(PID.TID 0000.0001) //                  0.0: .
(PID.TID 0000.0001) // RANGE I (Lo:Hi:Step):(  -1:   7:   1)
(PID.TID 0000.0001) // RANGE J (Lo:Hi:Step):(   7:  -1:  -1)
(PID.TID 0000.0001) // RANGE K (Lo:Hi:Step):(   1:   1:   1)
(PID.TID 0000.0001) // =======================================================
(PID.TID 0000.0001) // =======================================================
(PID.TID 0000.0001) // END OF FIELD                                          =
(PID.TID 0000.0001) // =======================================================
(PID.TID 0000.0001) 
(PID.TID 0000.0001) // =======================================================
(PID.TID 0000.0001) // Field hFacS at iteration          1
(PID.TID 0000.0001) // CMIN =          1.000000000000000E+00
(PID.TID 0000.0001) // CMAX =          1.000000000000000E+00
(PID.TID 0000.0001) // CINT =          0.000000000000000E+00
(PID.TID 0000.0001) // SYMBOLS (CMIN->CMAX): -abcdefghijklmnopqrstuvwxyz+
(PID.TID 0000.0001) //                  0.0: .
(PID.TID 0000.0001) // RANGE I (Lo:Hi:Step):(  -1:   7:   1)
(PID.TID 0000.0001) // RANGE J (Lo:Hi:Step):(   7:  -1:  -1)
(PID.TID 0000.0001) // RANGE K (Lo:Hi:Step):(   1:   1:   1)
(PID.TID 0000.0001) // =======================================================
(PID.TID 0000.0001) // =======================================================
(PID.TID 0000.0001) // END OF FIELD                                          =
(PID.TID 0000.0001) // =======================================================
(PID.TID 0000.0001) 
(PID.TID 0000.0001) %MON surfExpanfCori_max           =  -1.0735540000000E-04
(PID.TID 0000.0001) %MON surfExpanfCori_min           =  -1.1783060000000E-04
(PID.TID 0000.0001) %MON surfExpanfCori_mean          =  -1.1259300000000E-04
(PID.TID 0000.0001) %MON surfExpanfCori_sd            =   3.7035424771427E-06
(PID.TID 0000.0001) %MON surfExpanfCoriG_max          =  -1.0866480000000E-04
(PID.TID 0000.0001) %MON surfExpanfCoriG_min          =  -1.1914000000000E-04
(PID.TID 0000.0001) %MON surfExpanfCoriG_mean         =  -1.1390240000000E-04
(PID.TID 0000.0001) %MON surfExpanfCoriG_sd           =   3.7035424771427E-06
(PID.TID 0000.0001) %MON surfExpanfCoriCos_max        =   0.0000000000000E+00
(PID.TID 0000.0001) %MON surfExpanfCoriCos_min        =   0.0000000000000E+00
(PID.TID 0000.0001) %MON surfExpanfCoriCos_mean       =   0.0000000000000E+00
(PID.TID 0000.0001) %MON surfExpanfCoriCos_sd         =   0.0000000000000E+00
(PID.TID 0000.0001) INI_CG2D: CG2D normalisation factor =  1.9999999999999996E-04
(PID.TID 0000.0001) 
                     ctrl_depth_ini: ctrl update R_low,
                                     adding the control vector.
(PID.TID 0000.0001)  MDS_READ_FIELD: opening file: xx_depth.0000000000.001.001.data
(PID.TID 0000.0001) // =======================================================
(PID.TID 0000.0001) // Field Model Ro_surf (update_masks_etc) at iteration          1
(PID.TID 0000.0001) // CMIN =          1.000000000000000E+32
(PID.TID 0000.0001) // CMAX =         -1.000000000000000E+32
(PID.TID 0000.0001) // CINT =          0.000000000000000E+00
(PID.TID 0000.0001) // SYMBOLS (CMIN->CMAX): -abcdefghijklmnopqrstuvwxyz+
(PID.TID 0000.0001) //                  0.0: .
(PID.TID 0000.0001) // RANGE I (Lo:Hi:Step):(  -1:   7:   1)
(PID.TID 0000.0001) // RANGE J (Lo:Hi:Step):(   7:  -1:  -1)
(PID.TID 0000.0001) // RANGE K (Lo:Hi:Step):(   1:   1:   1)
(PID.TID 0000.0001) // =======================================================
(PID.TID 0000.0001) // =======================================================
(PID.TID 0000.0001) // END OF FIELD                                          =
(PID.TID 0000.0001) // =======================================================
(PID.TID 0000.0001) 
(PID.TID 0000.0001) // =======================================================
(PID.TID 0000.0001) // Field hFacC at iteration          1
(PID.TID 0000.0001) // CMIN =          1.000000000000000E+00
(PID.TID 0000.0001) // CMAX =          1.000000000000000E+00
(PID.TID 0000.0001) // CINT =          0.000000000000000E+00
(PID.TID 0000.0001) // SYMBOLS (CMIN->CMAX): -abcdefghijklmnopqrstuvwxyz+
(PID.TID 0000.0001) //                  0.0: .
(PID.TID 0000.0001) // RANGE I (Lo:Hi:Step):(  -1:   7:   1)
(PID.TID 0000.0001) // RANGE J (Lo:Hi:Step):(   7:  -1:  -1)
(PID.TID 0000.0001) // RANGE K (Lo:Hi:Step):(   1:   1:   1)
(PID.TID 0000.0001) // =======================================================
(PID.TID 0000.0001) // =======================================================
(PID.TID 0000.0001) // END OF FIELD                                          =
(PID.TID 0000.0001) // =======================================================
(PID.TID 0000.0001) 
(PID.TID 0000.0001) // =======================================================
(PID.TID 0000.0001) // Field hFacW at iteration          1
(PID.TID 0000.0001) // CMIN =          1.000000000000000E+00
(PID.TID 0000.0001) // CMAX =          1.000000000000000E+00
(PID.TID 0000.0001) // CINT =          0.000000000000000E+00
(PID.TID 0000.0001) // SYMBOLS (CMIN->CMAX): -abcdefghijklmnopqrstuvwxyz+
(PID.TID 0000.0001) //                  0.0: .
(PID.TID 0000.0001) // RANGE I (Lo:Hi:Step):(  -1:   7:   1)
(PID.TID 0000.0001) // RANGE J (Lo:Hi:Step):(   7:  -1:  -1)
(PID.TID 0000.0001) // RANGE K (Lo:Hi:Step):(   1:   1:   1)
(PID.TID 0000.0001) // =======================================================
(PID.TID 0000.0001) // =======================================================
(PID.TID 0000.0001) // END OF FIELD                                          =
(PID.TID 0000.0001) // =======================================================
(PID.TID 0000.0001) 
(PID.TID 0000.0001) // =======================================================
(PID.TID 0000.0001) // Field hFacS at iteration          1
(PID.TID 0000.0001) // CMIN =          1.000000000000000E+00
(PID.TID 0000.0001) // CMAX =          1.000000000000000E+00
(PID.TID 0000.0001) // CINT =          0.000000000000000E+00
(PID.TID 0000.0001) // SYMBOLS (CMIN->CMAX): -abcdefghijklmnopqrstuvwxyz+
(PID.TID 0000.0001) //                  0.0: .
(PID.TID 0000.0001) // RANGE I (Lo:Hi:Step):(  -1:   7:   1)
(PID.TID 0000.0001) // RANGE J (Lo:Hi:Step):(   7:  -1:  -1)
(PID.TID 0000.0001) // RANGE K (Lo:Hi:Step):(   1:   1:   1)
(PID.TID 0000.0001) // =======================================================
(PID.TID 0000.0001) // =======================================================
(PID.TID 0000.0001) // END OF FIELD                                          =
(PID.TID 0000.0001) // =======================================================
(PID.TID 0000.0001) 
(PID.TID 0000.0001) // =======================================================
(PID.TID 0000.0001) // Field Initial Temperature at iteration          1
(PID.TID 0000.0001) // CMIN =          4.000000000000000E+00
(PID.TID 0000.0001) // CMAX =          4.000000000000000E+00
(PID.TID 0000.0001) // CINT =          0.000000000000000E+00
(PID.TID 0000.0001) // SYMBOLS (CMIN->CMAX): -abcdefghijklmnopqrstuvwxyz+
(PID.TID 0000.0001) //                  0.0: .
(PID.TID 0000.0001) // RANGE I (Lo:Hi:Step):(   1:   5:   1)
(PID.TID 0000.0001) // RANGE J (Lo:Hi:Step):(   5:   1:  -1)
(PID.TID 0000.0001) // RANGE K (Lo:Hi:Step):(   1:   1:   1)
(PID.TID 0000.0001) // =======================================================
(PID.TID 0000.0001) // =======================================================
(PID.TID 0000.0001) // END OF FIELD                                          =
(PID.TID 0000.0001) // =======================================================
(PID.TID 0000.0001) 
(PID.TID 0000.0001) // =======================================================
(PID.TID 0000.0001) // Field Initial Salinity at iteration          1
(PID.TID 0000.0001) // CMIN =          3.500000000000000E+01
(PID.TID 0000.0001) // CMAX =          3.500000000000000E+01
(PID.TID 0000.0001) // CINT =          0.000000000000000E+00
(PID.TID 0000.0001) // SYMBOLS (CMIN->CMAX): -abcdefghijklmnopqrstuvwxyz+
(PID.TID 0000.0001) //                  0.0: .
(PID.TID 0000.0001) // RANGE I (Lo:Hi:Step):(   1:   5:   1)
(PID.TID 0000.0001) // RANGE J (Lo:Hi:Step):(   5:   1:  -1)
(PID.TID 0000.0001) // RANGE K (Lo:Hi:Step):(   1:   1:   1)
(PID.TID 0000.0001) // =======================================================
(PID.TID 0000.0001) // =======================================================
(PID.TID 0000.0001) // END OF FIELD                                          =
(PID.TID 0000.0001) // =======================================================
(PID.TID 0000.0001) 
(PID.TID 0000.0001) Start initial hydrostatic pressure computation
(PID.TID 0000.0001) Pressure is predetermined for buoyancyRelation OCEANIC
(PID.TID 0000.0001) 
(PID.TID 0000.0001)  MDS_READ_FIELD: opening global file: windx.sin_y
(PID.TID 0000.0001) // =======================================================
(PID.TID 0000.0001) // Model current state
(PID.TID 0000.0001) // =======================================================
(PID.TID 0000.0001) 
 cg2d: Sum(rhs),rhsMax =   0.00000000000000E+00  0.00000000000000E+00
 cg2d: Sum(rhs),rhsMax =  -2.49999999999996E+01  6.03492218443698E-05
 cg2d: Sum(rhs),rhsMax =  -1.81034404639062E+01  2.18766023587219E-04
 cg2d: Sum(rhs),rhsMax =  -1.54955562832147E+01  4.32479836297446E-04
 cg2d: Sum(rhs),rhsMax =  -1.41111452337002E+01  6.49958988289053E-04
 cg2d: Sum(rhs),rhsMax =  -1.31144322340456E+01  8.30737102778815E-04
 cg2d: Sum(rhs),rhsMax =  -1.21209090331577E+01  9.52510661915798E-04
 cg2d: Sum(rhs),rhsMax =  -1.07124742827572E+01  1.02806630725734E-03
 cg2d: Sum(rhs),rhsMax =  -7.41375936674407E+00  1.27086596331594E-03
 cg2d: Sum(rhs),rhsMax =  -4.70217533462790E+00  1.51019014088935E-03
 cg2d: Sum(rhs),rhsMax =  -2.72440685931634E+00  1.65833738301970E-03
 cg2d: Sum(rhs),rhsMax =  -1.27958669045399E+00  1.70565508815930E-03
 cg2d: Sum(rhs),rhsMax =  -3.29564699087109E-01  1.66071960602034E-03
 cg2d: Sum(rhs),rhsMax =   5.21320407128062E-02  1.54812756150580E-03
 cg2d: Sum(rhs),rhsMax =  -2.86625374491107E-01  1.40338816092779E-03
 cg2d: Sum(rhs),rhsMax =  -1.30315842652914E+00  1.44268600510156E-03
 cg2d: Sum(rhs),rhsMax =  -2.68067688706684E+00  1.50836887555028E-03
 cg2d: Sum(rhs),rhsMax =  -4.07407451141068E+00  1.58424367805973E-03
 cg2d: Sum(rhs),rhsMax =  -5.18272345800360E+00  1.66593593604255E-03
 cg2d: Sum(rhs),rhsMax =  -5.80990596828913E+00  1.74846175843964E-03
 cg2d: Sum(rhs),rhsMax =  -5.87740627168811E+00  1.82725971374650E-03
 cg2d: Sum(rhs),rhsMax =  -5.41358311884497E+00  1.89900434576373E-03
 cg2d: Sum(rhs),rhsMax =  -4.53080677741588E+00  1.96213934232405E-03
 cg2d: Sum(rhs),rhsMax =  -3.22587898755295E+00  2.12611202992018E-03
 cg2d: Sum(rhs),rhsMax =  -2.04447211880186E+00  2.24837954186916E-03
 cg2d: Sum(rhs),rhsMax =  -1.10818137445468E+00  2.30404049635581E-03
 cg2d: Sum(rhs),rhsMax =  -4.90484883549623E-01  2.29576532920976E-03
 cg2d: Sum(rhs),rhsMax =  -2.61247067962348E-01  2.23814842711696E-03
 cg2d: Sum(rhs),rhsMax =  -4.50921971398161E-01  2.26266908089042E-03
 cg2d: Sum(rhs),rhsMax =  -1.00469610505431E+00  2.31946124532657E-03
 cg2d: Sum(rhs),rhsMax =  -1.78565330660946E+00  2.37599943308345E-03
 cg2d: Sum(rhs),rhsMax =  -2.62429307439156E+00  2.42805545217935E-03
 cg2d: Sum(rhs),rhsMax =  -3.35748484931555E+00  2.47123046765788E-03
 cg2d: Sum(rhs),rhsMax =  -3.85508916104371E+00  2.50195599859304E-03
 cg2d: Sum(rhs),rhsMax =  -4.03589976860213E+00  2.51830323778710E-03
 cg2d: Sum(rhs),rhsMax =  -3.87512847391459E+00  2.52047520032072E-03
 cg2d: Sum(rhs),rhsMax =  -3.40600368583601E+00  2.51092922449445E-03
 cg2d: Sum(rhs),rhsMax =  -2.61682443994503E+00  2.58874087485432E-03
 cg2d: Sum(rhs),rhsMax =  -1.83238712936128E+00  2.61669730123685E-03
 cg2d: Sum(rhs),rhsMax =  -1.17513339021984E+00  2.56005946377623E-03
 cg2d: Sum(rhs),rhsMax =  -7.11994624829819E-01  2.47855831409053E-03
 cg2d: Sum(rhs),rhsMax =  -5.26422160049916E-01  2.47042093688564E-03
 cg2d: Sum(rhs),rhsMax =  -6.78930222927675E-01  2.49676871785172E-03
 cg2d: Sum(rhs),rhsMax =  -1.12673722621800E+00  2.53652613191203E-03
 cg2d: Sum(rhs),rhsMax =  -1.75981625587069E+00  2.58504765788226E-03
 cg2d: Sum(rhs),rhsMax =  -2.43940635596700E+00  2.63568092289288E-03
 cg2d: Sum(rhs),rhsMax =  -3.03203008965855E+00  2.68092815821575E-03
 cg2d: Sum(rhs),rhsMax =  -3.40991316230997E+00  2.73286301783179E-03
 cg2d: Sum(rhs),rhsMax =  -3.48046027672227E+00  2.80943920197582E-03
 cg2d: Sum(rhs),rhsMax =  -3.32063077415080E+00  2.84054006447134E-03
 cg2d: Sum(rhs),rhsMax =  -2.96079451672122E+00  2.82589055352163E-03
 cg2d: Sum(rhs),rhsMax =  -2.32992812158128E+00  2.92147975488528E-03
 cg2d: Sum(rhs),rhsMax =  -1.72242457275706E+00  2.94384963642393E-03
 cg2d: Sum(rhs),rhsMax =  -1.21221904792218E+00  2.89157780617575E-03
 cg2d: Sum(rhs),rhsMax =  -8.69698406663223E-01  2.78046458217508E-03
 cg2d: Sum(rhs),rhsMax =  -7.64867817996762E-01  2.63730950804696E-03
 cg2d: Sum(rhs),rhsMax =  -9.31747874703808E-01  2.54529700027820E-03
 cg2d: Sum(rhs),rhsMax =  -1.31074341899887E+00  2.59464765167524E-03
 cg2d: Sum(rhs),rhsMax =  -1.82960846843135E+00  2.67470084718744E-03
 cg2d: Sum(rhs),rhsMax =  -2.36415413520909E+00  2.77096208675100E-03
 cg2d: Sum(rhs),rhsMax =  -2.80794784255215E+00  2.86583702536232E-03
 cg2d: Sum(rhs),rhsMax =  -3.09076542986894E+00  2.94225350578558E-03
 cg2d: Sum(rhs),rhsMax =  -3.17911028937855E+00  2.98708403398685E-03
 cg2d: Sum(rhs),rhsMax =  -3.06968985655166E+00  2.99369698216771E-03
 cg2d: Sum(rhs),rhsMax =  -2.74200031931577E+00  3.00868116326923E-03
 cg2d: Sum(rhs),rhsMax =  -2.22987019638141E+00  3.08320496798860E-03
 cg2d: Sum(rhs),rhsMax =  -1.72892385459643E+00  3.09216602868297E-03
 cg2d: Sum(rhs),rhsMax =  -1.30661127389530E+00  3.03707924462724E-03
 cg2d: Sum(rhs),rhsMax =  -1.02724588847390E+00  2.93201255094350E-03
 cg2d: Sum(rhs),rhsMax =  -9.49612095527444E-01  2.80059568850448E-03
 cg2d: Sum(rhs),rhsMax =  -1.10546684550156E+00  2.68802007620069E-03
 cg2d: Sum(rhs),rhsMax =  -1.41911849356292E+00  2.73183499479827E-03
 cg2d: Sum(rhs),rhsMax =  -1.85263656492384E+00  2.80075119537688E-03
 cg2d: Sum(rhs),rhsMax =  -2.30607110124129E+00  2.88121979789530E-03
 cg2d: Sum(rhs),rhsMax =  -2.69038338407205E+00  2.95745893992626E-03
 cg2d: Sum(rhs),rhsMax =  -2.94313290692141E+00  3.01465304997991E-03
 cg2d: Sum(rhs),rhsMax =  -3.03123929597499E+00  3.04190021192115E-03
 cg2d: Sum(rhs),rhsMax =  -2.94785327770183E+00  3.03433135428905E-03
 cg2d: Sum(rhs),rhsMax =  -2.61356656577261E+00  3.10365977773522E-03
 cg2d: Sum(rhs),rhsMax =  -2.18161318484819E+00  3.16115504646045E-03
 cg2d: Sum(rhs),rhsMax =  -1.75526124560364E+00  3.15966313077431E-03
 cg2d: Sum(rhs),rhsMax =  -1.39603743902868E+00  3.10114911802591E-03
 cg2d: Sum(rhs),rhsMax =  -1.16177140326341E+00  2.99876545017248E-03
 cg2d: Sum(rhs),rhsMax =  -1.10293747311684E+00  2.87411082774375E-03
 cg2d: Sum(rhs),rhsMax =  -1.24975134242548E+00  2.75286353966601E-03
 cg2d: Sum(rhs),rhsMax =  -1.53840872154422E+00  2.75098210293046E-03
 cg2d: Sum(rhs),rhsMax =  -1.91301876504080E+00  2.81271662666657E-03
 cg2d: Sum(rhs),rhsMax =  -2.30705945611218E+00  2.88449374608802E-03
 cg2d: Sum(rhs),rhsMax =  -2.64297559216297E+00  2.95188718936801E-03
 cg2d: Sum(rhs),rhsMax =  -2.86495136008085E+00  3.00154111932129E-03
 cg2d: Sum(rhs),rhsMax =  -2.94238815350227E+00  3.02377919470017E-03
 cg2d: Sum(rhs),rhsMax =  -2.84207313476015E+00  3.04217205767046E-03
 cg2d: Sum(rhs),rhsMax =  -2.51902175807880E+00  3.13830804076827E-03
 cg2d: Sum(rhs),rhsMax =  -2.14123729901659E+00  3.18959322592929E-03
 cg2d: Sum(rhs),rhsMax =  -1.76835918324750E+00  3.18714931564215E-03
 cg2d: Sum(rhs),rhsMax =  -1.45590348646828E+00  3.13272228487010E-03
 cg2d: Sum(rhs),rhsMax =  -1.25508069515059E+00  3.03818416603620E-03
 cg2d: Sum(rhs),rhsMax =  -1.20874902357784E+00  2.92305991439793E-03
 cg2d: Sum(rhs),rhsMax =  -1.34034308962025E+00  2.81059305700081E-03
 cg2d: Sum(rhs),rhsMax =  -1.62624332707975E+00  2.74190565432486E-03
(PID.TID 0000.0001) %CHECKPOINT       100 ckptB
 --> objf_test(bi,bj)   =  0.509071982680822E-01
 --> objf_tracer(bi,bj) =  0.000000000000000E+00
 --> objf_atl(bi,bj)    =  0.000000000000000E+00
  local fc =  0.509071982680822E-01
 global fc =  0.509071982680822E-01
(PID.TID 0000.0001)  MDS_READ_FIELD: opening file: xx_depth.0000000000.001.001.data
grad-res -------------------------------
 grad-res     0    9    4    2    1    1    1    1   0.509071982062E-01 0.509071981442E-01 0.509071982681E-01
 grad-res     0    9    9    9   25    1    1    1   -.619713099253E-06 -.619306966820E-06 0.655355572350E-03
(PID.TID 0000.0001)   ADM  precision_derivative_cost =    5.09071982061515E-02
(PID.TID 0000.0001)   ADM  precision_derivative_grad =   -6.19713099253186E-07
 ph-grd  ierr ---------------------------
 ph-grd  ierr =  0, icomp =  9, ichknum =  9
 ph-grd -->hit<--  5 2 1 1
(PID.TID 0000.0001)  MDS_READ_FIELD: opening file: adxx_depth.0000000000.001.001.data
(PID.TID 0000.0001)  MDS_READ_FIELD: opening file: xx_depth.0000000000.001.001.data
(PID.TID 0000.0001)  MDS_READ_FIELD: opening global file: noWalls.bigRidge
(PID.TID 0000.0001) // =======================================================
(PID.TID 0000.0001) // Field Model R_low (ini_masks_etc) at iteration          1
(PID.TID 0000.0001) // CMIN =         -5.000000000000000E+03
(PID.TID 0000.0001) // CMAX =         -2.000000000000000E+03
(PID.TID 0000.0001) // CINT =          1.111111111111111E+02
(PID.TID 0000.0001) // SYMBOLS (CMIN->CMAX): -abcdefghijklmnopqrstuvwxyz+
(PID.TID 0000.0001) //                  0.0: .
(PID.TID 0000.0001) // RANGE I (Lo:Hi:Step):(  -1:   7:   1)
(PID.TID 0000.0001) // RANGE J (Lo:Hi:Step):(   7:  -1:  -1)
(PID.TID 0000.0001) // RANGE K (Lo:Hi:Step):(   1:   1:   1)
(PID.TID 0000.0001) // =======================================================
(PID.TID 0000.0001) K =   1
(PID.TID 0000.0001) //
(PID.TID 0000.0001) // |--J--|101234567
(PID.TID 0000.0001) //      7 ----+----
(PID.TID 0000.0001) //      6 ----+----
(PID.TID 0000.0001) //      5 ----+----
(PID.TID 0000.0001) //      4 ----+----
(PID.TID 0000.0001) //      3 ----+----
(PID.TID 0000.0001) //      2 ----+----
(PID.TID 0000.0001) //      1 ----+----
(PID.TID 0000.0001) //      0 ----+----
(PID.TID 0000.0001) //     -1 ----+----
(PID.TID 0000.0001) // =======================================================
(PID.TID 0000.0001) // END OF FIELD                                          =
(PID.TID 0000.0001) // =======================================================
(PID.TID 0000.0001) 
(PID.TID 0000.0001) // =======================================================
(PID.TID 0000.0001) // Field Model Ro_surf (ini_masks_etc) at iteration          1
(PID.TID 0000.0001) // CMIN =          1.000000000000000E+32
(PID.TID 0000.0001) // CMAX =         -1.000000000000000E+32
(PID.TID 0000.0001) // CINT =          0.000000000000000E+00
(PID.TID 0000.0001) // SYMBOLS (CMIN->CMAX): -abcdefghijklmnopqrstuvwxyz+
(PID.TID 0000.0001) //                  0.0: .
(PID.TID 0000.0001) // RANGE I (Lo:Hi:Step):(  -1:   7:   1)
(PID.TID 0000.0001) // RANGE J (Lo:Hi:Step):(   7:  -1:  -1)
(PID.TID 0000.0001) // RANGE K (Lo:Hi:Step):(   1:   1:   1)
(PID.TID 0000.0001) // =======================================================
(PID.TID 0000.0001) // =======================================================
(PID.TID 0000.0001) // END OF FIELD                                          =
(PID.TID 0000.0001) // =======================================================
(PID.TID 0000.0001) 
(PID.TID 0000.0001) // =======================================================
(PID.TID 0000.0001) // Field hFacC at iteration          1
(PID.TID 0000.0001) // CMIN =          1.000000000000000E+00
(PID.TID 0000.0001) // CMAX =          1.000000000000000E+00
(PID.TID 0000.0001) // CINT =          0.000000000000000E+00
(PID.TID 0000.0001) // SYMBOLS (CMIN->CMAX): -abcdefghijklmnopqrstuvwxyz+
(PID.TID 0000.0001) //                  0.0: .
(PID.TID 0000.0001) // RANGE I (Lo:Hi:Step):(  -1:   7:   1)
(PID.TID 0000.0001) // RANGE J (Lo:Hi:Step):(   7:  -1:  -1)
(PID.TID 0000.0001) // RANGE K (Lo:Hi:Step):(   1:   1:   1)
(PID.TID 0000.0001) // =======================================================
(PID.TID 0000.0001) // =======================================================
(PID.TID 0000.0001) // END OF FIELD                                          =
(PID.TID 0000.0001) // =======================================================
(PID.TID 0000.0001) 
(PID.TID 0000.0001) // =======================================================
(PID.TID 0000.0001) // Field hFacW at iteration          1
(PID.TID 0000.0001) // CMIN =          1.000000000000000E+00
(PID.TID 0000.0001) // CMAX =          1.000000000000000E+00
(PID.TID 0000.0001) // CINT =          0.000000000000000E+00
(PID.TID 0000.0001) // SYMBOLS (CMIN->CMAX): -abcdefghijklmnopqrstuvwxyz+
(PID.TID 0000.0001) //                  0.0: .
(PID.TID 0000.0001) // RANGE I (Lo:Hi:Step):(  -1:   7:   1)
(PID.TID 0000.0001) // RANGE J (Lo:Hi:Step):(   7:  -1:  -1)
(PID.TID 0000.0001) // RANGE K (Lo:Hi:Step):(   1:   1:   1)
(PID.TID 0000.0001) // =======================================================
(PID.TID 0000.0001) // =======================================================
(PID.TID 0000.0001) // END OF FIELD                                          =
(PID.TID 0000.0001) // =======================================================
(PID.TID 0000.0001) 
(PID.TID 0000.0001) // =======================================================
(PID.TID 0000.0001) // Field hFacS at iteration          1
(PID.TID 0000.0001) // CMIN =          1.000000000000000E+00
(PID.TID 0000.0001) // CMAX =          1.000000000000000E+00
(PID.TID 0000.0001) // CINT =          0.000000000000000E+00
(PID.TID 0000.0001) // SYMBOLS (CMIN->CMAX): -abcdefghijklmnopqrstuvwxyz+
(PID.TID 0000.0001) //                  0.0: .
(PID.TID 0000.0001) // RANGE I (Lo:Hi:Step):(  -1:   7:   1)
(PID.TID 0000.0001) // RANGE J (Lo:Hi:Step):(   7:  -1:  -1)
(PID.TID 0000.0001) // RANGE K (Lo:Hi:Step):(   1:   1:   1)
(PID.TID 0000.0001) // =======================================================
(PID.TID 0000.0001) // =======================================================
(PID.TID 0000.0001) // END OF FIELD                                          =
(PID.TID 0000.0001) // =======================================================
(PID.TID 0000.0001) 
(PID.TID 0000.0001) %MON surfExpanfCori_max           =  -1.0735540000000E-04
(PID.TID 0000.0001) %MON surfExpanfCori_min           =  -1.1783060000000E-04
(PID.TID 0000.0001) %MON surfExpanfCori_mean          =  -1.1259300000000E-04
(PID.TID 0000.0001) %MON surfExpanfCori_sd            =   3.7035424771427E-06
(PID.TID 0000.0001) %MON surfExpanfCoriG_max          =  -1.0866480000000E-04
(PID.TID 0000.0001) %MON surfExpanfCoriG_min          =  -1.1914000000000E-04
(PID.TID 0000.0001) %MON surfExpanfCoriG_mean         =  -1.1390240000000E-04
(PID.TID 0000.0001) %MON surfExpanfCoriG_sd           =   3.7035424771427E-06
(PID.TID 0000.0001) %MON surfExpanfCoriCos_max        =   0.0000000000000E+00
(PID.TID 0000.0001) %MON surfExpanfCoriCos_min        =   0.0000000000000E+00
(PID.TID 0000.0001) %MON surfExpanfCoriCos_mean       =   0.0000000000000E+00
(PID.TID 0000.0001) %MON surfExpanfCoriCos_sd         =   0.0000000000000E+00
(PID.TID 0000.0001) INI_CG2D: CG2D normalisation factor =  1.9999999999999996E-04
(PID.TID 0000.0001) 
                     ctrl_depth_ini: ctrl update R_low,
                                     adding the control vector.
(PID.TID 0000.0001)  MDS_READ_FIELD: opening file: xx_depth.0000000000.001.001.data
(PID.TID 0000.0001) // =======================================================
(PID.TID 0000.0001) // Field Model Ro_surf (update_masks_etc) at iteration          1
(PID.TID 0000.0001) // CMIN =          1.000000000000000E+32
(PID.TID 0000.0001) // CMAX =         -1.000000000000000E+32
(PID.TID 0000.0001) // CINT =          0.000000000000000E+00
(PID.TID 0000.0001) // SYMBOLS (CMIN->CMAX): -abcdefghijklmnopqrstuvwxyz+
(PID.TID 0000.0001) //                  0.0: .
(PID.TID 0000.0001) // RANGE I (Lo:Hi:Step):(  -1:   7:   1)
(PID.TID 0000.0001) // RANGE J (Lo:Hi:Step):(   7:  -1:  -1)
(PID.TID 0000.0001) // RANGE K (Lo:Hi:Step):(   1:   1:   1)
(PID.TID 0000.0001) // =======================================================
(PID.TID 0000.0001) // =======================================================
(PID.TID 0000.0001) // END OF FIELD                                          =
(PID.TID 0000.0001) // =======================================================
(PID.TID 0000.0001) 
(PID.TID 0000.0001) // =======================================================
(PID.TID 0000.0001) // Field hFacC at iteration          1
(PID.TID 0000.0001) // CMIN =          1.000000000000000E+00
(PID.TID 0000.0001) // CMAX =          1.000000000000000E+00
(PID.TID 0000.0001) // CINT =          0.000000000000000E+00
(PID.TID 0000.0001) // SYMBOLS (CMIN->CMAX): -abcdefghijklmnopqrstuvwxyz+
(PID.TID 0000.0001) //                  0.0: .
(PID.TID 0000.0001) // RANGE I (Lo:Hi:Step):(  -1:   7:   1)
(PID.TID 0000.0001) // RANGE J (Lo:Hi:Step):(   7:  -1:  -1)
(PID.TID 0000.0001) // RANGE K (Lo:Hi:Step):(   1:   1:   1)
(PID.TID 0000.0001) // =======================================================
(PID.TID 0000.0001) // =======================================================
(PID.TID 0000.0001) // END OF FIELD                                          =
(PID.TID 0000.0001) // =======================================================
(PID.TID 0000.0001) 
(PID.TID 0000.0001) // =======================================================
(PID.TID 0000.0001) // Field hFacW at iteration          1
(PID.TID 0000.0001) // CMIN =          1.000000000000000E+00
(PID.TID 0000.0001) // CMAX =          1.000000000000000E+00
(PID.TID 0000.0001) // CINT =          0.000000000000000E+00
(PID.TID 0000.0001) // SYMBOLS (CMIN->CMAX): -abcdefghijklmnopqrstuvwxyz+
(PID.TID 0000.0001) //                  0.0: .
(PID.TID 0000.0001) // RANGE I (Lo:Hi:Step):(  -1:   7:   1)
(PID.TID 0000.0001) // RANGE J (Lo:Hi:Step):(   7:  -1:  -1)
(PID.TID 0000.0001) // RANGE K (Lo:Hi:Step):(   1:   1:   1)
(PID.TID 0000.0001) // =======================================================
(PID.TID 0000.0001) // =======================================================
(PID.TID 0000.0001) // END OF FIELD                                          =
(PID.TID 0000.0001) // =======================================================
(PID.TID 0000.0001) 
(PID.TID 0000.0001) // =======================================================
(PID.TID 0000.0001) // Field hFacS at iteration          1
(PID.TID 0000.0001) // CMIN =          1.000000000000000E+00
(PID.TID 0000.0001) // CMAX =          1.000000000000000E+00
(PID.TID 0000.0001) // CINT =          0.000000000000000E+00
(PID.TID 0000.0001) // SYMBOLS (CMIN->CMAX): -abcdefghijklmnopqrstuvwxyz+
(PID.TID 0000.0001) //                  0.0: .
(PID.TID 0000.0001) // RANGE I (Lo:Hi:Step):(  -1:   7:   1)
(PID.TID 0000.0001) // RANGE J (Lo:Hi:Step):(   7:  -1:  -1)
(PID.TID 0000.0001) // RANGE K (Lo:Hi:Step):(   1:   1:   1)
(PID.TID 0000.0001) // =======================================================
(PID.TID 0000.0001) // =======================================================
(PID.TID 0000.0001) // END OF FIELD                                          =
(PID.TID 0000.0001) // =======================================================
(PID.TID 0000.0001) 
(PID.TID 0000.0001) // =======================================================
(PID.TID 0000.0001) // Field Initial Temperature at iteration          1
(PID.TID 0000.0001) // CMIN =          4.000000000000000E+00
(PID.TID 0000.0001) // CMAX =          4.000000000000000E+00
(PID.TID 0000.0001) // CINT =          0.000000000000000E+00
(PID.TID 0000.0001) // SYMBOLS (CMIN->CMAX): -abcdefghijklmnopqrstuvwxyz+
(PID.TID 0000.0001) //                  0.0: .
(PID.TID 0000.0001) // RANGE I (Lo:Hi:Step):(   1:   5:   1)
(PID.TID 0000.0001) // RANGE J (Lo:Hi:Step):(   5:   1:  -1)
(PID.TID 0000.0001) // RANGE K (Lo:Hi:Step):(   1:   1:   1)
(PID.TID 0000.0001) // =======================================================
(PID.TID 0000.0001) // =======================================================
(PID.TID 0000.0001) // END OF FIELD                                          =
(PID.TID 0000.0001) // =======================================================
(PID.TID 0000.0001) 
(PID.TID 0000.0001) // =======================================================
(PID.TID 0000.0001) // Field Initial Salinity at iteration          1
(PID.TID 0000.0001) // CMIN =          3.500000000000000E+01
(PID.TID 0000.0001) // CMAX =          3.500000000000000E+01
(PID.TID 0000.0001) // CINT =          0.000000000000000E+00
(PID.TID 0000.0001) // SYMBOLS (CMIN->CMAX): -abcdefghijklmnopqrstuvwxyz+
(PID.TID 0000.0001) //                  0.0: .
(PID.TID 0000.0001) // RANGE I (Lo:Hi:Step):(   1:   5:   1)
(PID.TID 0000.0001) // RANGE J (Lo:Hi:Step):(   5:   1:  -1)
(PID.TID 0000.0001) // RANGE K (Lo:Hi:Step):(   1:   1:   1)
(PID.TID 0000.0001) // =======================================================
(PID.TID 0000.0001) // =======================================================
(PID.TID 0000.0001) // END OF FIELD                                          =
(PID.TID 0000.0001) // =======================================================
(PID.TID 0000.0001) 
(PID.TID 0000.0001) Start initial hydrostatic pressure computation
(PID.TID 0000.0001) Pressure is predetermined for buoyancyRelation OCEANIC
(PID.TID 0000.0001) 
(PID.TID 0000.0001)  MDS_READ_FIELD: opening global file: windx.sin_y
(PID.TID 0000.0001) // =======================================================
(PID.TID 0000.0001) // Model current state
(PID.TID 0000.0001) // =======================================================
(PID.TID 0000.0001) 
 cg2d: Sum(rhs),rhsMax =   0.00000000000000E+00  0.00000000000000E+00
 cg2d: Sum(rhs),rhsMax =  -2.49999999999996E+01  6.03492218443698E-05
 cg2d: Sum(rhs),rhsMax =  -1.81034404639062E+01  2.18766023587219E-04
 cg2d: Sum(rhs),rhsMax =  -1.54955562832147E+01  4.32479836297446E-04
 cg2d: Sum(rhs),rhsMax =  -1.41111452328285E+01  6.49958988329017E-04
 cg2d: Sum(rhs),rhsMax =  -1.31144322332375E+01  8.30737102830124E-04
 cg2d: Sum(rhs),rhsMax =  -1.21209090327093E+01  9.52510661952568E-04
 cg2d: Sum(rhs),rhsMax =  -1.07124742373492E+01  1.02806631161966E-03
 cg2d: Sum(rhs),rhsMax =  -7.41375936669900E+00  1.27086596333556E-03
 cg2d: Sum(rhs),rhsMax =  -4.70217533460676E+00  1.51019014092290E-03
 cg2d: Sum(rhs),rhsMax =  -2.72440685931939E+00  1.65833738307113E-03
 cg2d: Sum(rhs),rhsMax =  -1.27958669047714E+00  1.70565508822642E-03
 cg2d: Sum(rhs),rhsMax =  -3.29564699098921E-01  1.66071960609364E-03
 cg2d: Sum(rhs),rhsMax =   5.21320407889568E-02  1.54812756156515E-03
 cg2d: Sum(rhs),rhsMax =  -2.86625374212871E-01  1.40338816094231E-03
 cg2d: Sum(rhs),rhsMax =  -1.30315843461390E+00  1.44268599556539E-03
 cg2d: Sum(rhs),rhsMax =  -2.68067690628683E+00  1.50836886426706E-03
 cg2d: Sum(rhs),rhsMax =  -4.07407454041395E+00  1.58424366632504E-03
 cg2d: Sum(rhs),rhsMax =  -5.18272349028117E+00  1.66593592517242E-03
 cg2d: Sum(rhs),rhsMax =  -5.80990599603070E+00  1.74846174951354E-03
 cg2d: Sum(rhs),rhsMax =  -5.87740628982531E+00  1.82725970739105E-03
 cg2d: Sum(rhs),rhsMax =  -5.41358312682075E+00  1.89900434202047E-03
 cg2d: Sum(rhs),rhsMax =  -4.53080677824373E+00  1.96213934062877E-03
 cg2d: Sum(rhs),rhsMax =  -3.22587898734679E+00  2.12611202788195E-03
 cg2d: Sum(rhs),rhsMax =  -2.04447211734006E+00  2.24837953957369E-03
 cg2d: Sum(rhs),rhsMax =  -1.10818137178736E+00  2.30404049382421E-03
 cg2d: Sum(rhs),rhsMax =  -4.90484879813380E-01  2.29576532645684E-03
 cg2d: Sum(rhs),rhsMax =  -2.61247063432755E-01  2.23814842414656E-03
 cg2d: Sum(rhs),rhsMax =  -4.50921968936153E-01  2.26266906681830E-03
 cg2d: Sum(rhs),rhsMax =  -1.00469610716659E+00  2.31946122756826E-03
 cg2d: Sum(rhs),rhsMax =  -1.78565331612269E+00  2.37599941258487E-03
 cg2d: Sum(rhs),rhsMax =  -2.62429309188763E+00  2.42805543023994E-03
 cg2d: Sum(rhs),rhsMax =  -3.35748487260237E+00  2.47123044568520E-03
 cg2d: Sum(rhs),rhsMax =  -3.85508918606606E+00  2.50195597784216E-03
 cg2d: Sum(rhs),rhsMax =  -4.03589979111605E+00  2.51830321913482E-03
 cg2d: Sum(rhs),rhsMax =  -3.87512849097925E+00  2.52047518411691E-03
 cg2d: Sum(rhs),rhsMax =  -3.40600369644530E+00  2.51092921051717E-03
 cg2d: Sum(rhs),rhsMax =  -2.61682442592752E+00  2.58874088026958E-03
 cg2d: Sum(rhs),rhsMax =  -1.83238711651791E+00  2.61669730691513E-03
 cg2d: Sum(rhs),rhsMax =  -1.17513337799404E+00  2.56005946981861E-03
 cg2d: Sum(rhs),rhsMax =  -7.11994616975046E-01  2.47855830620587E-03
 cg2d: Sum(rhs),rhsMax =  -5.26422153296267E-01  2.47042091949449E-03
 cg2d: Sum(rhs),rhsMax =  -6.78930217874178E-01  2.49676869745977E-03
 cg2d: Sum(rhs),rhsMax =  -1.12673722591372E+00  2.53652610867679E-03
 cg2d: Sum(rhs),rhsMax =  -1.75981626265211E+00  2.58504763239770E-03
 cg2d: Sum(rhs),rhsMax =  -2.43940637034863E+00  2.63568089605000E-03
 cg2d: Sum(rhs),rhsMax =  -3.03203011007918E+00  2.68092813101024E-03
 cg2d: Sum(rhs),rhsMax =  -3.40991311653689E+00  2.73286304635407E-03
 cg2d: Sum(rhs),rhsMax =  -3.48046022813204E+00  2.80943923319330E-03
 cg2d: Sum(rhs),rhsMax =  -3.32063072457163E+00  2.84054009850292E-03
 cg2d: Sum(rhs),rhsMax =  -2.96079446855498E+00  2.82589059013051E-03
 cg2d: Sum(rhs),rhsMax =  -2.32992810174424E+00  2.92147976794271E-03
 cg2d: Sum(rhs),rhsMax =  -1.72242455548469E+00  2.94384965013617E-03
 cg2d: Sum(rhs),rhsMax =  -1.21221903260852E+00  2.89157782060632E-03
 cg2d: Sum(rhs),rhsMax =  -8.69698392489421E-01  2.78046459738814E-03
 cg2d: Sum(rhs),rhsMax =  -7.64867803717369E-01  2.63730952409960E-03
 cg2d: Sum(rhs),rhsMax =  -9.31747850358442E-01  2.54529704061614E-03
 cg2d: Sum(rhs),rhsMax =  -1.31074338969459E+00  2.59464769199934E-03
 cg2d: Sum(rhs),rhsMax =  -1.82960843240015E+00  2.67470088795294E-03
 cg2d: Sum(rhs),rhsMax =  -2.36415409227911E+00  2.77096212851229E-03
 cg2d: Sum(rhs),rhsMax =  -2.80794779368024E+00  2.86583706864422E-03
 cg2d: Sum(rhs),rhsMax =  -3.09076537672871E+00  2.94225355096566E-03
 cg2d: Sum(rhs),rhsMax =  -3.17911023415908E+00  2.98708408121359E-03
 cg2d: Sum(rhs),rhsMax =  -3.06968980185696E+00  2.99369703133077E-03
 cg2d: Sum(rhs),rhsMax =  -2.74200029333034E+00  3.00868118785610E-03
 cg2d: Sum(rhs),rhsMax =  -2.22987017502657E+00  3.08320499365208E-03
 cg2d: Sum(rhs),rhsMax =  -1.72892383756293E+00  3.09216605547368E-03
 cg2d: Sum(rhs),rhsMax =  -1.30661126056556E+00  3.03707927259297E-03
 cg2d: Sum(rhs),rhsMax =  -1.02724587778669E+00  2.93201258012345E-03
 cg2d: Sum(rhs),rhsMax =  -9.49612085720372E-01  2.80059571892520E-03
 cg2d: Sum(rhs),rhsMax =  -1.10546682573368E+00  2.68802012826293E-03
 cg2d: Sum(rhs),rhsMax =  -1.41911846911240E+00  2.73183504723642E-03
 cg2d: Sum(rhs),rhsMax =  -1.85263653357515E+00  2.80075124871636E-03
 cg2d: Sum(rhs),rhsMax =  -2.30607106246564E+00  2.88121985266428E-03
 cg2d: Sum(rhs),rhsMax =  -2.69038333874816E+00  2.95745899653948E-03
 cg2d: Sum(rhs),rhsMax =  -2.94313285696022E+00  3.01465310864526E-03
 cg2d: Sum(rhs),rhsMax =  -3.03123924402756E+00  3.04190027258863E-03
 cg2d: Sum(rhs),rhsMax =  -2.94785322692054E+00  3.03433141665300E-03
 cg2d: Sum(rhs),rhsMax =  -2.61356654146122E+00  3.10365981948564E-03
 cg2d: Sum(rhs),rhsMax =  -2.18161316697945E+00  3.16115508959871E-03
 cg2d: Sum(rhs),rhsMax =  -1.75526123402533E+00  3.15966317535451E-03
 cg2d: Sum(rhs),rhsMax =  -1.39603743306562E+00  3.10114916409570E-03
 cg2d: Sum(rhs),rhsMax =  -1.16177140154175E+00  2.99876549776695E-03
 cg2d: Sum(rhs),rhsMax =  -1.10293747326431E+00  2.87411087688172E-03
 cg2d: Sum(rhs),rhsMax =  -1.24975134095904E+00  2.75286359034919E-03
 cg2d: Sum(rhs),rhsMax =  -1.53840871019316E+00  2.75098216494770E-03
 cg2d: Sum(rhs),rhsMax =  -1.91301874697218E+00  2.81271668942096E-03
 cg2d: Sum(rhs),rhsMax =  -2.30705943065286E+00  2.88449381017196E-03
 cg2d: Sum(rhs),rhsMax =  -2.64297556017463E+00  2.95188725524065E-03
 cg2d: Sum(rhs),rhsMax =  -2.86495132358498E+00  3.00154118721815E-03
 cg2d: Sum(rhs),rhsMax =  -2.94238811535263E+00  3.02377926458710E-03
 cg2d: Sum(rhs),rhsMax =  -2.84207310914240E+00  3.04217211871224E-03
 cg2d: Sum(rhs),rhsMax =  -2.51902173999451E+00  3.13830810331038E-03
 cg2d: Sum(rhs),rhsMax =  -2.14123728923335E+00  3.18959329001122E-03
 cg2d: Sum(rhs),rhsMax =  -1.76835918171713E+00  3.18714938130608E-03
 cg2d: Sum(rhs),rhsMax =  -1.45590349239337E+00  3.13272235215445E-03
 cg2d: Sum(rhs),rhsMax =  -1.25508070679521E+00  3.03818423497005E-03
 cg2d: Sum(rhs),rhsMax =  -1.20874903796753E+00  2.92305998499717E-03
 cg2d: Sum(rhs),rhsMax =  -1.34034310249509E+00  2.81059312926706E-03
 cg2d: Sum(rhs),rhsMax =  -1.62624333572587E+00  2.74190572512224E-03
(PID.TID 0000.0001) %CHECKPOINT       100 ckptA
 --> objf_test(bi,bj)   =  0.509071983152976E-01
 --> objf_tracer(bi,bj) =  0.000000000000000E+00
 --> objf_atl(bi,bj)    =  0.000000000000000E+00
  local fc =  0.509071983152976E-01
 global fc =  0.509071983152976E-01
 ph-check fcpertplus =   0.0509071983
(PID.TID 0000.0001)  MDS_READ_FIELD: opening file: xx_depth.0000000000.001.001.data
 ph-check fcpertminus =   0.0509071982
(PID.TID 0000.0001)  MDS_READ_FIELD: opening file: xx_depth.0000000000.001.001.data
(PID.TID 0000.0001)  MDS_READ_FIELD: opening global file: noWalls.bigRidge
(PID.TID 0000.0001) // =======================================================
(PID.TID 0000.0001) // Field Model R_low (ini_masks_etc) at iteration          1
(PID.TID 0000.0001) // CMIN =         -5.000000000000000E+03
(PID.TID 0000.0001) // CMAX =         -2.000000000000000E+03
(PID.TID 0000.0001) // CINT =          1.111111111111111E+02
(PID.TID 0000.0001) // SYMBOLS (CMIN->CMAX): -abcdefghijklmnopqrstuvwxyz+
(PID.TID 0000.0001) //                  0.0: .
(PID.TID 0000.0001) // RANGE I (Lo:Hi:Step):(  -1:   7:   1)
(PID.TID 0000.0001) // RANGE J (Lo:Hi:Step):(   7:  -1:  -1)
(PID.TID 0000.0001) // RANGE K (Lo:Hi:Step):(   1:   1:   1)
(PID.TID 0000.0001) // =======================================================
(PID.TID 0000.0001) K =   1
(PID.TID 0000.0001) //
(PID.TID 0000.0001) // |--J--|101234567
(PID.TID 0000.0001) //      7 ----+----
(PID.TID 0000.0001) //      6 ----+----
(PID.TID 0000.0001) //      5 ----+----
(PID.TID 0000.0001) //      4 ----+----
(PID.TID 0000.0001) //      3 ----+----
(PID.TID 0000.0001) //      2 ----+----
(PID.TID 0000.0001) //      1 ----+----
(PID.TID 0000.0001) //      0 ----+----
(PID.TID 0000.0001) //     -1 ----+----
(PID.TID 0000.0001) // =======================================================
(PID.TID 0000.0001) // END OF FIELD                                          =
(PID.TID 0000.0001) // =======================================================
(PID.TID 0000.0001) 
(PID.TID 0000.0001) // =======================================================
(PID.TID 0000.0001) // Field Model Ro_surf (ini_masks_etc) at iteration          1
(PID.TID 0000.0001) // CMIN =          1.000000000000000E+32
(PID.TID 0000.0001) // CMAX =         -1.000000000000000E+32
(PID.TID 0000.0001) // CINT =          0.000000000000000E+00
(PID.TID 0000.0001) // SYMBOLS (CMIN->CMAX): -abcdefghijklmnopqrstuvwxyz+
(PID.TID 0000.0001) //                  0.0: .
(PID.TID 0000.0001) // RANGE I (Lo:Hi:Step):(  -1:   7:   1)
(PID.TID 0000.0001) // RANGE J (Lo:Hi:Step):(   7:  -1:  -1)
(PID.TID 0000.0001) // RANGE K (Lo:Hi:Step):(   1:   1:   1)
(PID.TID 0000.0001) // =======================================================
(PID.TID 0000.0001) // =======================================================
(PID.TID 0000.0001) // END OF FIELD                                          =
(PID.TID 0000.0001) // =======================================================
(PID.TID 0000.0001) 
(PID.TID 0000.0001) // =======================================================
(PID.TID 0000.0001) // Field hFacC at iteration          1
(PID.TID 0000.0001) // CMIN =          1.000000000000000E+00
(PID.TID 0000.0001) // CMAX =          1.000000000000000E+00
(PID.TID 0000.0001) // CINT =          0.000000000000000E+00
(PID.TID 0000.0001) // SYMBOLS (CMIN->CMAX): -abcdefghijklmnopqrstuvwxyz+
(PID.TID 0000.0001) //                  0.0: .
(PID.TID 0000.0001) // RANGE I (Lo:Hi:Step):(  -1:   7:   1)
(PID.TID 0000.0001) // RANGE J (Lo:Hi:Step):(   7:  -1:  -1)
(PID.TID 0000.0001) // RANGE K (Lo:Hi:Step):(   1:   1:   1)
(PID.TID 0000.0001) // =======================================================
(PID.TID 0000.0001) // =======================================================
(PID.TID 0000.0001) // END OF FIELD                                          =
(PID.TID 0000.0001) // =======================================================
(PID.TID 0000.0001) 
(PID.TID 0000.0001) // =======================================================
(PID.TID 0000.0001) // Field hFacW at iteration          1
(PID.TID 0000.0001) // CMIN =          1.000000000000000E+00
(PID.TID 0000.0001) // CMAX =          1.000000000000000E+00
(PID.TID 0000.0001) // CINT =          0.000000000000000E+00
(PID.TID 0000.0001) // SYMBOLS (CMIN->CMAX): -abcdefghijklmnopqrstuvwxyz+
(PID.TID 0000.0001) //                  0.0: .
(PID.TID 0000.0001) // RANGE I (Lo:Hi:Step):(  -1:   7:   1)
(PID.TID 0000.0001) // RANGE J (Lo:Hi:Step):(   7:  -1:  -1)
(PID.TID 0000.0001) // RANGE K (Lo:Hi:Step):(   1:   1:   1)
(PID.TID 0000.0001) // =======================================================
(PID.TID 0000.0001) // =======================================================
(PID.TID 0000.0001) // END OF FIELD                                          =
(PID.TID 0000.0001) // =======================================================
(PID.TID 0000.0001) 
(PID.TID 0000.0001) // =======================================================
(PID.TID 0000.0001) // Field hFacS at iteration          1
(PID.TID 0000.0001) // CMIN =          1.000000000000000E+00
(PID.TID 0000.0001) // CMAX =          1.000000000000000E+00
(PID.TID 0000.0001) // CINT =          0.000000000000000E+00
(PID.TID 0000.0001) // SYMBOLS (CMIN->CMAX): -abcdefghijklmnopqrstuvwxyz+
(PID.TID 0000.0001) //                  0.0: .
(PID.TID 0000.0001) // RANGE I (Lo:Hi:Step):(  -1:   7:   1)
(PID.TID 0000.0001) // RANGE J (Lo:Hi:Step):(   7:  -1:  -1)
(PID.TID 0000.0001) // RANGE K (Lo:Hi:Step):(   1:   1:   1)
(PID.TID 0000.0001) // =======================================================
(PID.TID 0000.0001) // =======================================================
(PID.TID 0000.0001) // END OF FIELD                                          =
(PID.TID 0000.0001) // =======================================================
(PID.TID 0000.0001) 
(PID.TID 0000.0001) %MON surfExpanfCori_max           =  -1.0735540000000E-04
(PID.TID 0000.0001) %MON surfExpanfCori_min           =  -1.1783060000000E-04
(PID.TID 0000.0001) %MON surfExpanfCori_mean          =  -1.1259300000000E-04
(PID.TID 0000.0001) %MON surfExpanfCori_sd            =   3.7035424771427E-06
(PID.TID 0000.0001) %MON surfExpanfCoriG_max          =  -1.0866480000000E-04
(PID.TID 0000.0001) %MON surfExpanfCoriG_min          =  -1.1914000000000E-04
(PID.TID 0000.0001) %MON surfExpanfCoriG_mean         =  -1.1390240000000E-04
(PID.TID 0000.0001) %MON surfExpanfCoriG_sd           =   3.7035424771427E-06
(PID.TID 0000.0001) %MON surfExpanfCoriCos_max        =   0.0000000000000E+00
(PID.TID 0000.0001) %MON surfExpanfCoriCos_min        =   0.0000000000000E+00
(PID.TID 0000.0001) %MON surfExpanfCoriCos_mean       =   0.0000000000000E+00
(PID.TID 0000.0001) %MON surfExpanfCoriCos_sd         =   0.0000000000000E+00
(PID.TID 0000.0001) INI_CG2D: CG2D normalisation factor =  1.9999999999999996E-04
(PID.TID 0000.0001) 
                     ctrl_depth_ini: ctrl update R_low,
                                     adding the control vector.
(PID.TID 0000.0001)  MDS_READ_FIELD: opening file: xx_depth.0000000000.001.001.data
(PID.TID 0000.0001) // =======================================================
(PID.TID 0000.0001) // Field Model Ro_surf (update_masks_etc) at iteration          1
(PID.TID 0000.0001) // CMIN =          1.000000000000000E+32
(PID.TID 0000.0001) // CMAX =         -1.000000000000000E+32
(PID.TID 0000.0001) // CINT =          0.000000000000000E+00
(PID.TID 0000.0001) // SYMBOLS (CMIN->CMAX): -abcdefghijklmnopqrstuvwxyz+
(PID.TID 0000.0001) //                  0.0: .
(PID.TID 0000.0001) // RANGE I (Lo:Hi:Step):(  -1:   7:   1)
(PID.TID 0000.0001) // RANGE J (Lo:Hi:Step):(   7:  -1:  -1)
(PID.TID 0000.0001) // RANGE K (Lo:Hi:Step):(   1:   1:   1)
(PID.TID 0000.0001) // =======================================================
(PID.TID 0000.0001) // =======================================================
(PID.TID 0000.0001) // END OF FIELD                                          =
(PID.TID 0000.0001) // =======================================================
(PID.TID 0000.0001) 
(PID.TID 0000.0001) // =======================================================
(PID.TID 0000.0001) // Field hFacC at iteration          1
(PID.TID 0000.0001) // CMIN =          1.000000000000000E+00
(PID.TID 0000.0001) // CMAX =          1.000000000000000E+00
(PID.TID 0000.0001) // CINT =          0.000000000000000E+00
(PID.TID 0000.0001) // SYMBOLS (CMIN->CMAX): -abcdefghijklmnopqrstuvwxyz+
(PID.TID 0000.0001) //                  0.0: .
(PID.TID 0000.0001) // RANGE I (Lo:Hi:Step):(  -1:   7:   1)
(PID.TID 0000.0001) // RANGE J (Lo:Hi:Step):(   7:  -1:  -1)
(PID.TID 0000.0001) // RANGE K (Lo:Hi:Step):(   1:   1:   1)
(PID.TID 0000.0001) // =======================================================
(PID.TID 0000.0001) // =======================================================
(PID.TID 0000.0001) // END OF FIELD                                          =
(PID.TID 0000.0001) // =======================================================
(PID.TID 0000.0001) 
(PID.TID 0000.0001) // =======================================================
(PID.TID 0000.0001) // Field hFacW at iteration          1
(PID.TID 0000.0001) // CMIN =          1.000000000000000E+00
(PID.TID 0000.0001) // CMAX =          1.000000000000000E+00
(PID.TID 0000.0001) // CINT =          0.000000000000000E+00
(PID.TID 0000.0001) // SYMBOLS (CMIN->CMAX): -abcdefghijklmnopqrstuvwxyz+
(PID.TID 0000.0001) //                  0.0: .
(PID.TID 0000.0001) // RANGE I (Lo:Hi:Step):(  -1:   7:   1)
(PID.TID 0000.0001) // RANGE J (Lo:Hi:Step):(   7:  -1:  -1)
(PID.TID 0000.0001) // RANGE K (Lo:Hi:Step):(   1:   1:   1)
(PID.TID 0000.0001) // =======================================================
(PID.TID 0000.0001) // =======================================================
(PID.TID 0000.0001) // END OF FIELD                                          =
(PID.TID 0000.0001) // =======================================================
(PID.TID 0000.0001) 
(PID.TID 0000.0001) // =======================================================
(PID.TID 0000.0001) // Field hFacS at iteration          1
(PID.TID 0000.0001) // CMIN =          1.000000000000000E+00
(PID.TID 0000.0001) // CMAX =          1.000000000000000E+00
(PID.TID 0000.0001) // CINT =          0.000000000000000E+00
(PID.TID 0000.0001) // SYMBOLS (CMIN->CMAX): -abcdefghijklmnopqrstuvwxyz+
(PID.TID 0000.0001) //                  0.0: .
(PID.TID 0000.0001) // RANGE I (Lo:Hi:Step):(  -1:   7:   1)
(PID.TID 0000.0001) // RANGE J (Lo:Hi:Step):(   7:  -1:  -1)
(PID.TID 0000.0001) // RANGE K (Lo:Hi:Step):(   1:   1:   1)
(PID.TID 0000.0001) // =======================================================
(PID.TID 0000.0001) // =======================================================
(PID.TID 0000.0001) // END OF FIELD                                          =
(PID.TID 0000.0001) // =======================================================
(PID.TID 0000.0001) 
(PID.TID 0000.0001) // =======================================================
(PID.TID 0000.0001) // Field Initial Temperature at iteration          1
(PID.TID 0000.0001) // CMIN =          4.000000000000000E+00
(PID.TID 0000.0001) // CMAX =          4.000000000000000E+00
(PID.TID 0000.0001) // CINT =          0.000000000000000E+00
(PID.TID 0000.0001) // SYMBOLS (CMIN->CMAX): -abcdefghijklmnopqrstuvwxyz+
(PID.TID 0000.0001) //                  0.0: .
(PID.TID 0000.0001) // RANGE I (Lo:Hi:Step):(   1:   5:   1)
(PID.TID 0000.0001) // RANGE J (Lo:Hi:Step):(   5:   1:  -1)
(PID.TID 0000.0001) // RANGE K (Lo:Hi:Step):(   1:   1:   1)
(PID.TID 0000.0001) // =======================================================
(PID.TID 0000.0001) // =======================================================
(PID.TID 0000.0001) // END OF FIELD                                          =
(PID.TID 0000.0001) // =======================================================
(PID.TID 0000.0001) 
(PID.TID 0000.0001) // =======================================================
(PID.TID 0000.0001) // Field Initial Salinity at iteration          1
(PID.TID 0000.0001) // CMIN =          3.500000000000000E+01
(PID.TID 0000.0001) // CMAX =          3.500000000000000E+01
(PID.TID 0000.0001) // CINT =          0.000000000000000E+00
(PID.TID 0000.0001) // SYMBOLS (CMIN->CMAX): -abcdefghijklmnopqrstuvwxyz+
(PID.TID 0000.0001) //                  0.0: .
(PID.TID 0000.0001) // RANGE I (Lo:Hi:Step):(   1:   5:   1)
(PID.TID 0000.0001) // RANGE J (Lo:Hi:Step):(   5:   1:  -1)
(PID.TID 0000.0001) // RANGE K (Lo:Hi:Step):(   1:   1:   1)
(PID.TID 0000.0001) // =======================================================
(PID.TID 0000.0001) // =======================================================
(PID.TID 0000.0001) // END OF FIELD                                          =
(PID.TID 0000.0001) // =======================================================
(PID.TID 0000.0001) 
(PID.TID 0000.0001) Start initial hydrostatic pressure computation
(PID.TID 0000.0001) Pressure is predetermined for buoyancyRelation OCEANIC
(PID.TID 0000.0001) 
(PID.TID 0000.0001)  MDS_READ_FIELD: opening global file: windx.sin_y
(PID.TID 0000.0001) // =======================================================
(PID.TID 0000.0001) // Model current state
(PID.TID 0000.0001) // =======================================================
(PID.TID 0000.0001) 
 cg2d: Sum(rhs),rhsMax =   0.00000000000000E+00  0.00000000000000E+00
 cg2d: Sum(rhs),rhsMax =  -2.49999999999996E+01  6.03492218443698E-05
 cg2d: Sum(rhs),rhsMax =  -1.81034404639062E+01  2.18766023587219E-04
 cg2d: Sum(rhs),rhsMax =  -1.54955562832148E+01  4.32479836297446E-04
 cg2d: Sum(rhs),rhsMax =  -1.41111452330707E+01  6.49958988317814E-04
 cg2d: Sum(rhs),rhsMax =  -1.31144322332850E+01  8.30737102826645E-04
 cg2d: Sum(rhs),rhsMax =  -1.21209090323681E+01  9.52510661978028E-04
 cg2d: Sum(rhs),rhsMax =  -1.07124742370643E+01  1.02806631164449E-03
 cg2d: Sum(rhs),rhsMax =  -7.41375936661504E+00  1.27086596334588E-03
 cg2d: Sum(rhs),rhsMax =  -4.70217533450134E+00  1.51019014095326E-03
 cg2d: Sum(rhs),rhsMax =  -2.72440685923897E+00  1.65833738312908E-03
 cg2d: Sum(rhs),rhsMax =  -1.27958669046891E+00  1.70565508831627E-03
 cg2d: Sum(rhs),rhsMax =  -3.29564699206073E-01  1.66071960621415E-03
 cg2d: Sum(rhs),rhsMax =   5.21320405419786E-02  1.54812756170748E-03
 cg2d: Sum(rhs),rhsMax =  -2.86625374588098E-01  1.40338816108879E-03
 cg2d: Sum(rhs),rhsMax =  -1.30315843278971E+00  1.44268599819196E-03
 cg2d: Sum(rhs),rhsMax =  -2.68067689970159E+00  1.50836886835803E-03
 cg2d: Sum(rhs),rhsMax =  -4.07407452661682E+00  1.58424367200634E-03
 cg2d: Sum(rhs),rhsMax =  -5.18272346869736E+00  1.66593593240921E-03
 cg2d: Sum(rhs),rhsMax =  -5.80990596853072E+00  1.74846175810201E-03
 cg2d: Sum(rhs),rhsMax =  -5.87740626012586E+00  1.82725971698010E-03
 cg2d: Sum(rhs),rhsMax =  -5.41358309916498E+00  1.89900435216107E-03
 cg2d: Sum(rhs),rhsMax =  -4.53080675602725E+00  1.96213935084305E-03
 cg2d: Sum(rhs),rhsMax =  -3.22587899082290E+00  2.12611202652722E-03
 cg2d: Sum(rhs),rhsMax =  -2.04447212032465E+00  2.24837953794404E-03
 cg2d: Sum(rhs),rhsMax =  -1.10818137433108E+00  2.30404049192537E-03
 cg2d: Sum(rhs),rhsMax =  -4.90484882079246E-01  2.29576532429708E-03
 cg2d: Sum(rhs),rhsMax =  -2.61247065734147E-01  2.23814842173261E-03
 cg2d: Sum(rhs),rhsMax =  -4.50921969706926E-01  2.26266907375192E-03
 cg2d: Sum(rhs),rhsMax =  -1.00469610627406E+00  2.31946123477946E-03
 cg2d: Sum(rhs),rhsMax =  -1.78565331245239E+00  2.37599942050287E-03
 cg2d: Sum(rhs),rhsMax =  -2.62429308449548E+00  2.42805543920989E-03
 cg2d: Sum(rhs),rhsMax =  -3.35748486101436E+00  2.47123045590972E-03
 cg2d: Sum(rhs),rhsMax =  -3.85508917062245E+00  2.50195598935016E-03
 cg2d: Sum(rhs),rhsMax =  -4.03589977310987E+00  2.51830323178251E-03
 cg2d: Sum(rhs),rhsMax =  -3.87512847245165E+00  2.52047519761969E-03
 cg2d: Sum(rhs),rhsMax =  -3.40600367966667E+00  2.51092922450532E-03
 cg2d: Sum(rhs),rhsMax =  -2.61682444034229E+00  2.58874086805897E-03
 cg2d: Sum(rhs),rhsMax =  -1.83238712749342E+00  2.61669729406242E-03
 cg2d: Sum(rhs),rhsMax =  -1.17513338620401E+00  2.56005945611511E-03
 cg2d: Sum(rhs),rhsMax =  -7.11994621015687E-01  2.47855829857072E-03
 cg2d: Sum(rhs),rhsMax =  -5.26422152342556E-01  2.47042093182333E-03
 cg2d: Sum(rhs),rhsMax =  -6.78930216034660E-01  2.49676870945902E-03
 cg2d: Sum(rhs),rhsMax =  -1.12673722172890E+00  2.53652612059697E-03
 cg2d: Sum(rhs),rhsMax =  -1.75981625514271E+00  2.58504764451246E-03
 cg2d: Sum(rhs),rhsMax =  -2.43940635904465E+00  2.63568090860243E-03
 cg2d: Sum(rhs),rhsMax =  -3.03203009504007E+00  2.68092814417030E-03
 cg2d: Sum(rhs),rhsMax =  -3.40991312054100E+00  2.73286304261551E-03
 cg2d: Sum(rhs),rhsMax =  -3.48046023658421E+00  2.80943922541814E-03
 cg2d: Sum(rhs),rhsMax =  -3.32063073718771E+00  2.84054008622814E-03
 cg2d: Sum(rhs),rhsMax =  -2.96079448341210E+00  2.82589057371662E-03
 cg2d: Sum(rhs),rhsMax =  -2.32992812035866E+00  2.92147974100610E-03
 cg2d: Sum(rhs),rhsMax =  -1.72242456843261E+00  2.94384962207008E-03
 cg2d: Sum(rhs),rhsMax =  -1.21221904068642E+00  2.89157779129789E-03
 cg2d: Sum(rhs),rhsMax =  -8.69698396955473E-01  2.78046456673436E-03
 cg2d: Sum(rhs),rhsMax =  -7.64867806774994E-01  2.63730949202327E-03
 cg2d: Sum(rhs),rhsMax =  -9.31747848481694E-01  2.54529702547568E-03
 cg2d: Sum(rhs),rhsMax =  -1.31074338813664E+00  2.59464767867822E-03
 cg2d: Sum(rhs),rhsMax =  -1.82960843190058E+00  2.67470087538319E-03
 cg2d: Sum(rhs),rhsMax =  -2.36415409363690E+00  2.77096211534429E-03
 cg2d: Sum(rhs),rhsMax =  -2.80794779778935E+00  2.86583705355800E-03
 cg2d: Sum(rhs),rhsMax =  -3.09076538409411E+00  2.94225353296958E-03
 cg2d: Sum(rhs),rhsMax =  -3.17911024434816E+00  2.98708405986653E-03
 cg2d: Sum(rhs),rhsMax =  -3.06968981327656E+00  2.99369700684181E-03
 cg2d: Sum(rhs),rhsMax =  -2.74200031943728E+00  3.00868114294440E-03
 cg2d: Sum(rhs),rhsMax =  -2.22987019299292E+00  3.08320494716704E-03
 cg2d: Sum(rhs),rhsMax =  -1.72892384767195E+00  3.09216600732977E-03
 cg2d: Sum(rhs),rhsMax =  -1.30661126365758E+00  3.03707922272019E-03
 cg2d: Sum(rhs),rhsMax =  -1.02724587552506E+00  2.93201252848067E-03
 cg2d: Sum(rhs),rhsMax =  -9.49612081074525E-01  2.80059566550765E-03
 cg2d: Sum(rhs),rhsMax =  -1.10546680804057E+00  2.68802010979597E-03
 cg2d: Sum(rhs),rhsMax =  -1.41911845152167E+00  2.73183503007304E-03
 cg2d: Sum(rhs),rhsMax =  -1.85263651746774E+00  2.80075123147578E-03
 cg2d: Sum(rhs),rhsMax =  -2.30607104908905E+00  2.88121983386959E-03
 cg2d: Sum(rhs),rhsMax =  -2.69038332903712E+00  2.95745897492644E-03
 cg2d: Sum(rhs),rhsMax =  -2.94313285107131E+00  3.01465308343058E-03
 cg2d: Sum(rhs),rhsMax =  -3.03123924094428E+00  3.04190024364202E-03
 cg2d: Sum(rhs),rhsMax =  -2.94785322440454E+00  3.03433138453772E-03
 cg2d: Sum(rhs),rhsMax =  -2.61356656380038E+00  3.10365975183274E-03
 cg2d: Sum(rhs),rhsMax =  -2.18161317924674E+00  3.16115502019011E-03
 cg2d: Sum(rhs),rhsMax =  -1.75526123633114E+00  3.15966310409022E-03
 cg2d: Sum(rhs),rhsMax =  -1.39603742635816E+00  3.10114909089967E-03
 cg2d: Sum(rhs),rhsMax =  -1.16177138789957E+00  2.99876542260122E-03
 cg2d: Sum(rhs),rhsMax =  -1.10293745637985E+00  2.87411079975329E-03
 cg2d: Sum(rhs),rhsMax =  -1.24975132631129E+00  2.75286351130845E-03
 cg2d: Sum(rhs),rhsMax =  -1.53840866821838E+00  2.75098214589381E-03
 cg2d: Sum(rhs),rhsMax =  -1.91301870605754E+00  2.81271667083431E-03
 cg2d: Sum(rhs),rhsMax =  -2.30705939209058E+00  2.88449379048808E-03
 cg2d: Sum(rhs),rhsMax =  -2.64297552483868E+00  2.95188723312261E-03
 cg2d: Sum(rhs),rhsMax =  -2.86495129154190E+00  3.00154116181835E-03
 cg2d: Sum(rhs),rhsMax =  -2.94238808553193E+00  3.02377923571053E-03
 cg2d: Sum(rhs),rhsMax =  -2.84207313392760E+00  3.04217202839569E-03
 cg2d: Sum(rhs),rhsMax =  -2.51902175408294E+00  3.13830801138046E-03
 cg2d: Sum(rhs),rhsMax =  -2.14123729147255E+00  3.18959319637769E-03
 cg2d: Sum(rhs),rhsMax =  -1.76835917214183E+00  3.18714928587888E-03
 cg2d: Sum(rhs),rhsMax =  -1.45590347212433E+00  3.13272225486129E-03
 cg2d: Sum(rhs),rhsMax =  -1.25508067831463E+00  3.03818413577003E-03
 cg2d: Sum(rhs),rhsMax =  -1.20874900554911E+00  2.92305988388805E-03
 cg2d: Sum(rhs),rhsMax =  -1.34034307225707E+00  2.81059302628478E-03
 cg2d: Sum(rhs),rhsMax =  -1.62624326318935E+00  2.74190570649282E-03
(PID.TID 0000.0001) %CHECKPOINT       100 ckptB
 --> objf_test(bi,bj)   =  0.509071980970055E-01
 --> objf_tracer(bi,bj) =  0.000000000000000E+00
 --> objf_atl(bi,bj)    =  0.000000000000000E+00
  local fc =  0.509071980970055E-01
 global fc =  0.509071980970055E-01
(PID.TID 0000.0001)  MDS_READ_FIELD: opening file: xx_depth.0000000000.001.001.data
grad-res -------------------------------
 grad-res     0   10    5    2    1    1    1    1   0.509071982062E-01 0.509071983153E-01 0.509071980970E-01
 grad-res     0   10   10   10   25    1    1    1   0.109132588337E-05 0.109146025551E-05 -.123127421483E-03
(PID.TID 0000.0001)   ADM  precision_derivative_cost =    5.09071982061515E-02
(PID.TID 0000.0001)   ADM  precision_derivative_grad =    1.09132588336698E-06
 ph-grd  ierr ---------------------------
 ph-grd  ierr =  0, icomp =  10, ichknum =  10
 ph-grd -->hit<--  1 3 1 1
(PID.TID 0000.0001)  MDS_READ_FIELD: opening file: adxx_depth.0000000000.001.001.data
(PID.TID 0000.0001)  MDS_READ_FIELD: opening file: xx_depth.0000000000.001.001.data
(PID.TID 0000.0001)  MDS_READ_FIELD: opening global file: noWalls.bigRidge
(PID.TID 0000.0001) // =======================================================
(PID.TID 0000.0001) // Field Model R_low (ini_masks_etc) at iteration          1
(PID.TID 0000.0001) // CMIN =         -5.000000000000000E+03
(PID.TID 0000.0001) // CMAX =         -2.000000000000000E+03
(PID.TID 0000.0001) // CINT =          1.111111111111111E+02
(PID.TID 0000.0001) // SYMBOLS (CMIN->CMAX): -abcdefghijklmnopqrstuvwxyz+
(PID.TID 0000.0001) //                  0.0: .
(PID.TID 0000.0001) // RANGE I (Lo:Hi:Step):(  -1:   7:   1)
(PID.TID 0000.0001) // RANGE J (Lo:Hi:Step):(   7:  -1:  -1)
(PID.TID 0000.0001) // RANGE K (Lo:Hi:Step):(   1:   1:   1)
(PID.TID 0000.0001) // =======================================================
(PID.TID 0000.0001) K =   1
(PID.TID 0000.0001) //
(PID.TID 0000.0001) // |--J--|101234567
(PID.TID 0000.0001) //      7 ----+----
(PID.TID 0000.0001) //      6 ----+----
(PID.TID 0000.0001) //      5 ----+----
(PID.TID 0000.0001) //      4 ----+----
(PID.TID 0000.0001) //      3 ----+----
(PID.TID 0000.0001) //      2 ----+----
(PID.TID 0000.0001) //      1 ----+----
(PID.TID 0000.0001) //      0 ----+----
(PID.TID 0000.0001) //     -1 ----+----
(PID.TID 0000.0001) // =======================================================
(PID.TID 0000.0001) // END OF FIELD                                          =
(PID.TID 0000.0001) // =======================================================
(PID.TID 0000.0001) 
(PID.TID 0000.0001) // =======================================================
(PID.TID 0000.0001) // Field Model Ro_surf (ini_masks_etc) at iteration          1
(PID.TID 0000.0001) // CMIN =          1.000000000000000E+32
(PID.TID 0000.0001) // CMAX =         -1.000000000000000E+32
(PID.TID 0000.0001) // CINT =          0.000000000000000E+00
(PID.TID 0000.0001) // SYMBOLS (CMIN->CMAX): -abcdefghijklmnopqrstuvwxyz+
(PID.TID 0000.0001) //                  0.0: .
(PID.TID 0000.0001) // RANGE I (Lo:Hi:Step):(  -1:   7:   1)
(PID.TID 0000.0001) // RANGE J (Lo:Hi:Step):(   7:  -1:  -1)
(PID.TID 0000.0001) // RANGE K (Lo:Hi:Step):(   1:   1:   1)
(PID.TID 0000.0001) // =======================================================
(PID.TID 0000.0001) // =======================================================
(PID.TID 0000.0001) // END OF FIELD                                          =
(PID.TID 0000.0001) // =======================================================
(PID.TID 0000.0001) 
(PID.TID 0000.0001) // =======================================================
(PID.TID 0000.0001) // Field hFacC at iteration          1
(PID.TID 0000.0001) // CMIN =          1.000000000000000E+00
(PID.TID 0000.0001) // CMAX =          1.000000000000000E+00
(PID.TID 0000.0001) // CINT =          0.000000000000000E+00
(PID.TID 0000.0001) // SYMBOLS (CMIN->CMAX): -abcdefghijklmnopqrstuvwxyz+
(PID.TID 0000.0001) //                  0.0: .
(PID.TID 0000.0001) // RANGE I (Lo:Hi:Step):(  -1:   7:   1)
(PID.TID 0000.0001) // RANGE J (Lo:Hi:Step):(   7:  -1:  -1)
(PID.TID 0000.0001) // RANGE K (Lo:Hi:Step):(   1:   1:   1)
(PID.TID 0000.0001) // =======================================================
(PID.TID 0000.0001) // =======================================================
(PID.TID 0000.0001) // END OF FIELD                                          =
(PID.TID 0000.0001) // =======================================================
(PID.TID 0000.0001) 
(PID.TID 0000.0001) // =======================================================
(PID.TID 0000.0001) // Field hFacW at iteration          1
(PID.TID 0000.0001) // CMIN =          1.000000000000000E+00
(PID.TID 0000.0001) // CMAX =          1.000000000000000E+00
(PID.TID 0000.0001) // CINT =          0.000000000000000E+00
(PID.TID 0000.0001) // SYMBOLS (CMIN->CMAX): -abcdefghijklmnopqrstuvwxyz+
(PID.TID 0000.0001) //                  0.0: .
(PID.TID 0000.0001) // RANGE I (Lo:Hi:Step):(  -1:   7:   1)
(PID.TID 0000.0001) // RANGE J (Lo:Hi:Step):(   7:  -1:  -1)
(PID.TID 0000.0001) // RANGE K (Lo:Hi:Step):(   1:   1:   1)
(PID.TID 0000.0001) // =======================================================
(PID.TID 0000.0001) // =======================================================
(PID.TID 0000.0001) // END OF FIELD                                          =
(PID.TID 0000.0001) // =======================================================
(PID.TID 0000.0001) 
(PID.TID 0000.0001) // =======================================================
(PID.TID 0000.0001) // Field hFacS at iteration          1
(PID.TID 0000.0001) // CMIN =          1.000000000000000E+00
(PID.TID 0000.0001) // CMAX =          1.000000000000000E+00
(PID.TID 0000.0001) // CINT =          0.000000000000000E+00
(PID.TID 0000.0001) // SYMBOLS (CMIN->CMAX): -abcdefghijklmnopqrstuvwxyz+
(PID.TID 0000.0001) //                  0.0: .
(PID.TID 0000.0001) // RANGE I (Lo:Hi:Step):(  -1:   7:   1)
(PID.TID 0000.0001) // RANGE J (Lo:Hi:Step):(   7:  -1:  -1)
(PID.TID 0000.0001) // RANGE K (Lo:Hi:Step):(   1:   1:   1)
(PID.TID 0000.0001) // =======================================================
(PID.TID 0000.0001) // =======================================================
(PID.TID 0000.0001) // END OF FIELD                                          =
(PID.TID 0000.0001) // =======================================================
(PID.TID 0000.0001) 
(PID.TID 0000.0001) %MON surfExpanfCori_max           =  -1.0735540000000E-04
(PID.TID 0000.0001) %MON surfExpanfCori_min           =  -1.1783060000000E-04
(PID.TID 0000.0001) %MON surfExpanfCori_mean          =  -1.1259300000000E-04
(PID.TID 0000.0001) %MON surfExpanfCori_sd            =   3.7035424771427E-06
(PID.TID 0000.0001) %MON surfExpanfCoriG_max          =  -1.0866480000000E-04
(PID.TID 0000.0001) %MON surfExpanfCoriG_min          =  -1.1914000000000E-04
(PID.TID 0000.0001) %MON surfExpanfCoriG_mean         =  -1.1390240000000E-04
(PID.TID 0000.0001) %MON surfExpanfCoriG_sd           =   3.7035424771427E-06
(PID.TID 0000.0001) %MON surfExpanfCoriCos_max        =   0.0000000000000E+00
(PID.TID 0000.0001) %MON surfExpanfCoriCos_min        =   0.0000000000000E+00
(PID.TID 0000.0001) %MON surfExpanfCoriCos_mean       =   0.0000000000000E+00
(PID.TID 0000.0001) %MON surfExpanfCoriCos_sd         =   0.0000000000000E+00
(PID.TID 0000.0001) INI_CG2D: CG2D normalisation factor =  1.9999999999999996E-04
(PID.TID 0000.0001) 
                     ctrl_depth_ini: ctrl update R_low,
                                     adding the control vector.
(PID.TID 0000.0001)  MDS_READ_FIELD: opening file: xx_depth.0000000000.001.001.data
(PID.TID 0000.0001) // =======================================================
(PID.TID 0000.0001) // Field Model Ro_surf (update_masks_etc) at iteration          1
(PID.TID 0000.0001) // CMIN =          1.000000000000000E+32
(PID.TID 0000.0001) // CMAX =         -1.000000000000000E+32
(PID.TID 0000.0001) // CINT =          0.000000000000000E+00
(PID.TID 0000.0001) // SYMBOLS (CMIN->CMAX): -abcdefghijklmnopqrstuvwxyz+
(PID.TID 0000.0001) //                  0.0: .
(PID.TID 0000.0001) // RANGE I (Lo:Hi:Step):(  -1:   7:   1)
(PID.TID 0000.0001) // RANGE J (Lo:Hi:Step):(   7:  -1:  -1)
(PID.TID 0000.0001) // RANGE K (Lo:Hi:Step):(   1:   1:   1)
(PID.TID 0000.0001) // =======================================================
(PID.TID 0000.0001) // =======================================================
(PID.TID 0000.0001) // END OF FIELD                                          =
(PID.TID 0000.0001) // =======================================================
(PID.TID 0000.0001) 
(PID.TID 0000.0001) // =======================================================
(PID.TID 0000.0001) // Field hFacC at iteration          1
(PID.TID 0000.0001) // CMIN =          1.000000000000000E+00
(PID.TID 0000.0001) // CMAX =          1.000000000000000E+00
(PID.TID 0000.0001) // CINT =          0.000000000000000E+00
(PID.TID 0000.0001) // SYMBOLS (CMIN->CMAX): -abcdefghijklmnopqrstuvwxyz+
(PID.TID 0000.0001) //                  0.0: .
(PID.TID 0000.0001) // RANGE I (Lo:Hi:Step):(  -1:   7:   1)
(PID.TID 0000.0001) // RANGE J (Lo:Hi:Step):(   7:  -1:  -1)
(PID.TID 0000.0001) // RANGE K (Lo:Hi:Step):(   1:   1:   1)
(PID.TID 0000.0001) // =======================================================
(PID.TID 0000.0001) // =======================================================
(PID.TID 0000.0001) // END OF FIELD                                          =
(PID.TID 0000.0001) // =======================================================
(PID.TID 0000.0001) 
(PID.TID 0000.0001) // =======================================================
(PID.TID 0000.0001) // Field hFacW at iteration          1
(PID.TID 0000.0001) // CMIN =          1.000000000000000E+00
(PID.TID 0000.0001) // CMAX =          1.000000000000000E+00
(PID.TID 0000.0001) // CINT =          0.000000000000000E+00
(PID.TID 0000.0001) // SYMBOLS (CMIN->CMAX): -abcdefghijklmnopqrstuvwxyz+
(PID.TID 0000.0001) //                  0.0: .
(PID.TID 0000.0001) // RANGE I (Lo:Hi:Step):(  -1:   7:   1)
(PID.TID 0000.0001) // RANGE J (Lo:Hi:Step):(   7:  -1:  -1)
(PID.TID 0000.0001) // RANGE K (Lo:Hi:Step):(   1:   1:   1)
(PID.TID 0000.0001) // =======================================================
(PID.TID 0000.0001) // =======================================================
(PID.TID 0000.0001) // END OF FIELD                                          =
(PID.TID 0000.0001) // =======================================================
(PID.TID 0000.0001) 
(PID.TID 0000.0001) // =======================================================
(PID.TID 0000.0001) // Field hFacS at iteration          1
(PID.TID 0000.0001) // CMIN =          1.000000000000000E+00
(PID.TID 0000.0001) // CMAX =          1.000000000000000E+00
(PID.TID 0000.0001) // CINT =          0.000000000000000E+00
(PID.TID 0000.0001) // SYMBOLS (CMIN->CMAX): -abcdefghijklmnopqrstuvwxyz+
(PID.TID 0000.0001) //                  0.0: .
(PID.TID 0000.0001) // RANGE I (Lo:Hi:Step):(  -1:   7:   1)
(PID.TID 0000.0001) // RANGE J (Lo:Hi:Step):(   7:  -1:  -1)
(PID.TID 0000.0001) // RANGE K (Lo:Hi:Step):(   1:   1:   1)
(PID.TID 0000.0001) // =======================================================
(PID.TID 0000.0001) // =======================================================
(PID.TID 0000.0001) // END OF FIELD                                          =
(PID.TID 0000.0001) // =======================================================
(PID.TID 0000.0001) 
(PID.TID 0000.0001) // =======================================================
(PID.TID 0000.0001) // Field Initial Temperature at iteration          1
(PID.TID 0000.0001) // CMIN =          4.000000000000000E+00
(PID.TID 0000.0001) // CMAX =          4.000000000000000E+00
(PID.TID 0000.0001) // CINT =          0.000000000000000E+00
(PID.TID 0000.0001) // SYMBOLS (CMIN->CMAX): -abcdefghijklmnopqrstuvwxyz+
(PID.TID 0000.0001) //                  0.0: .
(PID.TID 0000.0001) // RANGE I (Lo:Hi:Step):(   1:   5:   1)
(PID.TID 0000.0001) // RANGE J (Lo:Hi:Step):(   5:   1:  -1)
(PID.TID 0000.0001) // RANGE K (Lo:Hi:Step):(   1:   1:   1)
(PID.TID 0000.0001) // =======================================================
(PID.TID 0000.0001) // =======================================================
(PID.TID 0000.0001) // END OF FIELD                                          =
(PID.TID 0000.0001) // =======================================================
(PID.TID 0000.0001) 
(PID.TID 0000.0001) // =======================================================
(PID.TID 0000.0001) // Field Initial Salinity at iteration          1
(PID.TID 0000.0001) // CMIN =          3.500000000000000E+01
(PID.TID 0000.0001) // CMAX =          3.500000000000000E+01
(PID.TID 0000.0001) // CINT =          0.000000000000000E+00
(PID.TID 0000.0001) // SYMBOLS (CMIN->CMAX): -abcdefghijklmnopqrstuvwxyz+
(PID.TID 0000.0001) //                  0.0: .
(PID.TID 0000.0001) // RANGE I (Lo:Hi:Step):(   1:   5:   1)
(PID.TID 0000.0001) // RANGE J (Lo:Hi:Step):(   5:   1:  -1)
(PID.TID 0000.0001) // RANGE K (Lo:Hi:Step):(   1:   1:   1)
(PID.TID 0000.0001) // =======================================================
(PID.TID 0000.0001) // =======================================================
(PID.TID 0000.0001) // END OF FIELD                                          =
(PID.TID 0000.0001) // =======================================================
(PID.TID 0000.0001) 
(PID.TID 0000.0001) Start initial hydrostatic pressure computation
(PID.TID 0000.0001) Pressure is predetermined for buoyancyRelation OCEANIC
(PID.TID 0000.0001) 
(PID.TID 0000.0001)  MDS_READ_FIELD: opening global file: windx.sin_y
(PID.TID 0000.0001) // =======================================================
(PID.TID 0000.0001) // Model current state
(PID.TID 0000.0001) // =======================================================
(PID.TID 0000.0001) 
 cg2d: Sum(rhs),rhsMax =   0.00000000000000E+00  0.00000000000000E+00
 cg2d: Sum(rhs),rhsMax =  -2.49999999999996E+01  6.03492218443698E-05
 cg2d: Sum(rhs),rhsMax =  -1.81034404639062E+01  2.18766023587219E-04
 cg2d: Sum(rhs),rhsMax =  -1.54955562832147E+01  4.32479836297446E-04
 cg2d: Sum(rhs),rhsMax =  -1.41111452328663E+01  6.49958988327227E-04
 cg2d: Sum(rhs),rhsMax =  -1.31144322331475E+01  8.30737102835892E-04
 cg2d: Sum(rhs),rhsMax =  -1.21209090324045E+01  9.52510661977053E-04
 cg2d: Sum(rhs),rhsMax =  -1.07124742371364E+01  1.02806631164160E-03
 cg2d: Sum(rhs),rhsMax =  -7.41375936682154E+00  1.27086596331838E-03
 cg2d: Sum(rhs),rhsMax =  -4.70217533451961E+00  1.51019014095946E-03
 cg2d: Sum(rhs),rhsMax =  -2.72440685914272E+00  1.65833738319644E-03
 cg2d: Sum(rhs),rhsMax =  -1.27958669032514E+00  1.70565508846753E-03
 cg2d: Sum(rhs),rhsMax =  -3.29564699050760E-01  1.66071960646006E-03
 cg2d: Sum(rhs),rhsMax =   5.21320407577672E-02  1.54812756204149E-03
 cg2d: Sum(rhs),rhsMax =  -2.86625374103001E-01  1.40338816148468E-03
 cg2d: Sum(rhs),rhsMax =  -1.30315843350762E+00  1.44268599677625E-03
 cg2d: Sum(rhs),rhsMax =  -2.68067690289661E+00  1.50836886616589E-03
 cg2d: Sum(rhs),rhsMax =  -4.07407453359824E+00  1.58424366897482E-03
 cg2d: Sum(rhs),rhsMax =  -5.18272347977766E+00  1.66593592855991E-03
 cg2d: Sum(rhs),rhsMax =  -5.80990598273206E+00  1.74846175354466E-03
 cg2d: Sum(rhs),rhsMax =  -5.87740627550274E+00  1.82725971190044E-03
 cg2d: Sum(rhs),rhsMax =  -5.41358311350025E+00  1.89900434679445E-03
 cg2d: Sum(rhs),rhsMax =  -4.53080676754998E+00  1.96213934543788E-03
 cg2d: Sum(rhs),rhsMax =  -3.22587899075950E+00  2.12611202597009E-03
 cg2d: Sum(rhs),rhsMax =  -2.04447211988447E+00  2.24837953744601E-03
 cg2d: Sum(rhs),rhsMax =  -1.10818137357422E+00  2.30404049157804E-03
 cg2d: Sum(rhs),rhsMax =  -4.90484881099462E-01  2.29576532417807E-03
 cg2d: Sum(rhs),rhsMax =  -2.61247064577001E-01  2.23814842189362E-03
 cg2d: Sum(rhs),rhsMax =  -4.50921969210257E-01  2.26266906994423E-03
 cg2d: Sum(rhs),rhsMax =  -1.00469610663783E+00  2.31946123078623E-03
 cg2d: Sum(rhs),rhsMax =  -1.78565331428806E+00  2.37599941609770E-03
 cg2d: Sum(rhs),rhsMax =  -2.62429308832287E+00  2.42805543421270E-03
 cg2d: Sum(rhs),rhsMax =  -3.35748486709328E+00  2.47123045021706E-03
 cg2d: Sum(rhs),rhsMax =  -3.85508917876663E+00  2.50195598295106E-03
 cg2d: Sum(rhs),rhsMax =  -4.03589978261538E+00  2.51830322475715E-03
 cg2d: Sum(rhs),rhsMax =  -3.87512848220994E+00  2.52047519012181E-03
 cg2d: Sum(rhs),rhsMax =  -3.40600368844490E+00  2.51092921673218E-03
 cg2d: Sum(rhs),rhsMax =  -2.61682443541326E+00  2.58874087127062E-03
 cg2d: Sum(rhs),rhsMax =  -1.83238712360266E+00  2.61669729730098E-03
 cg2d: Sum(rhs),rhsMax =  -1.17513338295967E+00  2.56005945967049E-03
 cg2d: Sum(rhs),rhsMax =  -7.11994618968736E-01  2.47855830005708E-03
 cg2d: Sum(rhs),rhsMax =  -5.26422152254500E-01  2.47042092479345E-03
 cg2d: Sum(rhs),rhsMax =  -6.78930216374617E-01  2.49676870255757E-03
 cg2d: Sum(rhs),rhsMax =  -1.12673722331636E+00  2.53652611368396E-03
 cg2d: Sum(rhs),rhsMax =  -1.75981625853621E+00  2.58504763743637E-03
 cg2d: Sum(rhs),rhsMax =  -2.43940636451377E+00  2.63568090122914E-03
 cg2d: Sum(rhs),rhsMax =  -3.03203010254624E+00  2.68092813640601E-03
 cg2d: Sum(rhs),rhsMax =  -3.40991311549727E+00  2.73286304571789E-03
 cg2d: Sum(rhs),rhsMax =  -3.48046022901665E+00  2.80943923068677E-03
 cg2d: Sum(rhs),rhsMax =  -3.32063072729848E+00  2.84054009391317E-03
 cg2d: Sum(rhs),rhsMax =  -2.96079447223600E+00  2.82589058365568E-03
 cg2d: Sum(rhs),rhsMax =  -2.32992810991103E+00  2.92147975338374E-03
 cg2d: Sum(rhs),rhsMax =  -1.72242456056854E+00  2.94384963483135E-03
 cg2d: Sum(rhs),rhsMax =  -1.21221903489850E+00  2.89157780458603E-03
 cg2d: Sum(rhs),rhsMax =  -8.69698392557504E-01  2.78046458071809E-03
 cg2d: Sum(rhs),rhsMax =  -7.64867802663028E-01  2.63730950686542E-03
 cg2d: Sum(rhs),rhsMax =  -9.31747845103178E-01  2.54529703587963E-03
 cg2d: Sum(rhs),rhsMax =  -1.31074338393365E+00  2.59464768829256E-03
 cg2d: Sum(rhs),rhsMax =  -1.82960842637816E+00  2.67470088472433E-03
 cg2d: Sum(rhs),rhsMax =  -2.36415408640288E+00  2.77096212507935E-03
 cg2d: Sum(rhs),rhsMax =  -2.80794778848801E+00  2.86583706435157E-03
 cg2d: Sum(rhs),rhsMax =  -3.09076537258912E+00  2.94225354533438E-03
 cg2d: Sum(rhs),rhsMax =  -3.17911023096385E+00  2.98708407405000E-03
 cg2d: Sum(rhs),rhsMax =  -3.06968979890632E+00  2.99369702277171E-03
 cg2d: Sum(rhs),rhsMax =  -2.74200030071276E+00  3.00868116592068E-03
 cg2d: Sum(rhs),rhsMax =  -2.22987017828348E+00  3.08320497085005E-03
 cg2d: Sum(rhs),rhsMax =  -1.72892383666778E+00  3.09216603178354E-03
 cg2d: Sum(rhs),rhsMax =  -1.30661125574539E+00  3.03707924803296E-03
 cg2d: Sum(rhs),rhsMax =  -1.02724586967759E+00  2.93201255474468E-03
 cg2d: Sum(rhs),rhsMax =  -9.49612075616116E-01  2.80059569279849E-03
 cg2d: Sum(rhs),rhsMax =  -1.10546680634716E+00  2.68802012425666E-03
 cg2d: Sum(rhs),rhsMax =  -1.41911844876678E+00  2.73183504401378E-03
 cg2d: Sum(rhs),rhsMax =  -1.85263651283452E+00  2.80075124555467E-03
 cg2d: Sum(rhs),rhsMax =  -2.30607104198944E+00  2.88121984880350E-03
 cg2d: Sum(rhs),rhsMax =  -2.69038331913843E+00  2.95745899134034E-03
 cg2d: Sum(rhs),rhsMax =  -2.94313283845358E+00  3.01465310172444E-03
 cg2d: Sum(rhs),rhsMax =  -3.03123922625293E+00  3.04190026390289E-03
 cg2d: Sum(rhs),rhsMax =  -2.94785320886626E+00  3.03433140651502E-03
 cg2d: Sum(rhs),rhsMax =  -2.61356654020015E+00  3.10365978694572E-03
 cg2d: Sum(rhs),rhsMax =  -2.18161316061047E+00  3.16115505607289E-03
 cg2d: Sum(rhs),rhsMax =  -1.75526122229875E+00  3.15966314084247E-03
 cg2d: Sum(rhs),rhsMax =  -1.39603741611971E+00  3.10114912863500E-03
 cg2d: Sum(rhs),rhsMax =  -1.16177138007727E+00  2.99876546142506E-03
 cg2d: Sum(rhs),rhsMax =  -1.10293744880675E+00  2.87411083974195E-03
 cg2d: Sum(rhs),rhsMax =  -1.24975131597610E+00  2.75286355249335E-03
 cg2d: Sum(rhs),rhsMax =  -1.53840866734457E+00  2.75098216286402E-03
 cg2d: Sum(rhs),rhsMax =  -1.91301870327850E+00  2.81271668767580E-03
 cg2d: Sum(rhs),rhsMax =  -2.30705938682332E+00  2.88449380796149E-03
 cg2d: Sum(rhs),rhsMax =  -2.64297551679601E+00  2.95188725188693E-03
 cg2d: Sum(rhs),rhsMax =  -2.86495128085062E+00  3.00154118230123E-03
 cg2d: Sum(rhs),rhsMax =  -2.94238807285334E+00  3.02377925802516E-03
 cg2d: Sum(rhs),rhsMax =  -2.84207309891130E+00  3.04217207573613E-03
 cg2d: Sum(rhs),rhsMax =  -2.51902172473117E+00  3.13830805932863E-03
 cg2d: Sum(rhs),rhsMax =  -2.14123726800929E+00  3.18959324498897E-03
 cg2d: Sum(rhs),rhsMax =  -1.76835915408537E+00  3.18714933525019E-03
 cg2d: Sum(rhs),rhsMax =  -1.45590345840725E+00  3.13272230511263E-03
 cg2d: Sum(rhs),rhsMax =  -1.25508066719840E+00  3.03818418702205E-03
 cg2d: Sum(rhs),rhsMax =  -1.20874899445799E+00  2.92305993623958E-03
 cg2d: Sum(rhs),rhsMax =  -1.34034305781424E+00  2.81059307979468E-03
 cg2d: Sum(rhs),rhsMax =  -1.62624326364186E+00  2.74190572502294E-03
(PID.TID 0000.0001) %CHECKPOINT       100 ckptA
 --> objf_test(bi,bj)   =  0.509071983189960E-01
 --> objf_tracer(bi,bj) =  0.000000000000000E+00
 --> objf_atl(bi,bj)    =  0.000000000000000E+00
  local fc =  0.509071983189960E-01
 global fc =  0.509071983189960E-01
 ph-check fcpertplus =   0.0509071983
(PID.TID 0000.0001)  MDS_READ_FIELD: opening file: xx_depth.0000000000.001.001.data
 ph-check fcpertminus =   0.0509071982
(PID.TID 0000.0001)  MDS_READ_FIELD: opening file: xx_depth.0000000000.001.001.data
(PID.TID 0000.0001)  MDS_READ_FIELD: opening global file: noWalls.bigRidge
(PID.TID 0000.0001) // =======================================================
(PID.TID 0000.0001) // Field Model R_low (ini_masks_etc) at iteration          1
(PID.TID 0000.0001) // CMIN =         -5.000000000000000E+03
(PID.TID 0000.0001) // CMAX =         -2.000000000000000E+03
(PID.TID 0000.0001) // CINT =          1.111111111111111E+02
(PID.TID 0000.0001) // SYMBOLS (CMIN->CMAX): -abcdefghijklmnopqrstuvwxyz+
(PID.TID 0000.0001) //                  0.0: .
(PID.TID 0000.0001) // RANGE I (Lo:Hi:Step):(  -1:   7:   1)
(PID.TID 0000.0001) // RANGE J (Lo:Hi:Step):(   7:  -1:  -1)
(PID.TID 0000.0001) // RANGE K (Lo:Hi:Step):(   1:   1:   1)
(PID.TID 0000.0001) // =======================================================
(PID.TID 0000.0001) K =   1
(PID.TID 0000.0001) //
(PID.TID 0000.0001) // |--J--|101234567
(PID.TID 0000.0001) //      7 ----+----
(PID.TID 0000.0001) //      6 ----+----
(PID.TID 0000.0001) //      5 ----+----
(PID.TID 0000.0001) //      4 ----+----
(PID.TID 0000.0001) //      3 ----+----
(PID.TID 0000.0001) //      2 ----+----
(PID.TID 0000.0001) //      1 ----+----
(PID.TID 0000.0001) //      0 ----+----
(PID.TID 0000.0001) //     -1 ----+----
(PID.TID 0000.0001) // =======================================================
(PID.TID 0000.0001) // END OF FIELD                                          =
(PID.TID 0000.0001) // =======================================================
(PID.TID 0000.0001) 
(PID.TID 0000.0001) // =======================================================
(PID.TID 0000.0001) // Field Model Ro_surf (ini_masks_etc) at iteration          1
(PID.TID 0000.0001) // CMIN =          1.000000000000000E+32
(PID.TID 0000.0001) // CMAX =         -1.000000000000000E+32
(PID.TID 0000.0001) // CINT =          0.000000000000000E+00
(PID.TID 0000.0001) // SYMBOLS (CMIN->CMAX): -abcdefghijklmnopqrstuvwxyz+
(PID.TID 0000.0001) //                  0.0: .
(PID.TID 0000.0001) // RANGE I (Lo:Hi:Step):(  -1:   7:   1)
(PID.TID 0000.0001) // RANGE J (Lo:Hi:Step):(   7:  -1:  -1)
(PID.TID 0000.0001) // RANGE K (Lo:Hi:Step):(   1:   1:   1)
(PID.TID 0000.0001) // =======================================================
(PID.TID 0000.0001) // =======================================================
(PID.TID 0000.0001) // END OF FIELD                                          =
(PID.TID 0000.0001) // =======================================================
(PID.TID 0000.0001) 
(PID.TID 0000.0001) // =======================================================
(PID.TID 0000.0001) // Field hFacC at iteration          1
(PID.TID 0000.0001) // CMIN =          1.000000000000000E+00
(PID.TID 0000.0001) // CMAX =          1.000000000000000E+00
(PID.TID 0000.0001) // CINT =          0.000000000000000E+00
(PID.TID 0000.0001) // SYMBOLS (CMIN->CMAX): -abcdefghijklmnopqrstuvwxyz+
(PID.TID 0000.0001) //                  0.0: .
(PID.TID 0000.0001) // RANGE I (Lo:Hi:Step):(  -1:   7:   1)
(PID.TID 0000.0001) // RANGE J (Lo:Hi:Step):(   7:  -1:  -1)
(PID.TID 0000.0001) // RANGE K (Lo:Hi:Step):(   1:   1:   1)
(PID.TID 0000.0001) // =======================================================
(PID.TID 0000.0001) // =======================================================
(PID.TID 0000.0001) // END OF FIELD                                          =
(PID.TID 0000.0001) // =======================================================
(PID.TID 0000.0001) 
(PID.TID 0000.0001) // =======================================================
(PID.TID 0000.0001) // Field hFacW at iteration          1
(PID.TID 0000.0001) // CMIN =          1.000000000000000E+00
(PID.TID 0000.0001) // CMAX =          1.000000000000000E+00
(PID.TID 0000.0001) // CINT =          0.000000000000000E+00
(PID.TID 0000.0001) // SYMBOLS (CMIN->CMAX): -abcdefghijklmnopqrstuvwxyz+
(PID.TID 0000.0001) //                  0.0: .
(PID.TID 0000.0001) // RANGE I (Lo:Hi:Step):(  -1:   7:   1)
(PID.TID 0000.0001) // RANGE J (Lo:Hi:Step):(   7:  -1:  -1)
(PID.TID 0000.0001) // RANGE K (Lo:Hi:Step):(   1:   1:   1)
(PID.TID 0000.0001) // =======================================================
(PID.TID 0000.0001) // =======================================================
(PID.TID 0000.0001) // END OF FIELD                                          =
(PID.TID 0000.0001) // =======================================================
(PID.TID 0000.0001) 
(PID.TID 0000.0001) // =======================================================
(PID.TID 0000.0001) // Field hFacS at iteration          1
(PID.TID 0000.0001) // CMIN =          1.000000000000000E+00
(PID.TID 0000.0001) // CMAX =          1.000000000000000E+00
(PID.TID 0000.0001) // CINT =          0.000000000000000E+00
(PID.TID 0000.0001) // SYMBOLS (CMIN->CMAX): -abcdefghijklmnopqrstuvwxyz+
(PID.TID 0000.0001) //                  0.0: .
(PID.TID 0000.0001) // RANGE I (Lo:Hi:Step):(  -1:   7:   1)
(PID.TID 0000.0001) // RANGE J (Lo:Hi:Step):(   7:  -1:  -1)
(PID.TID 0000.0001) // RANGE K (Lo:Hi:Step):(   1:   1:   1)
(PID.TID 0000.0001) // =======================================================
(PID.TID 0000.0001) // =======================================================
(PID.TID 0000.0001) // END OF FIELD                                          =
(PID.TID 0000.0001) // =======================================================
(PID.TID 0000.0001) 
(PID.TID 0000.0001) %MON surfExpanfCori_max           =  -1.0735540000000E-04
(PID.TID 0000.0001) %MON surfExpanfCori_min           =  -1.1783060000000E-04
(PID.TID 0000.0001) %MON surfExpanfCori_mean          =  -1.1259300000000E-04
(PID.TID 0000.0001) %MON surfExpanfCori_sd            =   3.7035424771427E-06
(PID.TID 0000.0001) %MON surfExpanfCoriG_max          =  -1.0866480000000E-04
(PID.TID 0000.0001) %MON surfExpanfCoriG_min          =  -1.1914000000000E-04
(PID.TID 0000.0001) %MON surfExpanfCoriG_mean         =  -1.1390240000000E-04
(PID.TID 0000.0001) %MON surfExpanfCoriG_sd           =   3.7035424771427E-06
(PID.TID 0000.0001) %MON surfExpanfCoriCos_max        =   0.0000000000000E+00
(PID.TID 0000.0001) %MON surfExpanfCoriCos_min        =   0.0000000000000E+00
(PID.TID 0000.0001) %MON surfExpanfCoriCos_mean       =   0.0000000000000E+00
(PID.TID 0000.0001) %MON surfExpanfCoriCos_sd         =   0.0000000000000E+00
(PID.TID 0000.0001) INI_CG2D: CG2D normalisation factor =  1.9999999999999996E-04
(PID.TID 0000.0001) 
                     ctrl_depth_ini: ctrl update R_low,
                                     adding the control vector.
(PID.TID 0000.0001)  MDS_READ_FIELD: opening file: xx_depth.0000000000.001.001.data
(PID.TID 0000.0001) // =======================================================
(PID.TID 0000.0001) // Field Model Ro_surf (update_masks_etc) at iteration          1
(PID.TID 0000.0001) // CMIN =          1.000000000000000E+32
(PID.TID 0000.0001) // CMAX =         -1.000000000000000E+32
(PID.TID 0000.0001) // CINT =          0.000000000000000E+00
(PID.TID 0000.0001) // SYMBOLS (CMIN->CMAX): -abcdefghijklmnopqrstuvwxyz+
(PID.TID 0000.0001) //                  0.0: .
(PID.TID 0000.0001) // RANGE I (Lo:Hi:Step):(  -1:   7:   1)
(PID.TID 0000.0001) // RANGE J (Lo:Hi:Step):(   7:  -1:  -1)
(PID.TID 0000.0001) // RANGE K (Lo:Hi:Step):(   1:   1:   1)
(PID.TID 0000.0001) // =======================================================
(PID.TID 0000.0001) // =======================================================
(PID.TID 0000.0001) // END OF FIELD                                          =
(PID.TID 0000.0001) // =======================================================
(PID.TID 0000.0001) 
(PID.TID 0000.0001) // =======================================================
(PID.TID 0000.0001) // Field hFacC at iteration          1
(PID.TID 0000.0001) // CMIN =          1.000000000000000E+00
(PID.TID 0000.0001) // CMAX =          1.000000000000000E+00
(PID.TID 0000.0001) // CINT =          0.000000000000000E+00
(PID.TID 0000.0001) // SYMBOLS (CMIN->CMAX): -abcdefghijklmnopqrstuvwxyz+
(PID.TID 0000.0001) //                  0.0: .
(PID.TID 0000.0001) // RANGE I (Lo:Hi:Step):(  -1:   7:   1)
(PID.TID 0000.0001) // RANGE J (Lo:Hi:Step):(   7:  -1:  -1)
(PID.TID 0000.0001) // RANGE K (Lo:Hi:Step):(   1:   1:   1)
(PID.TID 0000.0001) // =======================================================
(PID.TID 0000.0001) // =======================================================
(PID.TID 0000.0001) // END OF FIELD                                          =
(PID.TID 0000.0001) // =======================================================
(PID.TID 0000.0001) 
(PID.TID 0000.0001) // =======================================================
(PID.TID 0000.0001) // Field hFacW at iteration          1
(PID.TID 0000.0001) // CMIN =          1.000000000000000E+00
(PID.TID 0000.0001) // CMAX =          1.000000000000000E+00
(PID.TID 0000.0001) // CINT =          0.000000000000000E+00
(PID.TID 0000.0001) // SYMBOLS (CMIN->CMAX): -abcdefghijklmnopqrstuvwxyz+
(PID.TID 0000.0001) //                  0.0: .
(PID.TID 0000.0001) // RANGE I (Lo:Hi:Step):(  -1:   7:   1)
(PID.TID 0000.0001) // RANGE J (Lo:Hi:Step):(   7:  -1:  -1)
(PID.TID 0000.0001) // RANGE K (Lo:Hi:Step):(   1:   1:   1)
(PID.TID 0000.0001) // =======================================================
(PID.TID 0000.0001) // =======================================================
(PID.TID 0000.0001) // END OF FIELD                                          =
(PID.TID 0000.0001) // =======================================================
(PID.TID 0000.0001) 
(PID.TID 0000.0001) // =======================================================
(PID.TID 0000.0001) // Field hFacS at iteration          1
(PID.TID 0000.0001) // CMIN =          1.000000000000000E+00
(PID.TID 0000.0001) // CMAX =          1.000000000000000E+00
(PID.TID 0000.0001) // CINT =          0.000000000000000E+00
(PID.TID 0000.0001) // SYMBOLS (CMIN->CMAX): -abcdefghijklmnopqrstuvwxyz+
(PID.TID 0000.0001) //                  0.0: .
(PID.TID 0000.0001) // RANGE I (Lo:Hi:Step):(  -1:   7:   1)
(PID.TID 0000.0001) // RANGE J (Lo:Hi:Step):(   7:  -1:  -1)
(PID.TID 0000.0001) // RANGE K (Lo:Hi:Step):(   1:   1:   1)
(PID.TID 0000.0001) // =======================================================
(PID.TID 0000.0001) // =======================================================
(PID.TID 0000.0001) // END OF FIELD                                          =
(PID.TID 0000.0001) // =======================================================
(PID.TID 0000.0001) 
(PID.TID 0000.0001) // =======================================================
(PID.TID 0000.0001) // Field Initial Temperature at iteration          1
(PID.TID 0000.0001) // CMIN =          4.000000000000000E+00
(PID.TID 0000.0001) // CMAX =          4.000000000000000E+00
(PID.TID 0000.0001) // CINT =          0.000000000000000E+00
(PID.TID 0000.0001) // SYMBOLS (CMIN->CMAX): -abcdefghijklmnopqrstuvwxyz+
(PID.TID 0000.0001) //                  0.0: .
(PID.TID 0000.0001) // RANGE I (Lo:Hi:Step):(   1:   5:   1)
(PID.TID 0000.0001) // RANGE J (Lo:Hi:Step):(   5:   1:  -1)
(PID.TID 0000.0001) // RANGE K (Lo:Hi:Step):(   1:   1:   1)
(PID.TID 0000.0001) // =======================================================
(PID.TID 0000.0001) // =======================================================
(PID.TID 0000.0001) // END OF FIELD                                          =
(PID.TID 0000.0001) // =======================================================
(PID.TID 0000.0001) 
(PID.TID 0000.0001) // =======================================================
(PID.TID 0000.0001) // Field Initial Salinity at iteration          1
(PID.TID 0000.0001) // CMIN =          3.500000000000000E+01
(PID.TID 0000.0001) // CMAX =          3.500000000000000E+01
(PID.TID 0000.0001) // CINT =          0.000000000000000E+00
(PID.TID 0000.0001) // SYMBOLS (CMIN->CMAX): -abcdefghijklmnopqrstuvwxyz+
(PID.TID 0000.0001) //                  0.0: .
(PID.TID 0000.0001) // RANGE I (Lo:Hi:Step):(   1:   5:   1)
(PID.TID 0000.0001) // RANGE J (Lo:Hi:Step):(   5:   1:  -1)
(PID.TID 0000.0001) // RANGE K (Lo:Hi:Step):(   1:   1:   1)
(PID.TID 0000.0001) // =======================================================
(PID.TID 0000.0001) // =======================================================
(PID.TID 0000.0001) // END OF FIELD                                          =
(PID.TID 0000.0001) // =======================================================
(PID.TID 0000.0001) 
(PID.TID 0000.0001) Start initial hydrostatic pressure computation
(PID.TID 0000.0001) Pressure is predetermined for buoyancyRelation OCEANIC
(PID.TID 0000.0001) 
(PID.TID 0000.0001)  MDS_READ_FIELD: opening global file: windx.sin_y
(PID.TID 0000.0001) // =======================================================
(PID.TID 0000.0001) // Model current state
(PID.TID 0000.0001) // =======================================================
(PID.TID 0000.0001) 
 cg2d: Sum(rhs),rhsMax =   0.00000000000000E+00  0.00000000000000E+00
 cg2d: Sum(rhs),rhsMax =  -2.49999999999996E+01  6.03492218443698E-05
 cg2d: Sum(rhs),rhsMax =  -1.81034404639062E+01  2.18766023587219E-04
 cg2d: Sum(rhs),rhsMax =  -1.54955562832148E+01  4.32479836297446E-04
 cg2d: Sum(rhs),rhsMax =  -1.41111452330332E+01  6.49958988319593E-04
 cg2d: Sum(rhs),rhsMax =  -1.31144322333751E+01  8.30737102820872E-04
 cg2d: Sum(rhs),rhsMax =  -1.21209090326729E+01  9.52510661953536E-04
 cg2d: Sum(rhs),rhsMax =  -1.07124742372775E+01  1.02806631162253E-03
 cg2d: Sum(rhs),rhsMax =  -7.41375936649263E+00  1.27086596336304E-03
 cg2d: Sum(rhs),rhsMax =  -4.70217533458846E+00  1.51019014091671E-03
 cg2d: Sum(rhs),rhsMax =  -2.72440685941563E+00  1.65833738300376E-03
 cg2d: Sum(rhs),rhsMax =  -1.27958669062088E+00  1.70565508807518E-03
 cg2d: Sum(rhs),rhsMax =  -3.29564699254209E-01  1.66071960584773E-03
 cg2d: Sum(rhs),rhsMax =   5.21320405731939E-02  1.54812756123114E-03
 cg2d: Sum(rhs),rhsMax =  -2.86625374697939E-01  1.40338816054642E-03
 cg2d: Sum(rhs),rhsMax =  -1.30315843389595E+00  1.44268599698109E-03
 cg2d: Sum(rhs),rhsMax =  -2.68067690309178E+00  1.50836886645920E-03
 cg2d: Sum(rhs),rhsMax =  -4.07407453343250E+00  1.58424366935656E-03
 cg2d: Sum(rhs),rhsMax =  -5.18272347920092E+00  1.66593592902169E-03
 cg2d: Sum(rhs),rhsMax =  -5.80990598182936E+00  1.74846175407087E-03
 cg2d: Sum(rhs),rhsMax =  -5.87740627444842E+00  1.82725971247070E-03
 cg2d: Sum(rhs),rhsMax =  -5.41358311248541E+00  1.89900434738709E-03
 cg2d: Sum(rhs),rhsMax =  -4.53080676672095E+00  1.96213934603394E-03
 cg2d: Sum(rhs),rhsMax =  -3.22587898741015E+00  2.12611202843908E-03
 cg2d: Sum(rhs),rhsMax =  -2.04447211778019E+00  2.24837954007174E-03
 cg2d: Sum(rhs),rhsMax =  -1.10818137254419E+00  2.30404049417154E-03
 cg2d: Sum(rhs),rhsMax =  -4.90484880793123E-01  2.29576532657586E-03
 cg2d: Sum(rhs),rhsMax =  -2.61247064589864E-01  2.23814842398555E-03
 cg2d: Sum(rhs),rhsMax =  -4.50921969432786E-01  2.26266907062598E-03
 cg2d: Sum(rhs),rhsMax =  -1.00469610680279E+00  2.31946123156148E-03
 cg2d: Sum(rhs),rhsMax =  -1.78565331428699E+00  2.37599941699002E-03
 cg2d: Sum(rhs),rhsMax =  -2.62429308806021E+00  2.42805543523713E-03
 cg2d: Sum(rhs),rhsMax =  -3.35748486652344E+00  2.47123045137785E-03
 cg2d: Sum(rhs),rhsMax =  -3.85508917792186E+00  2.50195598424125E-03
 cg2d: Sum(rhs),rhsMax =  -4.03589978161052E+00  2.51830322616017E-03
 cg2d: Sum(rhs),rhsMax =  -3.87512848122092E+00  2.52047519161478E-03
 cg2d: Sum(rhs),rhsMax =  -3.40600368766705E+00  2.51092921829029E-03
 cg2d: Sum(rhs),rhsMax =  -2.61682443085650E+00  2.58874087705794E-03
 cg2d: Sum(rhs),rhsMax =  -1.83238712040863E+00  2.61669730367657E-03
 cg2d: Sum(rhs),rhsMax =  -1.17513338123835E+00  2.56005946626323E-03
 cg2d: Sum(rhs),rhsMax =  -7.11994619021952E-01  2.47855830471951E-03
 cg2d: Sum(rhs),rhsMax =  -5.26422153384276E-01  2.47042092652438E-03
 cg2d: Sum(rhs),rhsMax =  -6.78930217534185E-01  2.49676870436120E-03
 cg2d: Sum(rhs),rhsMax =  -1.12673722432623E+00  2.53652611558979E-03
 cg2d: Sum(rhs),rhsMax =  -1.75981625925858E+00  2.58504763947379E-03
 cg2d: Sum(rhs),rhsMax =  -2.43940636487949E+00  2.63568090342327E-03
 cg2d: Sum(rhs),rhsMax =  -3.03203010257299E+00  2.68092813877453E-03
 cg2d: Sum(rhs),rhsMax =  -3.40991312158058E+00  2.73286304325168E-03
 cg2d: Sum(rhs),rhsMax =  -3.48046023569955E+00  2.80943922792468E-03
 cg2d: Sum(rhs),rhsMax =  -3.32063073446084E+00  2.84054009081787E-03
 cg2d: Sum(rhs),rhsMax =  -2.96079447973104E+00  2.82589058019145E-03
 cg2d: Sum(rhs),rhsMax =  -2.32992811219183E+00  2.92147975556506E-03
 cg2d: Sum(rhs),rhsMax =  -1.72242456334873E+00  2.94384963737488E-03
 cg2d: Sum(rhs),rhsMax =  -1.21221903839641E+00  2.89157780731816E-03
 cg2d: Sum(rhs),rhsMax =  -8.69698396887358E-01  2.78046458340440E-03
 cg2d: Sum(rhs),rhsMax =  -7.64867807829297E-01  2.63730950925745E-03
 cg2d: Sum(rhs),rhsMax =  -9.31747853736919E-01  2.54529703021219E-03
 cg2d: Sum(rhs),rhsMax =  -1.31074339389754E+00  2.59464768238501E-03
 cg2d: Sum(rhs),rhsMax =  -1.82960843792254E+00  2.67470087861181E-03
 cg2d: Sum(rhs),rhsMax =  -2.36415409951312E+00  2.77096211877723E-03
 cg2d: Sum(rhs),rhsMax =  -2.80794780298155E+00  2.86583705785066E-03
 cg2d: Sum(rhs),rhsMax =  -3.09076538823369E+00  2.94225353860086E-03
 cg2d: Sum(rhs),rhsMax =  -3.17911024754337E+00  2.98708406703013E-03
 cg2d: Sum(rhs),rhsMax =  -3.06968981622720E+00  2.99369701540086E-03
 cg2d: Sum(rhs),rhsMax =  -2.74200031205484E+00  3.00868116487984E-03
 cg2d: Sum(rhs),rhsMax =  -2.22987018973600E+00  3.08320496996908E-03
 cg2d: Sum(rhs),rhsMax =  -1.72892384856711E+00  3.09216603101990E-03
 cg2d: Sum(rhs),rhsMax =  -1.30661126847774E+00  3.03707924728024E-03
 cg2d: Sum(rhs),rhsMax =  -1.02724588363416E+00  2.93201255385945E-03
 cg2d: Sum(rhs),rhsMax =  -9.49612091178785E-01  2.80059569163437E-03
 cg2d: Sum(rhs),rhsMax =  -1.10546682742709E+00  2.68802011380226E-03
 cg2d: Sum(rhs),rhsMax =  -1.41911847186729E+00  2.73183503329568E-03
 cg2d: Sum(rhs),rhsMax =  -1.85263653820839E+00  2.80075123463747E-03
 cg2d: Sum(rhs),rhsMax =  -2.30607106956525E+00  2.88121983773038E-03
 cg2d: Sum(rhs),rhsMax =  -2.69038334864684E+00  2.95745898012559E-03
 cg2d: Sum(rhs),rhsMax =  -2.94313286957795E+00  3.01465309035140E-03
 cg2d: Sum(rhs),rhsMax =  -3.03123925871893E+00  3.04190025232776E-03
 cg2d: Sum(rhs),rhsMax =  -2.94785324245880E+00  3.03433139467572E-03
 cg2d: Sum(rhs),rhsMax =  -2.61356656506145E+00  3.10365978437266E-03
 cg2d: Sum(rhs),rhsMax =  -2.18161318561576E+00  3.16115505371591E-03
 cg2d: Sum(rhs),rhsMax =  -1.75526124805773E+00  3.15966313860226E-03
 cg2d: Sum(rhs),rhsMax =  -1.39603744330410E+00  3.10114912636037E-03
 cg2d: Sum(rhs),rhsMax =  -1.16177140936406E+00  2.99876545894312E-03
 cg2d: Sum(rhs),rhsMax =  -1.10293748083744E+00  2.87411083689306E-03
 cg2d: Sum(rhs),rhsMax =  -1.24975135129426E+00  2.75286354916429E-03
 cg2d: Sum(rhs),rhsMax =  -1.53840871106699E+00  2.75098214797751E-03
 cg2d: Sum(rhs),rhsMax =  -1.91301874975125E+00  2.81271667257947E-03
 cg2d: Sum(rhs),rhsMax =  -2.30705943592014E+00  2.88449379269857E-03
 cg2d: Sum(rhs),rhsMax =  -2.64297556821732E+00  2.95188723647635E-03
 cg2d: Sum(rhs),rhsMax =  -2.86495133427628E+00  3.00154116673527E-03
 cg2d: Sum(rhs),rhsMax =  -2.94238812803126E+00  3.02377924227248E-03
 cg2d: Sum(rhs),rhsMax =  -2.84207314415875E+00  3.04217207137180E-03
 cg2d: Sum(rhs),rhsMax =  -2.51902176934631E+00  3.13830805536222E-03
 cg2d: Sum(rhs),rhsMax =  -2.14123731269665E+00  3.18959324139994E-03
 cg2d: Sum(rhs),rhsMax =  -1.76835919977362E+00  3.18714933193480E-03
 cg2d: Sum(rhs),rhsMax =  -1.45590350611050E+00  3.13272230190311E-03
 cg2d: Sum(rhs),rhsMax =  -1.25508071791149E+00  3.03818418371804E-03
 cg2d: Sum(rhs),rhsMax =  -1.20874904905870E+00  2.92305993264564E-03
 cg2d: Sum(rhs),rhsMax =  -1.34034311693797E+00  2.81059307575717E-03
 cg2d: Sum(rhs),rhsMax =  -1.62624333527341E+00  2.74190570659215E-03
(PID.TID 0000.0001) %CHECKPOINT       100 ckptB
 --> objf_test(bi,bj)   =  0.509071980933069E-01
 --> objf_tracer(bi,bj) =  0.000000000000000E+00
 --> objf_atl(bi,bj)    =  0.000000000000000E+00
  local fc =  0.509071980933069E-01
 global fc =  0.509071980933069E-01
(PID.TID 0000.0001)  MDS_READ_FIELD: opening file: xx_depth.0000000000.001.001.data
grad-res -------------------------------
 grad-res     0   11    1    3    1    1    1    1   0.509071982062E-01 0.509071983190E-01 0.509071980933E-01
 grad-res     0   11   11   11   25    1    1    1   0.112863032059E-05 0.112844525391E-05 0.163974584676E-03
(PID.TID 0000.0001)   ADM  precision_derivative_cost =    5.09071982061515E-02
(PID.TID 0000.0001)   ADM  precision_derivative_grad =    1.12863032059428E-06
 ph-grd  ierr ---------------------------
 ph-grd  ierr =  0, icomp =  11, ichknum =  11
 ph-grd -->hit<--  2 3 1 1
(PID.TID 0000.0001)  MDS_READ_FIELD: opening file: adxx_depth.0000000000.001.001.data
(PID.TID 0000.0001)  MDS_READ_FIELD: opening file: xx_depth.0000000000.001.001.data
(PID.TID 0000.0001)  MDS_READ_FIELD: opening global file: noWalls.bigRidge
(PID.TID 0000.0001) // =======================================================
(PID.TID 0000.0001) // Field Model R_low (ini_masks_etc) at iteration          1
(PID.TID 0000.0001) // CMIN =         -5.000000000000000E+03
(PID.TID 0000.0001) // CMAX =         -2.000000000000000E+03
(PID.TID 0000.0001) // CINT =          1.111111111111111E+02
(PID.TID 0000.0001) // SYMBOLS (CMIN->CMAX): -abcdefghijklmnopqrstuvwxyz+
(PID.TID 0000.0001) //                  0.0: .
(PID.TID 0000.0001) // RANGE I (Lo:Hi:Step):(  -1:   7:   1)
(PID.TID 0000.0001) // RANGE J (Lo:Hi:Step):(   7:  -1:  -1)
(PID.TID 0000.0001) // RANGE K (Lo:Hi:Step):(   1:   1:   1)
(PID.TID 0000.0001) // =======================================================
(PID.TID 0000.0001) K =   1
(PID.TID 0000.0001) //
(PID.TID 0000.0001) // |--J--|101234567
(PID.TID 0000.0001) //      7 ----+----
(PID.TID 0000.0001) //      6 ----+----
(PID.TID 0000.0001) //      5 ----+----
(PID.TID 0000.0001) //      4 ----+----
(PID.TID 0000.0001) //      3 ----+----
(PID.TID 0000.0001) //      2 ----+----
(PID.TID 0000.0001) //      1 ----+----
(PID.TID 0000.0001) //      0 ----+----
(PID.TID 0000.0001) //     -1 ----+----
(PID.TID 0000.0001) // =======================================================
(PID.TID 0000.0001) // END OF FIELD                                          =
(PID.TID 0000.0001) // =======================================================
(PID.TID 0000.0001) 
(PID.TID 0000.0001) // =======================================================
(PID.TID 0000.0001) // Field Model Ro_surf (ini_masks_etc) at iteration          1
(PID.TID 0000.0001) // CMIN =          1.000000000000000E+32
(PID.TID 0000.0001) // CMAX =         -1.000000000000000E+32
(PID.TID 0000.0001) // CINT =          0.000000000000000E+00
(PID.TID 0000.0001) // SYMBOLS (CMIN->CMAX): -abcdefghijklmnopqrstuvwxyz+
(PID.TID 0000.0001) //                  0.0: .
(PID.TID 0000.0001) // RANGE I (Lo:Hi:Step):(  -1:   7:   1)
(PID.TID 0000.0001) // RANGE J (Lo:Hi:Step):(   7:  -1:  -1)
(PID.TID 0000.0001) // RANGE K (Lo:Hi:Step):(   1:   1:   1)
(PID.TID 0000.0001) // =======================================================
(PID.TID 0000.0001) // =======================================================
(PID.TID 0000.0001) // END OF FIELD                                          =
(PID.TID 0000.0001) // =======================================================
(PID.TID 0000.0001) 
(PID.TID 0000.0001) // =======================================================
(PID.TID 0000.0001) // Field hFacC at iteration          1
(PID.TID 0000.0001) // CMIN =          1.000000000000000E+00
(PID.TID 0000.0001) // CMAX =          1.000000000000000E+00
(PID.TID 0000.0001) // CINT =          0.000000000000000E+00
(PID.TID 0000.0001) // SYMBOLS (CMIN->CMAX): -abcdefghijklmnopqrstuvwxyz+
(PID.TID 0000.0001) //                  0.0: .
(PID.TID 0000.0001) // RANGE I (Lo:Hi:Step):(  -1:   7:   1)
(PID.TID 0000.0001) // RANGE J (Lo:Hi:Step):(   7:  -1:  -1)
(PID.TID 0000.0001) // RANGE K (Lo:Hi:Step):(   1:   1:   1)
(PID.TID 0000.0001) // =======================================================
(PID.TID 0000.0001) // =======================================================
(PID.TID 0000.0001) // END OF FIELD                                          =
(PID.TID 0000.0001) // =======================================================
(PID.TID 0000.0001) 
(PID.TID 0000.0001) // =======================================================
(PID.TID 0000.0001) // Field hFacW at iteration          1
(PID.TID 0000.0001) // CMIN =          1.000000000000000E+00
(PID.TID 0000.0001) // CMAX =          1.000000000000000E+00
(PID.TID 0000.0001) // CINT =          0.000000000000000E+00
(PID.TID 0000.0001) // SYMBOLS (CMIN->CMAX): -abcdefghijklmnopqrstuvwxyz+
(PID.TID 0000.0001) //                  0.0: .
(PID.TID 0000.0001) // RANGE I (Lo:Hi:Step):(  -1:   7:   1)
(PID.TID 0000.0001) // RANGE J (Lo:Hi:Step):(   7:  -1:  -1)
(PID.TID 0000.0001) // RANGE K (Lo:Hi:Step):(   1:   1:   1)
(PID.TID 0000.0001) // =======================================================
(PID.TID 0000.0001) // =======================================================
(PID.TID 0000.0001) // END OF FIELD                                          =
(PID.TID 0000.0001) // =======================================================
(PID.TID 0000.0001) 
(PID.TID 0000.0001) // =======================================================
(PID.TID 0000.0001) // Field hFacS at iteration          1
(PID.TID 0000.0001) // CMIN =          1.000000000000000E+00
(PID.TID 0000.0001) // CMAX =          1.000000000000000E+00
(PID.TID 0000.0001) // CINT =          0.000000000000000E+00
(PID.TID 0000.0001) // SYMBOLS (CMIN->CMAX): -abcdefghijklmnopqrstuvwxyz+
(PID.TID 0000.0001) //                  0.0: .
(PID.TID 0000.0001) // RANGE I (Lo:Hi:Step):(  -1:   7:   1)
(PID.TID 0000.0001) // RANGE J (Lo:Hi:Step):(   7:  -1:  -1)
(PID.TID 0000.0001) // RANGE K (Lo:Hi:Step):(   1:   1:   1)
(PID.TID 0000.0001) // =======================================================
(PID.TID 0000.0001) // =======================================================
(PID.TID 0000.0001) // END OF FIELD                                          =
(PID.TID 0000.0001) // =======================================================
(PID.TID 0000.0001) 
(PID.TID 0000.0001) %MON surfExpanfCori_max           =  -1.0735540000000E-04
(PID.TID 0000.0001) %MON surfExpanfCori_min           =  -1.1783060000000E-04
(PID.TID 0000.0001) %MON surfExpanfCori_mean          =  -1.1259300000000E-04
(PID.TID 0000.0001) %MON surfExpanfCori_sd            =   3.7035424771427E-06
(PID.TID 0000.0001) %MON surfExpanfCoriG_max          =  -1.0866480000000E-04
(PID.TID 0000.0001) %MON surfExpanfCoriG_min          =  -1.1914000000000E-04
(PID.TID 0000.0001) %MON surfExpanfCoriG_mean         =  -1.1390240000000E-04
(PID.TID 0000.0001) %MON surfExpanfCoriG_sd           =   3.7035424771427E-06
(PID.TID 0000.0001) %MON surfExpanfCoriCos_max        =   0.0000000000000E+00
(PID.TID 0000.0001) %MON surfExpanfCoriCos_min        =   0.0000000000000E+00
(PID.TID 0000.0001) %MON surfExpanfCoriCos_mean       =   0.0000000000000E+00
(PID.TID 0000.0001) %MON surfExpanfCoriCos_sd         =   0.0000000000000E+00
(PID.TID 0000.0001) INI_CG2D: CG2D normalisation factor =  1.9999999999999996E-04
(PID.TID 0000.0001) 
                     ctrl_depth_ini: ctrl update R_low,
                                     adding the control vector.
(PID.TID 0000.0001)  MDS_READ_FIELD: opening file: xx_depth.0000000000.001.001.data
(PID.TID 0000.0001) // =======================================================
(PID.TID 0000.0001) // Field Model Ro_surf (update_masks_etc) at iteration          1
(PID.TID 0000.0001) // CMIN =          1.000000000000000E+32
(PID.TID 0000.0001) // CMAX =         -1.000000000000000E+32
(PID.TID 0000.0001) // CINT =          0.000000000000000E+00
(PID.TID 0000.0001) // SYMBOLS (CMIN->CMAX): -abcdefghijklmnopqrstuvwxyz+
(PID.TID 0000.0001) //                  0.0: .
(PID.TID 0000.0001) // RANGE I (Lo:Hi:Step):(  -1:   7:   1)
(PID.TID 0000.0001) // RANGE J (Lo:Hi:Step):(   7:  -1:  -1)
(PID.TID 0000.0001) // RANGE K (Lo:Hi:Step):(   1:   1:   1)
(PID.TID 0000.0001) // =======================================================
(PID.TID 0000.0001) // =======================================================
(PID.TID 0000.0001) // END OF FIELD                                          =
(PID.TID 0000.0001) // =======================================================
(PID.TID 0000.0001) 
(PID.TID 0000.0001) // =======================================================
(PID.TID 0000.0001) // Field hFacC at iteration          1
(PID.TID 0000.0001) // CMIN =          1.000000000000000E+00
(PID.TID 0000.0001) // CMAX =          1.000000000000000E+00
(PID.TID 0000.0001) // CINT =          0.000000000000000E+00
(PID.TID 0000.0001) // SYMBOLS (CMIN->CMAX): -abcdefghijklmnopqrstuvwxyz+
(PID.TID 0000.0001) //                  0.0: .
(PID.TID 0000.0001) // RANGE I (Lo:Hi:Step):(  -1:   7:   1)
(PID.TID 0000.0001) // RANGE J (Lo:Hi:Step):(   7:  -1:  -1)
(PID.TID 0000.0001) // RANGE K (Lo:Hi:Step):(   1:   1:   1)
(PID.TID 0000.0001) // =======================================================
(PID.TID 0000.0001) // =======================================================
(PID.TID 0000.0001) // END OF FIELD                                          =
(PID.TID 0000.0001) // =======================================================
(PID.TID 0000.0001) 
(PID.TID 0000.0001) // =======================================================
(PID.TID 0000.0001) // Field hFacW at iteration          1
(PID.TID 0000.0001) // CMIN =          1.000000000000000E+00
(PID.TID 0000.0001) // CMAX =          1.000000000000000E+00
(PID.TID 0000.0001) // CINT =          0.000000000000000E+00
(PID.TID 0000.0001) // SYMBOLS (CMIN->CMAX): -abcdefghijklmnopqrstuvwxyz+
(PID.TID 0000.0001) //                  0.0: .
(PID.TID 0000.0001) // RANGE I (Lo:Hi:Step):(  -1:   7:   1)
(PID.TID 0000.0001) // RANGE J (Lo:Hi:Step):(   7:  -1:  -1)
(PID.TID 0000.0001) // RANGE K (Lo:Hi:Step):(   1:   1:   1)
(PID.TID 0000.0001) // =======================================================
(PID.TID 0000.0001) // =======================================================
(PID.TID 0000.0001) // END OF FIELD                                          =
(PID.TID 0000.0001) // =======================================================
(PID.TID 0000.0001) 
(PID.TID 0000.0001) // =======================================================
(PID.TID 0000.0001) // Field hFacS at iteration          1
(PID.TID 0000.0001) // CMIN =          1.000000000000000E+00
(PID.TID 0000.0001) // CMAX =          1.000000000000000E+00
(PID.TID 0000.0001) // CINT =          0.000000000000000E+00
(PID.TID 0000.0001) // SYMBOLS (CMIN->CMAX): -abcdefghijklmnopqrstuvwxyz+
(PID.TID 0000.0001) //                  0.0: .
(PID.TID 0000.0001) // RANGE I (Lo:Hi:Step):(  -1:   7:   1)
(PID.TID 0000.0001) // RANGE J (Lo:Hi:Step):(   7:  -1:  -1)
(PID.TID 0000.0001) // RANGE K (Lo:Hi:Step):(   1:   1:   1)
(PID.TID 0000.0001) // =======================================================
(PID.TID 0000.0001) // =======================================================
(PID.TID 0000.0001) // END OF FIELD                                          =
(PID.TID 0000.0001) // =======================================================
(PID.TID 0000.0001) 
(PID.TID 0000.0001) // =======================================================
(PID.TID 0000.0001) // Field Initial Temperature at iteration          1
(PID.TID 0000.0001) // CMIN =          4.000000000000000E+00
(PID.TID 0000.0001) // CMAX =          4.000000000000000E+00
(PID.TID 0000.0001) // CINT =          0.000000000000000E+00
(PID.TID 0000.0001) // SYMBOLS (CMIN->CMAX): -abcdefghijklmnopqrstuvwxyz+
(PID.TID 0000.0001) //                  0.0: .
(PID.TID 0000.0001) // RANGE I (Lo:Hi:Step):(   1:   5:   1)
(PID.TID 0000.0001) // RANGE J (Lo:Hi:Step):(   5:   1:  -1)
(PID.TID 0000.0001) // RANGE K (Lo:Hi:Step):(   1:   1:   1)
(PID.TID 0000.0001) // =======================================================
(PID.TID 0000.0001) // =======================================================
(PID.TID 0000.0001) // END OF FIELD                                          =
(PID.TID 0000.0001) // =======================================================
(PID.TID 0000.0001) 
(PID.TID 0000.0001) // =======================================================
(PID.TID 0000.0001) // Field Initial Salinity at iteration          1
(PID.TID 0000.0001) // CMIN =          3.500000000000000E+01
(PID.TID 0000.0001) // CMAX =          3.500000000000000E+01
(PID.TID 0000.0001) // CINT =          0.000000000000000E+00
(PID.TID 0000.0001) // SYMBOLS (CMIN->CMAX): -abcdefghijklmnopqrstuvwxyz+
(PID.TID 0000.0001) //                  0.0: .
(PID.TID 0000.0001) // RANGE I (Lo:Hi:Step):(   1:   5:   1)
(PID.TID 0000.0001) // RANGE J (Lo:Hi:Step):(   5:   1:  -1)
(PID.TID 0000.0001) // RANGE K (Lo:Hi:Step):(   1:   1:   1)
(PID.TID 0000.0001) // =======================================================
(PID.TID 0000.0001) // =======================================================
(PID.TID 0000.0001) // END OF FIELD                                          =
(PID.TID 0000.0001) // =======================================================
(PID.TID 0000.0001) 
(PID.TID 0000.0001) Start initial hydrostatic pressure computation
(PID.TID 0000.0001) Pressure is predetermined for buoyancyRelation OCEANIC
(PID.TID 0000.0001) 
(PID.TID 0000.0001)  MDS_READ_FIELD: opening global file: windx.sin_y
(PID.TID 0000.0001) // =======================================================
(PID.TID 0000.0001) // Model current state
(PID.TID 0000.0001) // =======================================================
(PID.TID 0000.0001) 
 cg2d: Sum(rhs),rhsMax =   0.00000000000000E+00  0.00000000000000E+00
 cg2d: Sum(rhs),rhsMax =  -2.49999999999996E+01  6.03492218443698E-05
 cg2d: Sum(rhs),rhsMax =  -1.81034404639062E+01  2.18766023587219E-04
 cg2d: Sum(rhs),rhsMax =  -1.54955562832147E+01  4.32479836297446E-04
 cg2d: Sum(rhs),rhsMax =  -1.41111452325358E+01  6.49958988342561E-04
 cg2d: Sum(rhs),rhsMax =  -1.31144322331462E+01  8.30737102836203E-04
 cg2d: Sum(rhs),rhsMax =  -1.21209090325481E+01  9.52510661965997E-04
 cg2d: Sum(rhs),rhsMax =  -1.07124742373092E+01  1.02806631162491E-03
 cg2d: Sum(rhs),rhsMax =  -7.41375936724937E+00  1.27086596324373E-03
 cg2d: Sum(rhs),rhsMax =  -4.70217533466662E+00  1.51019014090725E-03
 cg2d: Sum(rhs),rhsMax =  -2.72440685908624E+00  1.65833738321582E-03
 cg2d: Sum(rhs),rhsMax =  -1.27958669018865E+00  1.70565508860431E-03
 cg2d: Sum(rhs),rhsMax =  -3.29564698953562E-01  1.66071960674402E-03
 cg2d: Sum(rhs),rhsMax =   5.21320407837534E-02  1.54812756247173E-03
 cg2d: Sum(rhs),rhsMax =  -2.86625373969956E-01  1.40338816202124E-03
 cg2d: Sum(rhs),rhsMax =  -1.30315843325604E+00  1.44268599707810E-03
 cg2d: Sum(rhs),rhsMax =  -2.68067690241749E+00  1.50836886648567E-03
 cg2d: Sum(rhs),rhsMax =  -4.07407453297554E+00  1.58424366928659E-03
 cg2d: Sum(rhs),rhsMax =  -5.18272347920601E+00  1.66593592883587E-03
 cg2d: Sum(rhs),rhsMax =  -5.80990598242880E+00  1.74846175375867E-03
 cg2d: Sum(rhs),rhsMax =  -5.87740627561826E+00  1.82725971203153E-03
 cg2d: Sum(rhs),rhsMax =  -5.41358311407044E+00  1.89900434682951E-03
 cg2d: Sum(rhs),rhsMax =  -4.53080676850238E+00  1.96213934537310E-03
 cg2d: Sum(rhs),rhsMax =  -3.22587899581168E+00  2.12611202322296E-03
 cg2d: Sum(rhs),rhsMax =  -2.04447212361804E+00  2.24837953440586E-03
 cg2d: Sum(rhs),rhsMax =  -1.10818137616889E+00  2.30404048841359E-03
 cg2d: Sum(rhs),rhsMax =  -4.90484882969475E-01  2.29576532105300E-03
 cg2d: Sum(rhs),rhsMax =  -2.61247066286303E-01  2.23814841893978E-03
 cg2d: Sum(rhs),rhsMax =  -4.50921970771262E-01  2.26266906957299E-03
 cg2d: Sum(rhs),rhsMax =  -1.00469610839668E+00  2.31946123041462E-03
 cg2d: Sum(rhs),rhsMax =  -1.78565331629112E+00  2.37599941572410E-03
 cg2d: Sum(rhs),rhsMax =  -2.62429309060645E+00  2.42805543382707E-03
 cg2d: Sum(rhs),rhsMax =  -3.35748486969337E+00  2.47123044980234E-03
 cg2d: Sum(rhs),rhsMax =  -3.85508918171909E+00  2.50195598248551E-03
 cg2d: Sum(rhs),rhsMax =  -4.03589978594369E+00  2.51830322421724E-03
 cg2d: Sum(rhs),rhsMax =  -3.87512848590697E+00  2.52047518948524E-03
 cg2d: Sum(rhs),rhsMax =  -3.40600369246043E+00  2.51092921598045E-03
 cg2d: Sum(rhs),rhsMax =  -2.61682443787098E+00  2.58874087197202E-03
 cg2d: Sum(rhs),rhsMax =  -1.83238712636173E+00  2.61669729819761E-03
 cg2d: Sum(rhs),rhsMax =  -1.17513338619952E+00  2.56005946070136E-03
 cg2d: Sum(rhs),rhsMax =  -7.11994624580636E-01  2.47855829473736E-03
 cg2d: Sum(rhs),rhsMax =  -5.26422156887151E-01  2.47042092340334E-03
 cg2d: Sum(rhs),rhsMax =  -6.78930221301250E-01  2.49676870106383E-03
 cg2d: Sum(rhs),rhsMax =  -1.12673722869410E+00  2.53652611209928E-03
 cg2d: Sum(rhs),rhsMax =  -1.75981626447934E+00  2.58504763577160E-03
 cg2d: Sum(rhs),rhsMax =  -2.43940637106750E+00  2.63568089949169E-03
 cg2d: Sum(rhs),rhsMax =  -3.03203010968917E+00  2.68092813459893E-03
 cg2d: Sum(rhs),rhsMax =  -3.40991312100149E+00  2.73286304551333E-03
 cg2d: Sum(rhs),rhsMax =  -3.48046023472656E+00  2.80943923040365E-03
 cg2d: Sum(rhs),rhsMax =  -3.32063073330264E+00  2.84054009353441E-03
 cg2d: Sum(rhs),rhsMax =  -2.96079447861001E+00  2.82589058316357E-03
 cg2d: Sum(rhs),rhsMax =  -2.32992811528736E+00  2.92147975407355E-03
 cg2d: Sum(rhs),rhsMax =  -1.72242456619409E+00  2.94384963570050E-03
 cg2d: Sum(rhs),rhsMax =  -1.21221904095914E+00  2.89157780561565E-03
 cg2d: Sum(rhs),rhsMax =  -8.69698399192729E-01  2.78046458186926E-03
 cg2d: Sum(rhs),rhsMax =  -7.64867809924647E-01  2.63730950808816E-03
 cg2d: Sum(rhs),rhsMax =  -9.31747853654024E-01  2.54529703472034E-03
 cg2d: Sum(rhs),rhsMax =  -1.31074339272971E+00  2.59464768709417E-03
 cg2d: Sum(rhs),rhsMax =  -1.82960843536111E+00  2.67470088350756E-03
 cg2d: Sum(rhs),rhsMax =  -2.36415409551118E+00  2.77096212385422E-03
 cg2d: Sum(rhs),rhsMax =  -2.80794779768649E+00  2.86583706311465E-03
 cg2d: Sum(rhs),rhsMax =  -3.09076538188689E+00  2.94225354406882E-03
 cg2d: Sum(rhs),rhsMax =  -3.17911024041018E+00  2.98708407272808E-03
 cg2d: Sum(rhs),rhsMax =  -3.06968980856896E+00  2.99369702135995E-03
 cg2d: Sum(rhs),rhsMax =  -2.74200030780960E+00  3.00868116731429E-03
 cg2d: Sum(rhs),rhsMax =  -2.22987018551462E+00  3.08320497239635E-03
 cg2d: Sum(rhs),rhsMax =  -1.72892384421819E+00  3.09216603348572E-03
 cg2d: Sum(rhs),rhsMax =  -1.30661126377741E+00  3.03707924987690E-03
 cg2d: Sum(rhs),rhsMax =  -1.02724587829384E+00  2.93201255670307E-03
 cg2d: Sum(rhs),rhsMax =  -9.49612084816000E-01  2.80059569483765E-03
 cg2d: Sum(rhs),rhsMax =  -1.10546681775211E+00  2.68802012193093E-03
 cg2d: Sum(rhs),rhsMax =  -1.41911846039931E+00  2.73183504165707E-03
 cg2d: Sum(rhs),rhsMax =  -1.85263652465901E+00  2.80075124319994E-03
 cg2d: Sum(rhs),rhsMax =  -2.30607105394246E+00  2.88121984647088E-03
 cg2d: Sum(rhs),rhsMax =  -2.69038333116387E+00  2.95745898903342E-03
 cg2d: Sum(rhs),rhsMax =  -2.94313285053114E+00  3.01465309942959E-03
 cg2d: Sum(rhs),rhsMax =  -3.03123923840289E+00  3.04190026159188E-03
 cg2d: Sum(rhs),rhsMax =  -2.94785322113257E+00  3.03433140415040E-03
 cg2d: Sum(rhs),rhsMax =  -2.61356654775960E+00  3.10365978965221E-03
 cg2d: Sum(rhs),rhsMax =  -2.18161316836571E+00  3.16115505895424E-03
 cg2d: Sum(rhs),rhsMax =  -1.75526123043017E+00  3.15966314388706E-03
 cg2d: Sum(rhs),rhsMax =  -1.39603742475874E+00  3.10114913181560E-03
 cg2d: Sum(rhs),rhsMax =  -1.16177138927095E+00  2.99876546470399E-03
 cg2d: Sum(rhs),rhsMax =  -1.10293745847892E+00  2.87411084307835E-03
 cg2d: Sum(rhs),rhsMax =  -1.24975132590656E+00  2.75286355585123E-03
 cg2d: Sum(rhs),rhsMax =  -1.53840868066127E+00  2.75098215956052E-03
 cg2d: Sum(rhs),rhsMax =  -1.91301871675403E+00  2.81271668435195E-03
 cg2d: Sum(rhs),rhsMax =  -2.30705940040922E+00  2.88449380463873E-03
 cg2d: Sum(rhs),rhsMax =  -2.64297553043410E+00  2.95188724857225E-03
 cg2d: Sum(rhs),rhsMax =  -2.86495129450144E+00  3.00154117898618E-03
 cg2d: Sum(rhs),rhsMax =  -2.94238808650504E+00  3.02377925468803E-03
 cg2d: Sum(rhs),rhsMax =  -2.84207310576998E+00  3.04217207945982E-03
 cg2d: Sum(rhs),rhsMax =  -2.51902173161082E+00  3.13830806323534E-03
 cg2d: Sum(rhs),rhsMax =  -2.14123727510157E+00  3.18959324908854E-03
 cg2d: Sum(rhs),rhsMax =  -1.76835916154264E+00  3.18714933953279E-03
 cg2d: Sum(rhs),rhsMax =  -1.45590346631822E+00  3.13272230955033E-03
 cg2d: Sum(rhs),rhsMax =  -1.25508067555498E+00  3.03818419157393E-03
 cg2d: Sum(rhs),rhsMax =  -1.20874900312304E+00  2.92305994085923E-03
 cg2d: Sum(rhs),rhsMax =  -1.34034306651496E+00  2.81059308443885E-03
 cg2d: Sum(rhs),rhsMax =  -1.62624327720941E+00  2.74190572084699E-03
(PID.TID 0000.0001) %CHECKPOINT       100 ckptA
 --> objf_test(bi,bj)   =  0.509071981448365E-01
 --> objf_tracer(bi,bj) =  0.000000000000000E+00
 --> objf_atl(bi,bj)    =  0.000000000000000E+00
  local fc =  0.509071981448365E-01
 global fc =  0.509071981448365E-01
 ph-check fcpertplus =   0.0509071981
(PID.TID 0000.0001)  MDS_READ_FIELD: opening file: xx_depth.0000000000.001.001.data
 ph-check fcpertminus =   0.0509071982
(PID.TID 0000.0001)  MDS_READ_FIELD: opening file: xx_depth.0000000000.001.001.data
(PID.TID 0000.0001)  MDS_READ_FIELD: opening global file: noWalls.bigRidge
(PID.TID 0000.0001) // =======================================================
(PID.TID 0000.0001) // Field Model R_low (ini_masks_etc) at iteration          1
(PID.TID 0000.0001) // CMIN =         -5.000000000000000E+03
(PID.TID 0000.0001) // CMAX =         -2.000000000000000E+03
(PID.TID 0000.0001) // CINT =          1.111111111111111E+02
(PID.TID 0000.0001) // SYMBOLS (CMIN->CMAX): -abcdefghijklmnopqrstuvwxyz+
(PID.TID 0000.0001) //                  0.0: .
(PID.TID 0000.0001) // RANGE I (Lo:Hi:Step):(  -1:   7:   1)
(PID.TID 0000.0001) // RANGE J (Lo:Hi:Step):(   7:  -1:  -1)
(PID.TID 0000.0001) // RANGE K (Lo:Hi:Step):(   1:   1:   1)
(PID.TID 0000.0001) // =======================================================
(PID.TID 0000.0001) K =   1
(PID.TID 0000.0001) //
(PID.TID 0000.0001) // |--J--|101234567
(PID.TID 0000.0001) //      7 ----+----
(PID.TID 0000.0001) //      6 ----+----
(PID.TID 0000.0001) //      5 ----+----
(PID.TID 0000.0001) //      4 ----+----
(PID.TID 0000.0001) //      3 ----+----
(PID.TID 0000.0001) //      2 ----+----
(PID.TID 0000.0001) //      1 ----+----
(PID.TID 0000.0001) //      0 ----+----
(PID.TID 0000.0001) //     -1 ----+----
(PID.TID 0000.0001) // =======================================================
(PID.TID 0000.0001) // END OF FIELD                                          =
(PID.TID 0000.0001) // =======================================================
(PID.TID 0000.0001) 
(PID.TID 0000.0001) // =======================================================
(PID.TID 0000.0001) // Field Model Ro_surf (ini_masks_etc) at iteration          1
(PID.TID 0000.0001) // CMIN =          1.000000000000000E+32
(PID.TID 0000.0001) // CMAX =         -1.000000000000000E+32
(PID.TID 0000.0001) // CINT =          0.000000000000000E+00
(PID.TID 0000.0001) // SYMBOLS (CMIN->CMAX): -abcdefghijklmnopqrstuvwxyz+
(PID.TID 0000.0001) //                  0.0: .
(PID.TID 0000.0001) // RANGE I (Lo:Hi:Step):(  -1:   7:   1)
(PID.TID 0000.0001) // RANGE J (Lo:Hi:Step):(   7:  -1:  -1)
(PID.TID 0000.0001) // RANGE K (Lo:Hi:Step):(   1:   1:   1)
(PID.TID 0000.0001) // =======================================================
(PID.TID 0000.0001) // =======================================================
(PID.TID 0000.0001) // END OF FIELD                                          =
(PID.TID 0000.0001) // =======================================================
(PID.TID 0000.0001) 
(PID.TID 0000.0001) // =======================================================
(PID.TID 0000.0001) // Field hFacC at iteration          1
(PID.TID 0000.0001) // CMIN =          1.000000000000000E+00
(PID.TID 0000.0001) // CMAX =          1.000000000000000E+00
(PID.TID 0000.0001) // CINT =          0.000000000000000E+00
(PID.TID 0000.0001) // SYMBOLS (CMIN->CMAX): -abcdefghijklmnopqrstuvwxyz+
(PID.TID 0000.0001) //                  0.0: .
(PID.TID 0000.0001) // RANGE I (Lo:Hi:Step):(  -1:   7:   1)
(PID.TID 0000.0001) // RANGE J (Lo:Hi:Step):(   7:  -1:  -1)
(PID.TID 0000.0001) // RANGE K (Lo:Hi:Step):(   1:   1:   1)
(PID.TID 0000.0001) // =======================================================
(PID.TID 0000.0001) // =======================================================
(PID.TID 0000.0001) // END OF FIELD                                          =
(PID.TID 0000.0001) // =======================================================
(PID.TID 0000.0001) 
(PID.TID 0000.0001) // =======================================================
(PID.TID 0000.0001) // Field hFacW at iteration          1
(PID.TID 0000.0001) // CMIN =          1.000000000000000E+00
(PID.TID 0000.0001) // CMAX =          1.000000000000000E+00
(PID.TID 0000.0001) // CINT =          0.000000000000000E+00
(PID.TID 0000.0001) // SYMBOLS (CMIN->CMAX): -abcdefghijklmnopqrstuvwxyz+
(PID.TID 0000.0001) //                  0.0: .
(PID.TID 0000.0001) // RANGE I (Lo:Hi:Step):(  -1:   7:   1)
(PID.TID 0000.0001) // RANGE J (Lo:Hi:Step):(   7:  -1:  -1)
(PID.TID 0000.0001) // RANGE K (Lo:Hi:Step):(   1:   1:   1)
(PID.TID 0000.0001) // =======================================================
(PID.TID 0000.0001) // =======================================================
(PID.TID 0000.0001) // END OF FIELD                                          =
(PID.TID 0000.0001) // =======================================================
(PID.TID 0000.0001) 
(PID.TID 0000.0001) // =======================================================
(PID.TID 0000.0001) // Field hFacS at iteration          1
(PID.TID 0000.0001) // CMIN =          1.000000000000000E+00
(PID.TID 0000.0001) // CMAX =          1.000000000000000E+00
(PID.TID 0000.0001) // CINT =          0.000000000000000E+00
(PID.TID 0000.0001) // SYMBOLS (CMIN->CMAX): -abcdefghijklmnopqrstuvwxyz+
(PID.TID 0000.0001) //                  0.0: .
(PID.TID 0000.0001) // RANGE I (Lo:Hi:Step):(  -1:   7:   1)
(PID.TID 0000.0001) // RANGE J (Lo:Hi:Step):(   7:  -1:  -1)
(PID.TID 0000.0001) // RANGE K (Lo:Hi:Step):(   1:   1:   1)
(PID.TID 0000.0001) // =======================================================
(PID.TID 0000.0001) // =======================================================
(PID.TID 0000.0001) // END OF FIELD                                          =
(PID.TID 0000.0001) // =======================================================
(PID.TID 0000.0001) 
(PID.TID 0000.0001) %MON surfExpanfCori_max           =  -1.0735540000000E-04
(PID.TID 0000.0001) %MON surfExpanfCori_min           =  -1.1783060000000E-04
(PID.TID 0000.0001) %MON surfExpanfCori_mean          =  -1.1259300000000E-04
(PID.TID 0000.0001) %MON surfExpanfCori_sd            =   3.7035424771427E-06
(PID.TID 0000.0001) %MON surfExpanfCoriG_max          =  -1.0866480000000E-04
(PID.TID 0000.0001) %MON surfExpanfCoriG_min          =  -1.1914000000000E-04
(PID.TID 0000.0001) %MON surfExpanfCoriG_mean         =  -1.1390240000000E-04
(PID.TID 0000.0001) %MON surfExpanfCoriG_sd           =   3.7035424771427E-06
(PID.TID 0000.0001) %MON surfExpanfCoriCos_max        =   0.0000000000000E+00
(PID.TID 0000.0001) %MON surfExpanfCoriCos_min        =   0.0000000000000E+00
(PID.TID 0000.0001) %MON surfExpanfCoriCos_mean       =   0.0000000000000E+00
(PID.TID 0000.0001) %MON surfExpanfCoriCos_sd         =   0.0000000000000E+00
(PID.TID 0000.0001) INI_CG2D: CG2D normalisation factor =  1.9999999999999996E-04
(PID.TID 0000.0001) 
                     ctrl_depth_ini: ctrl update R_low,
                                     adding the control vector.
(PID.TID 0000.0001)  MDS_READ_FIELD: opening file: xx_depth.0000000000.001.001.data
(PID.TID 0000.0001) // =======================================================
(PID.TID 0000.0001) // Field Model Ro_surf (update_masks_etc) at iteration          1
(PID.TID 0000.0001) // CMIN =          1.000000000000000E+32
(PID.TID 0000.0001) // CMAX =         -1.000000000000000E+32
(PID.TID 0000.0001) // CINT =          0.000000000000000E+00
(PID.TID 0000.0001) // SYMBOLS (CMIN->CMAX): -abcdefghijklmnopqrstuvwxyz+
(PID.TID 0000.0001) //                  0.0: .
(PID.TID 0000.0001) // RANGE I (Lo:Hi:Step):(  -1:   7:   1)
(PID.TID 0000.0001) // RANGE J (Lo:Hi:Step):(   7:  -1:  -1)
(PID.TID 0000.0001) // RANGE K (Lo:Hi:Step):(   1:   1:   1)
(PID.TID 0000.0001) // =======================================================
(PID.TID 0000.0001) // =======================================================
(PID.TID 0000.0001) // END OF FIELD                                          =
(PID.TID 0000.0001) // =======================================================
(PID.TID 0000.0001) 
(PID.TID 0000.0001) // =======================================================
(PID.TID 0000.0001) // Field hFacC at iteration          1
(PID.TID 0000.0001) // CMIN =          1.000000000000000E+00
(PID.TID 0000.0001) // CMAX =          1.000000000000000E+00
(PID.TID 0000.0001) // CINT =          0.000000000000000E+00
(PID.TID 0000.0001) // SYMBOLS (CMIN->CMAX): -abcdefghijklmnopqrstuvwxyz+
(PID.TID 0000.0001) //                  0.0: .
(PID.TID 0000.0001) // RANGE I (Lo:Hi:Step):(  -1:   7:   1)
(PID.TID 0000.0001) // RANGE J (Lo:Hi:Step):(   7:  -1:  -1)
(PID.TID 0000.0001) // RANGE K (Lo:Hi:Step):(   1:   1:   1)
(PID.TID 0000.0001) // =======================================================
(PID.TID 0000.0001) // =======================================================
(PID.TID 0000.0001) // END OF FIELD                                          =
(PID.TID 0000.0001) // =======================================================
(PID.TID 0000.0001) 
(PID.TID 0000.0001) // =======================================================
(PID.TID 0000.0001) // Field hFacW at iteration          1
(PID.TID 0000.0001) // CMIN =          1.000000000000000E+00
(PID.TID 0000.0001) // CMAX =          1.000000000000000E+00
(PID.TID 0000.0001) // CINT =          0.000000000000000E+00
(PID.TID 0000.0001) // SYMBOLS (CMIN->CMAX): -abcdefghijklmnopqrstuvwxyz+
(PID.TID 0000.0001) //                  0.0: .
(PID.TID 0000.0001) // RANGE I (Lo:Hi:Step):(  -1:   7:   1)
(PID.TID 0000.0001) // RANGE J (Lo:Hi:Step):(   7:  -1:  -1)
(PID.TID 0000.0001) // RANGE K (Lo:Hi:Step):(   1:   1:   1)
(PID.TID 0000.0001) // =======================================================
(PID.TID 0000.0001) // =======================================================
(PID.TID 0000.0001) // END OF FIELD                                          =
(PID.TID 0000.0001) // =======================================================
(PID.TID 0000.0001) 
(PID.TID 0000.0001) // =======================================================
(PID.TID 0000.0001) // Field hFacS at iteration          1
(PID.TID 0000.0001) // CMIN =          1.000000000000000E+00
(PID.TID 0000.0001) // CMAX =          1.000000000000000E+00
(PID.TID 0000.0001) // CINT =          0.000000000000000E+00
(PID.TID 0000.0001) // SYMBOLS (CMIN->CMAX): -abcdefghijklmnopqrstuvwxyz+
(PID.TID 0000.0001) //                  0.0: .
(PID.TID 0000.0001) // RANGE I (Lo:Hi:Step):(  -1:   7:   1)
(PID.TID 0000.0001) // RANGE J (Lo:Hi:Step):(   7:  -1:  -1)
(PID.TID 0000.0001) // RANGE K (Lo:Hi:Step):(   1:   1:   1)
(PID.TID 0000.0001) // =======================================================
(PID.TID 0000.0001) // =======================================================
(PID.TID 0000.0001) // END OF FIELD                                          =
(PID.TID 0000.0001) // =======================================================
(PID.TID 0000.0001) 
(PID.TID 0000.0001) // =======================================================
(PID.TID 0000.0001) // Field Initial Temperature at iteration          1
(PID.TID 0000.0001) // CMIN =          4.000000000000000E+00
(PID.TID 0000.0001) // CMAX =          4.000000000000000E+00
(PID.TID 0000.0001) // CINT =          0.000000000000000E+00
(PID.TID 0000.0001) // SYMBOLS (CMIN->CMAX): -abcdefghijklmnopqrstuvwxyz+
(PID.TID 0000.0001) //                  0.0: .
(PID.TID 0000.0001) // RANGE I (Lo:Hi:Step):(   1:   5:   1)
(PID.TID 0000.0001) // RANGE J (Lo:Hi:Step):(   5:   1:  -1)
(PID.TID 0000.0001) // RANGE K (Lo:Hi:Step):(   1:   1:   1)
(PID.TID 0000.0001) // =======================================================
(PID.TID 0000.0001) // =======================================================
(PID.TID 0000.0001) // END OF FIELD                                          =
(PID.TID 0000.0001) // =======================================================
(PID.TID 0000.0001) 
(PID.TID 0000.0001) // =======================================================
(PID.TID 0000.0001) // Field Initial Salinity at iteration          1
(PID.TID 0000.0001) // CMIN =          3.500000000000000E+01
(PID.TID 0000.0001) // CMAX =          3.500000000000000E+01
(PID.TID 0000.0001) // CINT =          0.000000000000000E+00
(PID.TID 0000.0001) // SYMBOLS (CMIN->CMAX): -abcdefghijklmnopqrstuvwxyz+
(PID.TID 0000.0001) //                  0.0: .
(PID.TID 0000.0001) // RANGE I (Lo:Hi:Step):(   1:   5:   1)
(PID.TID 0000.0001) // RANGE J (Lo:Hi:Step):(   5:   1:  -1)
(PID.TID 0000.0001) // RANGE K (Lo:Hi:Step):(   1:   1:   1)
(PID.TID 0000.0001) // =======================================================
(PID.TID 0000.0001) // =======================================================
(PID.TID 0000.0001) // END OF FIELD                                          =
(PID.TID 0000.0001) // =======================================================
(PID.TID 0000.0001) 
(PID.TID 0000.0001) Start initial hydrostatic pressure computation
(PID.TID 0000.0001) Pressure is predetermined for buoyancyRelation OCEANIC
(PID.TID 0000.0001) 
(PID.TID 0000.0001)  MDS_READ_FIELD: opening global file: windx.sin_y
(PID.TID 0000.0001) // =======================================================
(PID.TID 0000.0001) // Model current state
(PID.TID 0000.0001) // =======================================================
(PID.TID 0000.0001) 
 cg2d: Sum(rhs),rhsMax =   0.00000000000000E+00  0.00000000000000E+00
 cg2d: Sum(rhs),rhsMax =  -2.49999999999996E+01  6.03492218443698E-05
 cg2d: Sum(rhs),rhsMax =  -1.81034404639062E+01  2.18766023587219E-04
 cg2d: Sum(rhs),rhsMax =  -1.54955562832148E+01  4.32479836297446E-04
 cg2d: Sum(rhs),rhsMax =  -1.41111452333636E+01  6.49958988304259E-04
 cg2d: Sum(rhs),rhsMax =  -1.31144322333763E+01  8.30737102820569E-04
 cg2d: Sum(rhs),rhsMax =  -1.21209090325294E+01  9.52510661964596E-04
 cg2d: Sum(rhs),rhsMax =  -1.07124742371047E+01  1.02806631163921E-03
 cg2d: Sum(rhs),rhsMax =  -7.41375936606479E+00  1.27086596343769E-03
 cg2d: Sum(rhs),rhsMax =  -4.70217533444144E+00  1.51019014096893E-03
 cg2d: Sum(rhs),rhsMax =  -2.72440685947214E+00  1.65833738298439E-03
 cg2d: Sum(rhs),rhsMax =  -1.27958669075741E+00  1.70565508793839E-03
 cg2d: Sum(rhs),rhsMax =  -3.29564699351450E-01  1.66071960556377E-03
 cg2d: Sum(rhs),rhsMax =   5.21320405471640E-02  1.54812756080089E-03
 cg2d: Sum(rhs),rhsMax =  -2.86625374831030E-01  1.40338816000986E-03
 cg2d: Sum(rhs),rhsMax =  -1.30315843414757E+00  1.44268599667925E-03
 cg2d: Sum(rhs),rhsMax =  -2.68067690357094E+00  1.50836886613943E-03
 cg2d: Sum(rhs),rhsMax =  -4.07407453405527E+00  1.58424366904478E-03
 cg2d: Sum(rhs),rhsMax =  -5.18272347977254E+00  1.66593592874576E-03
 cg2d: Sum(rhs),rhsMax =  -5.80990598213264E+00  1.74846175385688E-03
 cg2d: Sum(rhs),rhsMax =  -5.87740627433295E+00  1.82725971233962E-03
 cg2d: Sum(rhs),rhsMax =  -5.41358311191531E+00  1.89900434735203E-03
 cg2d: Sum(rhs),rhsMax =  -4.53080676576865E+00  1.96213934609871E-03
 cg2d: Sum(rhs),rhsMax =  -3.22587898235802E+00  2.12611203118622E-03
 cg2d: Sum(rhs),rhsMax =  -2.04447211404670E+00  2.24837954311187E-03
 cg2d: Sum(rhs),rhsMax =  -1.10818136994957E+00  2.30404049733599E-03
 cg2d: Sum(rhs),rhsMax =  -4.90484878923158E-01  2.29576532970094E-03
 cg2d: Sum(rhs),rhsMax =  -2.61247062880615E-01  2.23814842693939E-03
 cg2d: Sum(rhs),rhsMax =  -4.50921967871838E-01  2.26266907099723E-03
 cg2d: Sum(rhs),rhsMax =  -1.00469610504399E+00  2.31946123193310E-03
 cg2d: Sum(rhs),rhsMax =  -1.78565331228399E+00  2.37599941736362E-03
 cg2d: Sum(rhs),rhsMax =  -2.62429308577668E+00  2.42805543562276E-03
 cg2d: Sum(rhs),rhsMax =  -3.35748486392339E+00  2.47123045179257E-03
 cg2d: Sum(rhs),rhsMax =  -3.85508917496943E+00  2.50195598470681E-03
 cg2d: Sum(rhs),rhsMax =  -4.03589977828226E+00  2.51830322670009E-03
 cg2d: Sum(rhs),rhsMax =  -3.87512847752391E+00  2.52047519225137E-03
 cg2d: Sum(rhs),rhsMax =  -3.40600368365157E+00  2.51092921904202E-03
 cg2d: Sum(rhs),rhsMax =  -2.61682442839884E+00  2.58874087635653E-03
 cg2d: Sum(rhs),rhsMax =  -1.83238711764959E+00  2.61669730277996E-03
 cg2d: Sum(rhs),rhsMax =  -1.17513337799854E+00  2.56005946523235E-03
 cg2d: Sum(rhs),rhsMax =  -7.11994613410101E-01  2.47855831003922E-03
 cg2d: Sum(rhs),rhsMax =  -5.26422148751674E-01  2.47042092791448E-03
 cg2d: Sum(rhs),rhsMax =  -6.78930212607598E-01  2.49676870585496E-03
 cg2d: Sum(rhs),rhsMax =  -1.12673721894853E+00  2.53652611717447E-03
 cg2d: Sum(rhs),rhsMax =  -1.75981625331549E+00  2.58504764113857E-03
 cg2d: Sum(rhs),rhsMax =  -2.43940635832580E+00  2.63568090516073E-03
 cg2d: Sum(rhs),rhsMax =  -3.03203009543009E+00  2.68092814058162E-03
 cg2d: Sum(rhs),rhsMax =  -3.40991311607641E+00  2.73286304345625E-03
 cg2d: Sum(rhs),rhsMax =  -3.48046022998968E+00  2.80943922820781E-03
 cg2d: Sum(rhs),rhsMax =  -3.32063072845671E+00  2.84054009119665E-03
 cg2d: Sum(rhs),rhsMax =  -2.96079447335704E+00  2.82589058068360E-03
 cg2d: Sum(rhs),rhsMax =  -2.32992810681553E+00  2.92147975487527E-03
 cg2d: Sum(rhs),rhsMax =  -1.72242455772321E+00  2.94384963650574E-03
 cg2d: Sum(rhs),rhsMax =  -1.21221903233581E+00  2.89157780628855E-03
 cg2d: Sum(rhs),rhsMax =  -8.69698390252170E-01  2.78046458225325E-03
 cg2d: Sum(rhs),rhsMax =  -7.64867800567721E-01  2.63730950803473E-03
 cg2d: Sum(rhs),rhsMax =  -9.31747845186113E-01  2.54529703137148E-03
 cg2d: Sum(rhs),rhsMax =  -1.31074338510152E+00  2.59464768358340E-03
 cg2d: Sum(rhs),rhsMax =  -1.82960842893964E+00  2.67470087982856E-03
 cg2d: Sum(rhs),rhsMax =  -2.36415409040485E+00  2.77096212000236E-03
 cg2d: Sum(rhs),rhsMax =  -2.80794779378311E+00  2.86583705908757E-03
 cg2d: Sum(rhs),rhsMax =  -3.09076537893593E+00  2.94225353986644E-03
 cg2d: Sum(rhs),rhsMax =  -3.17911023809708E+00  2.98708406835205E-03
 cg2d: Sum(rhs),rhsMax =  -3.06968980656458E+00  2.99369701681263E-03
 cg2d: Sum(rhs),rhsMax =  -2.74200030495803E+00  3.00868116348623E-03
 cg2d: Sum(rhs),rhsMax =  -2.22987018250491E+00  3.08320496842277E-03
 cg2d: Sum(rhs),rhsMax =  -1.72892384101672E+00  3.09216602931773E-03
 cg2d: Sum(rhs),rhsMax =  -1.30661126044575E+00  3.03707924543630E-03
 cg2d: Sum(rhs),rhsMax =  -1.02724587501794E+00  2.93201255190105E-03
 cg2d: Sum(rhs),rhsMax =  -9.49612081978934E-01  2.80059568959521E-03
 cg2d: Sum(rhs),rhsMax =  -1.10546681602217E+00  2.68802011612798E-03
 cg2d: Sum(rhs),rhsMax =  -1.41911846023480E+00  2.73183503565239E-03
 cg2d: Sum(rhs),rhsMax =  -1.85263652638392E+00  2.80075123699220E-03
 cg2d: Sum(rhs),rhsMax =  -2.30607105761225E+00  2.88121984006299E-03
 cg2d: Sum(rhs),rhsMax =  -2.69038333662141E+00  2.95745898243252E-03
 cg2d: Sum(rhs),rhsMax =  -2.94313285750041E+00  3.01465309264627E-03
 cg2d: Sum(rhs),rhsMax =  -3.03123924656900E+00  3.04190025463877E-03
 cg2d: Sum(rhs),rhsMax =  -2.94785323019253E+00  3.03433139704033E-03
 cg2d: Sum(rhs),rhsMax =  -2.61356655750202E+00  3.10365978166620E-03
 cg2d: Sum(rhs),rhsMax =  -2.18161317786053E+00  3.16115505083457E-03
 cg2d: Sum(rhs),rhsMax =  -1.75526123992633E+00  3.15966313555768E-03
 cg2d: Sum(rhs),rhsMax =  -1.39603743466508E+00  3.10114912317978E-03
 cg2d: Sum(rhs),rhsMax =  -1.16177140017040E+00  2.99876545566420E-03
 cg2d: Sum(rhs),rhsMax =  -1.10293747116529E+00  2.87411083355666E-03
 cg2d: Sum(rhs),rhsMax =  -1.24975134136383E+00  2.75286354580642E-03
 cg2d: Sum(rhs),rhsMax =  -1.53840869775031E+00  2.75098215128100E-03
 cg2d: Sum(rhs),rhsMax =  -1.91301873627574E+00  2.81271667590332E-03
 cg2d: Sum(rhs),rhsMax =  -2.30705942233427E+00  2.88449379602132E-03
 cg2d: Sum(rhs),rhsMax =  -2.64297555457924E+00  2.95188723979102E-03
 cg2d: Sum(rhs),rhsMax =  -2.86495132062547E+00  3.00154117005032E-03
 cg2d: Sum(rhs),rhsMax =  -2.94238811437959E+00  3.02377924560959E-03
 cg2d: Sum(rhs),rhsMax =  -2.84207313730008E+00  3.04217206764811E-03
 cg2d: Sum(rhs),rhsMax =  -2.51902176246666E+00  3.13830805145552E-03
 cg2d: Sum(rhs),rhsMax =  -2.14123730560438E+00  3.18959323730036E-03
 cg2d: Sum(rhs),rhsMax =  -1.76835919231636E+00  3.18714932765218E-03
 cg2d: Sum(rhs),rhsMax =  -1.45590349819952E+00  3.13272229746541E-03
 cg2d: Sum(rhs),rhsMax =  -1.25508070955490E+00  3.03818417916616E-03
 cg2d: Sum(rhs),rhsMax =  -1.20874904039364E+00  2.92305992802600E-03
 cg2d: Sum(rhs),rhsMax =  -1.34034310823724E+00  2.81059307111299E-03
 cg2d: Sum(rhs),rhsMax =  -1.62624332170586E+00  2.74190571076808E-03
(PID.TID 0000.0001) %CHECKPOINT       100 ckptB
 --> objf_test(bi,bj)   =  0.509071982674665E-01
 --> objf_tracer(bi,bj) =  0.000000000000000E+00
 --> objf_atl(bi,bj)    =  0.000000000000000E+00
  local fc =  0.509071982674665E-01
 global fc =  0.509071982674665E-01
(PID.TID 0000.0001)  MDS_READ_FIELD: opening file: xx_depth.0000000000.001.001.data
grad-res -------------------------------
 grad-res     0   12    2    3    1    1    1    1   0.509071982062E-01 0.509071981448E-01 0.509071982675E-01
 grad-res     0   12   12   12   25    1    1    1   -.612913591008E-06 -.613150051565E-06 -.385797541481E-03
(PID.TID 0000.0001)   ADM  precision_derivative_cost =    5.09071982061515E-02
(PID.TID 0000.0001)   ADM  precision_derivative_grad =   -6.12913591008374E-07
 ph-grd  ierr ---------------------------
 ph-grd  ierr =  0, icomp =  12, ichknum =  12
 ph-grd -->hit<--  3 3 1 1
(PID.TID 0000.0001)  MDS_READ_FIELD: opening file: adxx_depth.0000000000.001.001.data
(PID.TID 0000.0001)  MDS_READ_FIELD: opening file: xx_depth.0000000000.001.001.data
(PID.TID 0000.0001)  MDS_READ_FIELD: opening global file: noWalls.bigRidge
(PID.TID 0000.0001) // =======================================================
(PID.TID 0000.0001) // Field Model R_low (ini_masks_etc) at iteration          1
(PID.TID 0000.0001) // CMIN =         -5.000000000000000E+03
(PID.TID 0000.0001) // CMAX =         -2.000000000000000E+03
(PID.TID 0000.0001) // CINT =          1.111111111111111E+02
(PID.TID 0000.0001) // SYMBOLS (CMIN->CMAX): -abcdefghijklmnopqrstuvwxyz+
(PID.TID 0000.0001) //                  0.0: .
(PID.TID 0000.0001) // RANGE I (Lo:Hi:Step):(  -1:   7:   1)
(PID.TID 0000.0001) // RANGE J (Lo:Hi:Step):(   7:  -1:  -1)
(PID.TID 0000.0001) // RANGE K (Lo:Hi:Step):(   1:   1:   1)
(PID.TID 0000.0001) // =======================================================
(PID.TID 0000.0001) K =   1
(PID.TID 0000.0001) //
(PID.TID 0000.0001) // |--J--|101234567
(PID.TID 0000.0001) //      7 ----+----
(PID.TID 0000.0001) //      6 ----+----
(PID.TID 0000.0001) //      5 ----+----
(PID.TID 0000.0001) //      4 ----+----
(PID.TID 0000.0001) //      3 ----+----
(PID.TID 0000.0001) //      2 ----+----
(PID.TID 0000.0001) //      1 ----+----
(PID.TID 0000.0001) //      0 ----+----
(PID.TID 0000.0001) //     -1 ----+----
(PID.TID 0000.0001) // =======================================================
(PID.TID 0000.0001) // END OF FIELD                                          =
(PID.TID 0000.0001) // =======================================================
(PID.TID 0000.0001) 
(PID.TID 0000.0001) // =======================================================
(PID.TID 0000.0001) // Field Model Ro_surf (ini_masks_etc) at iteration          1
(PID.TID 0000.0001) // CMIN =          1.000000000000000E+32
(PID.TID 0000.0001) // CMAX =         -1.000000000000000E+32
(PID.TID 0000.0001) // CINT =          0.000000000000000E+00
(PID.TID 0000.0001) // SYMBOLS (CMIN->CMAX): -abcdefghijklmnopqrstuvwxyz+
(PID.TID 0000.0001) //                  0.0: .
(PID.TID 0000.0001) // RANGE I (Lo:Hi:Step):(  -1:   7:   1)
(PID.TID 0000.0001) // RANGE J (Lo:Hi:Step):(   7:  -1:  -1)
(PID.TID 0000.0001) // RANGE K (Lo:Hi:Step):(   1:   1:   1)
(PID.TID 0000.0001) // =======================================================
(PID.TID 0000.0001) // =======================================================
(PID.TID 0000.0001) // END OF FIELD                                          =
(PID.TID 0000.0001) // =======================================================
(PID.TID 0000.0001) 
(PID.TID 0000.0001) // =======================================================
(PID.TID 0000.0001) // Field hFacC at iteration          1
(PID.TID 0000.0001) // CMIN =          1.000000000000000E+00
(PID.TID 0000.0001) // CMAX =          1.000000000000000E+00
(PID.TID 0000.0001) // CINT =          0.000000000000000E+00
(PID.TID 0000.0001) // SYMBOLS (CMIN->CMAX): -abcdefghijklmnopqrstuvwxyz+
(PID.TID 0000.0001) //                  0.0: .
(PID.TID 0000.0001) // RANGE I (Lo:Hi:Step):(  -1:   7:   1)
(PID.TID 0000.0001) // RANGE J (Lo:Hi:Step):(   7:  -1:  -1)
(PID.TID 0000.0001) // RANGE K (Lo:Hi:Step):(   1:   1:   1)
(PID.TID 0000.0001) // =======================================================
(PID.TID 0000.0001) // =======================================================
(PID.TID 0000.0001) // END OF FIELD                                          =
(PID.TID 0000.0001) // =======================================================
(PID.TID 0000.0001) 
(PID.TID 0000.0001) // =======================================================
(PID.TID 0000.0001) // Field hFacW at iteration          1
(PID.TID 0000.0001) // CMIN =          1.000000000000000E+00
(PID.TID 0000.0001) // CMAX =          1.000000000000000E+00
(PID.TID 0000.0001) // CINT =          0.000000000000000E+00
(PID.TID 0000.0001) // SYMBOLS (CMIN->CMAX): -abcdefghijklmnopqrstuvwxyz+
(PID.TID 0000.0001) //                  0.0: .
(PID.TID 0000.0001) // RANGE I (Lo:Hi:Step):(  -1:   7:   1)
(PID.TID 0000.0001) // RANGE J (Lo:Hi:Step):(   7:  -1:  -1)
(PID.TID 0000.0001) // RANGE K (Lo:Hi:Step):(   1:   1:   1)
(PID.TID 0000.0001) // =======================================================
(PID.TID 0000.0001) // =======================================================
(PID.TID 0000.0001) // END OF FIELD                                          =
(PID.TID 0000.0001) // =======================================================
(PID.TID 0000.0001) 
(PID.TID 0000.0001) // =======================================================
(PID.TID 0000.0001) // Field hFacS at iteration          1
(PID.TID 0000.0001) // CMIN =          1.000000000000000E+00
(PID.TID 0000.0001) // CMAX =          1.000000000000000E+00
(PID.TID 0000.0001) // CINT =          0.000000000000000E+00
(PID.TID 0000.0001) // SYMBOLS (CMIN->CMAX): -abcdefghijklmnopqrstuvwxyz+
(PID.TID 0000.0001) //                  0.0: .
(PID.TID 0000.0001) // RANGE I (Lo:Hi:Step):(  -1:   7:   1)
(PID.TID 0000.0001) // RANGE J (Lo:Hi:Step):(   7:  -1:  -1)
(PID.TID 0000.0001) // RANGE K (Lo:Hi:Step):(   1:   1:   1)
(PID.TID 0000.0001) // =======================================================
(PID.TID 0000.0001) // =======================================================
(PID.TID 0000.0001) // END OF FIELD                                          =
(PID.TID 0000.0001) // =======================================================
(PID.TID 0000.0001) 
(PID.TID 0000.0001) %MON surfExpanfCori_max           =  -1.0735540000000E-04
(PID.TID 0000.0001) %MON surfExpanfCori_min           =  -1.1783060000000E-04
(PID.TID 0000.0001) %MON surfExpanfCori_mean          =  -1.1259300000000E-04
(PID.TID 0000.0001) %MON surfExpanfCori_sd            =   3.7035424771427E-06
(PID.TID 0000.0001) %MON surfExpanfCoriG_max          =  -1.0866480000000E-04
(PID.TID 0000.0001) %MON surfExpanfCoriG_min          =  -1.1914000000000E-04
(PID.TID 0000.0001) %MON surfExpanfCoriG_mean         =  -1.1390240000000E-04
(PID.TID 0000.0001) %MON surfExpanfCoriG_sd           =   3.7035424771427E-06
(PID.TID 0000.0001) %MON surfExpanfCoriCos_max        =   0.0000000000000E+00
(PID.TID 0000.0001) %MON surfExpanfCoriCos_min        =   0.0000000000000E+00
(PID.TID 0000.0001) %MON surfExpanfCoriCos_mean       =   0.0000000000000E+00
(PID.TID 0000.0001) %MON surfExpanfCoriCos_sd         =   0.0000000000000E+00
(PID.TID 0000.0001) INI_CG2D: CG2D normalisation factor =  1.9999999999999996E-04
(PID.TID 0000.0001) 
                     ctrl_depth_ini: ctrl update R_low,
                                     adding the control vector.
(PID.TID 0000.0001)  MDS_READ_FIELD: opening file: xx_depth.0000000000.001.001.data
(PID.TID 0000.0001) // =======================================================
(PID.TID 0000.0001) // Field Model Ro_surf (update_masks_etc) at iteration          1
(PID.TID 0000.0001) // CMIN =          1.000000000000000E+32
(PID.TID 0000.0001) // CMAX =         -1.000000000000000E+32
(PID.TID 0000.0001) // CINT =          0.000000000000000E+00
(PID.TID 0000.0001) // SYMBOLS (CMIN->CMAX): -abcdefghijklmnopqrstuvwxyz+
(PID.TID 0000.0001) //                  0.0: .
(PID.TID 0000.0001) // RANGE I (Lo:Hi:Step):(  -1:   7:   1)
(PID.TID 0000.0001) // RANGE J (Lo:Hi:Step):(   7:  -1:  -1)
(PID.TID 0000.0001) // RANGE K (Lo:Hi:Step):(   1:   1:   1)
(PID.TID 0000.0001) // =======================================================
(PID.TID 0000.0001) // =======================================================
(PID.TID 0000.0001) // END OF FIELD                                          =
(PID.TID 0000.0001) // =======================================================
(PID.TID 0000.0001) 
(PID.TID 0000.0001) // =======================================================
(PID.TID 0000.0001) // Field hFacC at iteration          1
(PID.TID 0000.0001) // CMIN =          1.000000000000000E+00
(PID.TID 0000.0001) // CMAX =          1.000000000000000E+00
(PID.TID 0000.0001) // CINT =          0.000000000000000E+00
(PID.TID 0000.0001) // SYMBOLS (CMIN->CMAX): -abcdefghijklmnopqrstuvwxyz+
(PID.TID 0000.0001) //                  0.0: .
(PID.TID 0000.0001) // RANGE I (Lo:Hi:Step):(  -1:   7:   1)
(PID.TID 0000.0001) // RANGE J (Lo:Hi:Step):(   7:  -1:  -1)
(PID.TID 0000.0001) // RANGE K (Lo:Hi:Step):(   1:   1:   1)
(PID.TID 0000.0001) // =======================================================
(PID.TID 0000.0001) // =======================================================
(PID.TID 0000.0001) // END OF FIELD                                          =
(PID.TID 0000.0001) // =======================================================
(PID.TID 0000.0001) 
(PID.TID 0000.0001) // =======================================================
(PID.TID 0000.0001) // Field hFacW at iteration          1
(PID.TID 0000.0001) // CMIN =          1.000000000000000E+00
(PID.TID 0000.0001) // CMAX =          1.000000000000000E+00
(PID.TID 0000.0001) // CINT =          0.000000000000000E+00
(PID.TID 0000.0001) // SYMBOLS (CMIN->CMAX): -abcdefghijklmnopqrstuvwxyz+
(PID.TID 0000.0001) //                  0.0: .
(PID.TID 0000.0001) // RANGE I (Lo:Hi:Step):(  -1:   7:   1)
(PID.TID 0000.0001) // RANGE J (Lo:Hi:Step):(   7:  -1:  -1)
(PID.TID 0000.0001) // RANGE K (Lo:Hi:Step):(   1:   1:   1)
(PID.TID 0000.0001) // =======================================================
(PID.TID 0000.0001) // =======================================================
(PID.TID 0000.0001) // END OF FIELD                                          =
(PID.TID 0000.0001) // =======================================================
(PID.TID 0000.0001) 
(PID.TID 0000.0001) // =======================================================
(PID.TID 0000.0001) // Field hFacS at iteration          1
(PID.TID 0000.0001) // CMIN =          1.000000000000000E+00
(PID.TID 0000.0001) // CMAX =          1.000000000000000E+00
(PID.TID 0000.0001) // CINT =          0.000000000000000E+00
(PID.TID 0000.0001) // SYMBOLS (CMIN->CMAX): -abcdefghijklmnopqrstuvwxyz+
(PID.TID 0000.0001) //                  0.0: .
(PID.TID 0000.0001) // RANGE I (Lo:Hi:Step):(  -1:   7:   1)
(PID.TID 0000.0001) // RANGE J (Lo:Hi:Step):(   7:  -1:  -1)
(PID.TID 0000.0001) // RANGE K (Lo:Hi:Step):(   1:   1:   1)
(PID.TID 0000.0001) // =======================================================
(PID.TID 0000.0001) // =======================================================
(PID.TID 0000.0001) // END OF FIELD                                          =
(PID.TID 0000.0001) // =======================================================
(PID.TID 0000.0001) 
(PID.TID 0000.0001) // =======================================================
(PID.TID 0000.0001) // Field Initial Temperature at iteration          1
(PID.TID 0000.0001) // CMIN =          4.000000000000000E+00
(PID.TID 0000.0001) // CMAX =          4.000000000000000E+00
(PID.TID 0000.0001) // CINT =          0.000000000000000E+00
(PID.TID 0000.0001) // SYMBOLS (CMIN->CMAX): -abcdefghijklmnopqrstuvwxyz+
(PID.TID 0000.0001) //                  0.0: .
(PID.TID 0000.0001) // RANGE I (Lo:Hi:Step):(   1:   5:   1)
(PID.TID 0000.0001) // RANGE J (Lo:Hi:Step):(   5:   1:  -1)
(PID.TID 0000.0001) // RANGE K (Lo:Hi:Step):(   1:   1:   1)
(PID.TID 0000.0001) // =======================================================
(PID.TID 0000.0001) // =======================================================
(PID.TID 0000.0001) // END OF FIELD                                          =
(PID.TID 0000.0001) // =======================================================
(PID.TID 0000.0001) 
(PID.TID 0000.0001) // =======================================================
(PID.TID 0000.0001) // Field Initial Salinity at iteration          1
(PID.TID 0000.0001) // CMIN =          3.500000000000000E+01
(PID.TID 0000.0001) // CMAX =          3.500000000000000E+01
(PID.TID 0000.0001) // CINT =          0.000000000000000E+00
(PID.TID 0000.0001) // SYMBOLS (CMIN->CMAX): -abcdefghijklmnopqrstuvwxyz+
(PID.TID 0000.0001) //                  0.0: .
(PID.TID 0000.0001) // RANGE I (Lo:Hi:Step):(   1:   5:   1)
(PID.TID 0000.0001) // RANGE J (Lo:Hi:Step):(   5:   1:  -1)
(PID.TID 0000.0001) // RANGE K (Lo:Hi:Step):(   1:   1:   1)
(PID.TID 0000.0001) // =======================================================
(PID.TID 0000.0001) // =======================================================
(PID.TID 0000.0001) // END OF FIELD                                          =
(PID.TID 0000.0001) // =======================================================
(PID.TID 0000.0001) 
(PID.TID 0000.0001) Start initial hydrostatic pressure computation
(PID.TID 0000.0001) Pressure is predetermined for buoyancyRelation OCEANIC
(PID.TID 0000.0001) 
(PID.TID 0000.0001)  MDS_READ_FIELD: opening global file: windx.sin_y
(PID.TID 0000.0001) // =======================================================
(PID.TID 0000.0001) // Model current state
(PID.TID 0000.0001) // =======================================================
(PID.TID 0000.0001) 
 cg2d: Sum(rhs),rhsMax =   0.00000000000000E+00  0.00000000000000E+00
 cg2d: Sum(rhs),rhsMax =  -2.49999999999996E+01  6.03492218443698E-05
 cg2d: Sum(rhs),rhsMax =  -1.81034404639062E+01  2.18766023587219E-04
 cg2d: Sum(rhs),rhsMax =  -1.54955562832148E+01  4.32479836297446E-04
 cg2d: Sum(rhs),rhsMax =  -1.41111452323674E+01  6.49958988350289E-04
 cg2d: Sum(rhs),rhsMax =  -1.31144322329644E+01  8.30737102848089E-04
 cg2d: Sum(rhs),rhsMax =  -1.21209090323043E+01  9.52510661986390E-04
 cg2d: Sum(rhs),rhsMax =  -1.07124742371723E+01  1.02806631164034E-03
 cg2d: Sum(rhs),rhsMax =  -7.41375936671754E+00  1.27086596333817E-03
 cg2d: Sum(rhs),rhsMax =  -4.70217533428716E+00  1.51019014102974E-03
 cg2d: Sum(rhs),rhsMax =  -2.72440685883751E+00  1.65833738334853E-03
 cg2d: Sum(rhs),rhsMax =  -1.27958669001701E+00  1.70565508871970E-03
 cg2d: Sum(rhs),rhsMax =  -3.29564698771701E-01  1.66071960680878E-03
 cg2d: Sum(rhs),rhsMax =   5.21320410749945E-02  1.54812756244969E-03
 cg2d: Sum(rhs),rhsMax =  -2.86625373546713E-01  1.40338816187821E-03
 cg2d: Sum(rhs),rhsMax =  -1.30315843245355E+00  1.44268599734382E-03
 cg2d: Sum(rhs),rhsMax =  -2.68067690187779E+00  1.50836886643476E-03
 cg2d: Sum(rhs),rhsMax =  -4.07407453359596E+00  1.58424366879368E-03
 cg2d: Sum(rhs),rhsMax =  -5.18272348182705E+00  1.66593592779726E-03
 cg2d: Sum(rhs),rhsMax =  -5.80990598739443E+00  1.74846175210631E-03
 cg2d: Sum(rhs),rhsMax =  -5.87740628257841E+00  1.82725970974173E-03
 cg2d: Sum(rhs),rhsMax =  -5.41358312208332E+00  1.89900434392441E-03
 cg2d: Sum(rhs),rhsMax =  -4.53080677635033E+00  1.96213934191473E-03
 cg2d: Sum(rhs),rhsMax =  -3.22587899766317E+00  2.12611202198114E-03
 cg2d: Sum(rhs),rhsMax =  -2.04447212477980E+00  2.24837953314938E-03
 cg2d: Sum(rhs),rhsMax =  -1.10818137679030E+00  2.30404048714674E-03
 cg2d: Sum(rhs),rhsMax =  -4.90484883183790E-01  2.29576531976759E-03
 cg2d: Sum(rhs),rhsMax =  -2.61247066237132E-01  2.23814841761679E-03
 cg2d: Sum(rhs),rhsMax =  -4.50921971390323E-01  2.26266906447141E-03
 cg2d: Sum(rhs),rhsMax =  -1.00469611008362E+00  2.31946122510163E-03
 cg2d: Sum(rhs),rhsMax =  -1.78565331966005E+00  2.37599941013657E-03
 cg2d: Sum(rhs),rhsMax =  -2.62429309599961E+00  2.42805542789229E-03
 cg2d: Sum(rhs),rhsMax =  -3.35748487714848E+00  2.47123044345409E-03
 cg2d: Sum(rhs),rhsMax =  -3.85508919094128E+00  2.50195597567804E-03
 cg2d: Sum(rhs),rhsMax =  -4.03589979630157E+00  2.51830321693474E-03
 cg2d: Sum(rhs),rhsMax =  -3.87512849648937E+00  2.52047518174489E-03
 cg2d: Sum(rhs),rhsMax =  -3.40600370221842E+00  2.51092920782905E-03
 cg2d: Sum(rhs),rhsMax =  -2.61682443347612E+00  2.58874087509945E-03
 cg2d: Sum(rhs),rhsMax =  -1.83238712282510E+00  2.61669730150720E-03
 cg2d: Sum(rhs),rhsMax =  -1.17513338336685E+00  2.56005946404670E-03
 cg2d: Sum(rhs),rhsMax =  -7.11994623662327E-01  2.47855829282875E-03
 cg2d: Sum(rhs),rhsMax =  -5.26422157167226E-01  2.47042091419848E-03
 cg2d: Sum(rhs),rhsMax =  -6.78930221881476E-01  2.49676869176640E-03
 cg2d: Sum(rhs),rhsMax =  -1.12673723061252E+00  2.53652610270499E-03
 cg2d: Sum(rhs),rhsMax =  -1.75981626837730E+00  2.58504762626807E-03
 cg2d: Sum(rhs),rhsMax =  -2.43940637710227E+00  2.63568088986933E-03
 cg2d: Sum(rhs),rhsMax =  -3.03203011757177E+00  2.68092812486081E-03
 cg2d: Sum(rhs),rhsMax =  -3.40991311971004E+00  2.73286304389087E-03
 cg2d: Sum(rhs),rhsMax =  -3.48046023336423E+00  2.80943922876382E-03
 cg2d: Sum(rhs),rhsMax =  -3.32063073180939E+00  2.84054009185719E-03
 cg2d: Sum(rhs),rhsMax =  -2.96079447690993E+00  2.82589058143405E-03
 cg2d: Sum(rhs),rhsMax =  -2.32992811038494E+00  2.92147975595443E-03
 cg2d: Sum(rhs),rhsMax =  -1.72242456161926E+00  2.94384963775060E-03
 cg2d: Sum(rhs),rhsMax =  -1.21221903660092E+00  2.89157780776526E-03
 cg2d: Sum(rhs),rhsMax =  -8.69698394854422E-01  2.78046458402556E-03
 cg2d: Sum(rhs),rhsMax =  -7.64867805326092E-01  2.63730951015266E-03
 cg2d: Sum(rhs),rhsMax =  -9.31747849962443E-01  2.54529703290781E-03
 cg2d: Sum(rhs),rhsMax =  -1.31074338907260E+00  2.59464768535948E-03
 cg2d: Sum(rhs),rhsMax =  -1.82960843180309E+00  2.67470088186771E-03
 cg2d: Sum(rhs),rhsMax =  -2.36415409203784E+00  2.77096212231505E-03
 cg2d: Sum(rhs),rhsMax =  -2.80794779424625E+00  2.86583706167087E-03
 cg2d: Sum(rhs),rhsMax =  -3.09076537842732E+00  2.94225354270621E-03
 cg2d: Sum(rhs),rhsMax =  -3.17911023689151E+00  2.98708407142751E-03
 cg2d: Sum(rhs),rhsMax =  -3.06968980496046E+00  2.99369702010228E-03
 cg2d: Sum(rhs),rhsMax =  -2.74200030226043E+00  3.00868116812639E-03
 cg2d: Sum(rhs),rhsMax =  -2.22987018027967E+00  3.08320497330325E-03
 cg2d: Sum(rhs),rhsMax =  -1.72892383923217E+00  3.09216603448538E-03
 cg2d: Sum(rhs),rhsMax =  -1.30661125895148E+00  3.03707925094112E-03
 cg2d: Sum(rhs),rhsMax =  -1.02724587350727E+00  2.93201255778570E-03
 cg2d: Sum(rhs),rhsMax =  -9.49612079923982E-01  2.80059569588589E-03
 cg2d: Sum(rhs),rhsMax =  -1.10546681339434E+00  2.68802012110386E-03
 cg2d: Sum(rhs),rhsMax =  -1.41911845611195E+00  2.73183504098490E-03
 cg2d: Sum(rhs),rhsMax =  -1.85263652043493E+00  2.80075124269736E-03
 cg2d: Sum(rhs),rhsMax =  -2.30607104975187E+00  2.88121984614109E-03
 cg2d: Sum(rhs),rhsMax =  -2.69038332698669E+00  2.95745898886825E-03
 cg2d: Sum(rhs),rhsMax =  -2.94313284637658E+00  3.01465309941194E-03
 cg2d: Sum(rhs),rhsMax =  -3.03123923431150E+00  3.04190026169990E-03
 cg2d: Sum(rhs),rhsMax =  -2.94785321716711E+00  3.03433140436261E-03
 cg2d: Sum(rhs),rhsMax =  -2.61356654373005E+00  3.10365979043330E-03
 cg2d: Sum(rhs),rhsMax =  -2.18161316478987E+00  3.16115505985101E-03
 cg2d: Sum(rhs),rhsMax =  -1.75526122730478E+00  3.15966314487979E-03
 cg2d: Sum(rhs),rhsMax =  -1.39603742205937E+00  3.10114913286508E-03
 cg2d: Sum(rhs),rhsMax =  -1.16177138694678E+00  2.99876546576002E-03
 cg2d: Sum(rhs),rhsMax =  -1.10293745645744E+00  2.87411084409084E-03
 cg2d: Sum(rhs),rhsMax =  -1.24975132411379E+00  2.75286355678152E-03
 cg2d: Sum(rhs),rhsMax =  -1.53840867887637E+00  2.75098216082983E-03
 cg2d: Sum(rhs),rhsMax =  -1.91301871495573E+00  2.81271668585097E-03
 cg2d: Sum(rhs),rhsMax =  -2.30705939854251E+00  2.88449380636977E-03
 cg2d: Sum(rhs),rhsMax =  -2.64297552852575E+00  2.95188725052546E-03
 cg2d: Sum(rhs),rhsMax =  -2.86495129265936E+00  3.00154118114198E-03
 cg2d: Sum(rhs),rhsMax =  -2.94238808490122E+00  3.02377925702135E-03
 cg2d: Sum(rhs),rhsMax =  -2.84207310597602E+00  3.04217208052421E-03
 cg2d: Sum(rhs),rhsMax =  -2.51902173234288E+00  3.13830806451936E-03
 cg2d: Sum(rhs),rhsMax =  -2.14123727647190E+00  3.18959325059559E-03
 cg2d: Sum(rhs),rhsMax =  -1.76835916366172E+00  3.18714934123682E-03
 cg2d: Sum(rhs),rhsMax =  -1.45590346927275E+00  3.13272231140075E-03
 cg2d: Sum(rhs),rhsMax =  -1.25508067938653E+00  3.03818419350520E-03
 cg2d: Sum(rhs),rhsMax =  -1.20874900781234E+00  2.92305994280350E-03
 cg2d: Sum(rhs),rhsMax =  -1.34034307198041E+00  2.81059308633912E-03
 cg2d: Sum(rhs),rhsMax =  -1.62624328212212E+00  2.74190572464044E-03
(PID.TID 0000.0001) %CHECKPOINT       100 ckptA
 --> objf_test(bi,bj)   =  0.509071985072854E-01
 --> objf_tracer(bi,bj) =  0.000000000000000E+00
 --> objf_atl(bi,bj)    =  0.000000000000000E+00
  local fc =  0.509071985072854E-01
 global fc =  0.509071985072854E-01
 ph-check fcpertplus =   0.0509071985
(PID.TID 0000.0001)  MDS_READ_FIELD: opening file: xx_depth.0000000000.001.001.data
 ph-check fcpertminus =   0.0509071982
(PID.TID 0000.0001)  MDS_READ_FIELD: opening file: xx_depth.0000000000.001.001.data
(PID.TID 0000.0001)  MDS_READ_FIELD: opening global file: noWalls.bigRidge
(PID.TID 0000.0001) // =======================================================
(PID.TID 0000.0001) // Field Model R_low (ini_masks_etc) at iteration          1
(PID.TID 0000.0001) // CMIN =         -5.000000000000000E+03
(PID.TID 0000.0001) // CMAX =         -2.000000000000000E+03
(PID.TID 0000.0001) // CINT =          1.111111111111111E+02
(PID.TID 0000.0001) // SYMBOLS (CMIN->CMAX): -abcdefghijklmnopqrstuvwxyz+
(PID.TID 0000.0001) //                  0.0: .
(PID.TID 0000.0001) // RANGE I (Lo:Hi:Step):(  -1:   7:   1)
(PID.TID 0000.0001) // RANGE J (Lo:Hi:Step):(   7:  -1:  -1)
(PID.TID 0000.0001) // RANGE K (Lo:Hi:Step):(   1:   1:   1)
(PID.TID 0000.0001) // =======================================================
(PID.TID 0000.0001) K =   1
(PID.TID 0000.0001) //
(PID.TID 0000.0001) // |--J--|101234567
(PID.TID 0000.0001) //      7 ----+----
(PID.TID 0000.0001) //      6 ----+----
(PID.TID 0000.0001) //      5 ----+----
(PID.TID 0000.0001) //      4 ----+----
(PID.TID 0000.0001) //      3 ----+----
(PID.TID 0000.0001) //      2 ----+----
(PID.TID 0000.0001) //      1 ----+----
(PID.TID 0000.0001) //      0 ----+----
(PID.TID 0000.0001) //     -1 ----+----
(PID.TID 0000.0001) // =======================================================
(PID.TID 0000.0001) // END OF FIELD                                          =
(PID.TID 0000.0001) // =======================================================
(PID.TID 0000.0001) 
(PID.TID 0000.0001) // =======================================================
(PID.TID 0000.0001) // Field Model Ro_surf (ini_masks_etc) at iteration          1
(PID.TID 0000.0001) // CMIN =          1.000000000000000E+32
(PID.TID 0000.0001) // CMAX =         -1.000000000000000E+32
(PID.TID 0000.0001) // CINT =          0.000000000000000E+00
(PID.TID 0000.0001) // SYMBOLS (CMIN->CMAX): -abcdefghijklmnopqrstuvwxyz+
(PID.TID 0000.0001) //                  0.0: .
(PID.TID 0000.0001) // RANGE I (Lo:Hi:Step):(  -1:   7:   1)
(PID.TID 0000.0001) // RANGE J (Lo:Hi:Step):(   7:  -1:  -1)
(PID.TID 0000.0001) // RANGE K (Lo:Hi:Step):(   1:   1:   1)
(PID.TID 0000.0001) // =======================================================
(PID.TID 0000.0001) // =======================================================
(PID.TID 0000.0001) // END OF FIELD                                          =
(PID.TID 0000.0001) // =======================================================
(PID.TID 0000.0001) 
(PID.TID 0000.0001) // =======================================================
(PID.TID 0000.0001) // Field hFacC at iteration          1
(PID.TID 0000.0001) // CMIN =          1.000000000000000E+00
(PID.TID 0000.0001) // CMAX =          1.000000000000000E+00
(PID.TID 0000.0001) // CINT =          0.000000000000000E+00
(PID.TID 0000.0001) // SYMBOLS (CMIN->CMAX): -abcdefghijklmnopqrstuvwxyz+
(PID.TID 0000.0001) //                  0.0: .
(PID.TID 0000.0001) // RANGE I (Lo:Hi:Step):(  -1:   7:   1)
(PID.TID 0000.0001) // RANGE J (Lo:Hi:Step):(   7:  -1:  -1)
(PID.TID 0000.0001) // RANGE K (Lo:Hi:Step):(   1:   1:   1)
(PID.TID 0000.0001) // =======================================================
(PID.TID 0000.0001) // =======================================================
(PID.TID 0000.0001) // END OF FIELD                                          =
(PID.TID 0000.0001) // =======================================================
(PID.TID 0000.0001) 
(PID.TID 0000.0001) // =======================================================
(PID.TID 0000.0001) // Field hFacW at iteration          1
(PID.TID 0000.0001) // CMIN =          1.000000000000000E+00
(PID.TID 0000.0001) // CMAX =          1.000000000000000E+00
(PID.TID 0000.0001) // CINT =          0.000000000000000E+00
(PID.TID 0000.0001) // SYMBOLS (CMIN->CMAX): -abcdefghijklmnopqrstuvwxyz+
(PID.TID 0000.0001) //                  0.0: .
(PID.TID 0000.0001) // RANGE I (Lo:Hi:Step):(  -1:   7:   1)
(PID.TID 0000.0001) // RANGE J (Lo:Hi:Step):(   7:  -1:  -1)
(PID.TID 0000.0001) // RANGE K (Lo:Hi:Step):(   1:   1:   1)
(PID.TID 0000.0001) // =======================================================
(PID.TID 0000.0001) // =======================================================
(PID.TID 0000.0001) // END OF FIELD                                          =
(PID.TID 0000.0001) // =======================================================
(PID.TID 0000.0001) 
(PID.TID 0000.0001) // =======================================================
(PID.TID 0000.0001) // Field hFacS at iteration          1
(PID.TID 0000.0001) // CMIN =          1.000000000000000E+00
(PID.TID 0000.0001) // CMAX =          1.000000000000000E+00
(PID.TID 0000.0001) // CINT =          0.000000000000000E+00
(PID.TID 0000.0001) // SYMBOLS (CMIN->CMAX): -abcdefghijklmnopqrstuvwxyz+
(PID.TID 0000.0001) //                  0.0: .
(PID.TID 0000.0001) // RANGE I (Lo:Hi:Step):(  -1:   7:   1)
(PID.TID 0000.0001) // RANGE J (Lo:Hi:Step):(   7:  -1:  -1)
(PID.TID 0000.0001) // RANGE K (Lo:Hi:Step):(   1:   1:   1)
(PID.TID 0000.0001) // =======================================================
(PID.TID 0000.0001) // =======================================================
(PID.TID 0000.0001) // END OF FIELD                                          =
(PID.TID 0000.0001) // =======================================================
(PID.TID 0000.0001) 
(PID.TID 0000.0001) %MON surfExpanfCori_max           =  -1.0735540000000E-04
(PID.TID 0000.0001) %MON surfExpanfCori_min           =  -1.1783060000000E-04
(PID.TID 0000.0001) %MON surfExpanfCori_mean          =  -1.1259300000000E-04
(PID.TID 0000.0001) %MON surfExpanfCori_sd            =   3.7035424771427E-06
(PID.TID 0000.0001) %MON surfExpanfCoriG_max          =  -1.0866480000000E-04
(PID.TID 0000.0001) %MON surfExpanfCoriG_min          =  -1.1914000000000E-04
(PID.TID 0000.0001) %MON surfExpanfCoriG_mean         =  -1.1390240000000E-04
(PID.TID 0000.0001) %MON surfExpanfCoriG_sd           =   3.7035424771427E-06
(PID.TID 0000.0001) %MON surfExpanfCoriCos_max        =   0.0000000000000E+00
(PID.TID 0000.0001) %MON surfExpanfCoriCos_min        =   0.0000000000000E+00
(PID.TID 0000.0001) %MON surfExpanfCoriCos_mean       =   0.0000000000000E+00
(PID.TID 0000.0001) %MON surfExpanfCoriCos_sd         =   0.0000000000000E+00
(PID.TID 0000.0001) INI_CG2D: CG2D normalisation factor =  1.9999999999999996E-04
(PID.TID 0000.0001) 
                     ctrl_depth_ini: ctrl update R_low,
                                     adding the control vector.
(PID.TID 0000.0001)  MDS_READ_FIELD: opening file: xx_depth.0000000000.001.001.data
(PID.TID 0000.0001) // =======================================================
(PID.TID 0000.0001) // Field Model Ro_surf (update_masks_etc) at iteration          1
(PID.TID 0000.0001) // CMIN =          1.000000000000000E+32
(PID.TID 0000.0001) // CMAX =         -1.000000000000000E+32
(PID.TID 0000.0001) // CINT =          0.000000000000000E+00
(PID.TID 0000.0001) // SYMBOLS (CMIN->CMAX): -abcdefghijklmnopqrstuvwxyz+
(PID.TID 0000.0001) //                  0.0: .
(PID.TID 0000.0001) // RANGE I (Lo:Hi:Step):(  -1:   7:   1)
(PID.TID 0000.0001) // RANGE J (Lo:Hi:Step):(   7:  -1:  -1)
(PID.TID 0000.0001) // RANGE K (Lo:Hi:Step):(   1:   1:   1)
(PID.TID 0000.0001) // =======================================================
(PID.TID 0000.0001) // =======================================================
(PID.TID 0000.0001) // END OF FIELD                                          =
(PID.TID 0000.0001) // =======================================================
(PID.TID 0000.0001) 
(PID.TID 0000.0001) // =======================================================
(PID.TID 0000.0001) // Field hFacC at iteration          1
(PID.TID 0000.0001) // CMIN =          1.000000000000000E+00
(PID.TID 0000.0001) // CMAX =          1.000000000000000E+00
(PID.TID 0000.0001) // CINT =          0.000000000000000E+00
(PID.TID 0000.0001) // SYMBOLS (CMIN->CMAX): -abcdefghijklmnopqrstuvwxyz+
(PID.TID 0000.0001) //                  0.0: .
(PID.TID 0000.0001) // RANGE I (Lo:Hi:Step):(  -1:   7:   1)
(PID.TID 0000.0001) // RANGE J (Lo:Hi:Step):(   7:  -1:  -1)
(PID.TID 0000.0001) // RANGE K (Lo:Hi:Step):(   1:   1:   1)
(PID.TID 0000.0001) // =======================================================
(PID.TID 0000.0001) // =======================================================
(PID.TID 0000.0001) // END OF FIELD                                          =
(PID.TID 0000.0001) // =======================================================
(PID.TID 0000.0001) 
(PID.TID 0000.0001) // =======================================================
(PID.TID 0000.0001) // Field hFacW at iteration          1
(PID.TID 0000.0001) // CMIN =          1.000000000000000E+00
(PID.TID 0000.0001) // CMAX =          1.000000000000000E+00
(PID.TID 0000.0001) // CINT =          0.000000000000000E+00
(PID.TID 0000.0001) // SYMBOLS (CMIN->CMAX): -abcdefghijklmnopqrstuvwxyz+
(PID.TID 0000.0001) //                  0.0: .
(PID.TID 0000.0001) // RANGE I (Lo:Hi:Step):(  -1:   7:   1)
(PID.TID 0000.0001) // RANGE J (Lo:Hi:Step):(   7:  -1:  -1)
(PID.TID 0000.0001) // RANGE K (Lo:Hi:Step):(   1:   1:   1)
(PID.TID 0000.0001) // =======================================================
(PID.TID 0000.0001) // =======================================================
(PID.TID 0000.0001) // END OF FIELD                                          =
(PID.TID 0000.0001) // =======================================================
(PID.TID 0000.0001) 
(PID.TID 0000.0001) // =======================================================
(PID.TID 0000.0001) // Field hFacS at iteration          1
(PID.TID 0000.0001) // CMIN =          1.000000000000000E+00
(PID.TID 0000.0001) // CMAX =          1.000000000000000E+00
(PID.TID 0000.0001) // CINT =          0.000000000000000E+00
(PID.TID 0000.0001) // SYMBOLS (CMIN->CMAX): -abcdefghijklmnopqrstuvwxyz+
(PID.TID 0000.0001) //                  0.0: .
(PID.TID 0000.0001) // RANGE I (Lo:Hi:Step):(  -1:   7:   1)
(PID.TID 0000.0001) // RANGE J (Lo:Hi:Step):(   7:  -1:  -1)
(PID.TID 0000.0001) // RANGE K (Lo:Hi:Step):(   1:   1:   1)
(PID.TID 0000.0001) // =======================================================
(PID.TID 0000.0001) // =======================================================
(PID.TID 0000.0001) // END OF FIELD                                          =
(PID.TID 0000.0001) // =======================================================
(PID.TID 0000.0001) 
(PID.TID 0000.0001) // =======================================================
(PID.TID 0000.0001) // Field Initial Temperature at iteration          1
(PID.TID 0000.0001) // CMIN =          4.000000000000000E+00
(PID.TID 0000.0001) // CMAX =          4.000000000000000E+00
(PID.TID 0000.0001) // CINT =          0.000000000000000E+00
(PID.TID 0000.0001) // SYMBOLS (CMIN->CMAX): -abcdefghijklmnopqrstuvwxyz+
(PID.TID 0000.0001) //                  0.0: .
(PID.TID 0000.0001) // RANGE I (Lo:Hi:Step):(   1:   5:   1)
(PID.TID 0000.0001) // RANGE J (Lo:Hi:Step):(   5:   1:  -1)
(PID.TID 0000.0001) // RANGE K (Lo:Hi:Step):(   1:   1:   1)
(PID.TID 0000.0001) // =======================================================
(PID.TID 0000.0001) // =======================================================
(PID.TID 0000.0001) // END OF FIELD                                          =
(PID.TID 0000.0001) // =======================================================
(PID.TID 0000.0001) 
(PID.TID 0000.0001) // =======================================================
(PID.TID 0000.0001) // Field Initial Salinity at iteration          1
(PID.TID 0000.0001) // CMIN =          3.500000000000000E+01
(PID.TID 0000.0001) // CMAX =          3.500000000000000E+01
(PID.TID 0000.0001) // CINT =          0.000000000000000E+00
(PID.TID 0000.0001) // SYMBOLS (CMIN->CMAX): -abcdefghijklmnopqrstuvwxyz+
(PID.TID 0000.0001) //                  0.0: .
(PID.TID 0000.0001) // RANGE I (Lo:Hi:Step):(   1:   5:   1)
(PID.TID 0000.0001) // RANGE J (Lo:Hi:Step):(   5:   1:  -1)
(PID.TID 0000.0001) // RANGE K (Lo:Hi:Step):(   1:   1:   1)
(PID.TID 0000.0001) // =======================================================
(PID.TID 0000.0001) // =======================================================
(PID.TID 0000.0001) // END OF FIELD                                          =
(PID.TID 0000.0001) // =======================================================
(PID.TID 0000.0001) 
(PID.TID 0000.0001) Start initial hydrostatic pressure computation
(PID.TID 0000.0001) Pressure is predetermined for buoyancyRelation OCEANIC
(PID.TID 0000.0001) 
(PID.TID 0000.0001)  MDS_READ_FIELD: opening global file: windx.sin_y
(PID.TID 0000.0001) // =======================================================
(PID.TID 0000.0001) // Model current state
(PID.TID 0000.0001) // =======================================================
(PID.TID 0000.0001) 
 cg2d: Sum(rhs),rhsMax =   0.00000000000000E+00  0.00000000000000E+00
 cg2d: Sum(rhs),rhsMax =  -2.49999999999996E+01  6.03492218443698E-05
 cg2d: Sum(rhs),rhsMax =  -1.81034404639062E+01  2.18766023587219E-04
 cg2d: Sum(rhs),rhsMax =  -1.54955562832148E+01  4.32479836297446E-04
 cg2d: Sum(rhs),rhsMax =  -1.41111452335319E+01  6.49958988296537E-04
 cg2d: Sum(rhs),rhsMax =  -1.31144322335582E+01  8.30737102808675E-04
 cg2d: Sum(rhs),rhsMax =  -1.21209090327733E+01  9.52510661944192E-04
 cg2d: Sum(rhs),rhsMax =  -1.07124742372415E+01  1.02806631162380E-03
 cg2d: Sum(rhs),rhsMax =  -7.41375936659658E+00  1.27086596334326E-03
 cg2d: Sum(rhs),rhsMax =  -4.70217533482091E+00  1.51019014084643E-03
 cg2d: Sum(rhs),rhsMax =  -2.72440685972085E+00  1.65833738285167E-03
 cg2d: Sum(rhs),rhsMax =  -1.27958669092903E+00  1.70565508782298E-03
 cg2d: Sum(rhs),rhsMax =  -3.29564699533282E-01  1.66071960549901E-03
 cg2d: Sum(rhs),rhsMax =   5.21320402559520E-02  1.54812756082294E-03
 cg2d: Sum(rhs),rhsMax =  -2.86625375254238E-01  1.40338816015289E-03
 cg2d: Sum(rhs),rhsMax =  -1.30315843495003E+00  1.44268599641354E-03
 cg2d: Sum(rhs),rhsMax =  -2.68067690411061E+00  1.50836886619033E-03
 cg2d: Sum(rhs),rhsMax =  -4.07407453343481E+00  1.58424366953768E-03
 cg2d: Sum(rhs),rhsMax =  -5.18272347715148E+00  1.66593592978437E-03
 cg2d: Sum(rhs),rhsMax =  -5.80990597716696E+00  1.74846175550924E-03
 cg2d: Sum(rhs),rhsMax =  -5.87740626737273E+00  1.82725971462942E-03
 cg2d: Sum(rhs),rhsMax =  -5.41358310390228E+00  1.89900435025715E-03
 cg2d: Sum(rhs),rhsMax =  -4.53080675792063E+00  1.96213934955709E-03
 cg2d: Sum(rhs),rhsMax =  -3.22587898050648E+00  2.12611203242803E-03
 cg2d: Sum(rhs),rhsMax =  -2.04447211288486E+00  2.24837954436835E-03
 cg2d: Sum(rhs),rhsMax =  -1.10818136932812E+00  2.30404049860283E-03
 cg2d: Sum(rhs),rhsMax =  -4.90484878708796E-01  2.29576533098634E-03
 cg2d: Sum(rhs),rhsMax =  -2.61247062929738E-01  2.23814842826238E-03
 cg2d: Sum(rhs),rhsMax =  -4.50921967252727E-01  2.26266907609880E-03
 cg2d: Sum(rhs),rhsMax =  -1.00469610335701E+00  2.31946123724609E-03
 cg2d: Sum(rhs),rhsMax =  -1.78565330891500E+00  2.37599942295116E-03
 cg2d: Sum(rhs),rhsMax =  -2.62429308038348E+00  2.42805544155753E-03
 cg2d: Sum(rhs),rhsMax =  -3.35748485646822E+00  2.47123045814083E-03
 cg2d: Sum(rhs),rhsMax =  -3.85508916574722E+00  2.50195599151428E-03
 cg2d: Sum(rhs),rhsMax =  -4.03589976792431E+00  2.51830323398260E-03
 cg2d: Sum(rhs),rhsMax =  -3.87512846694150E+00  2.52047519999171E-03
 cg2d: Sum(rhs),rhsMax =  -3.40600367389352E+00  2.51092922719342E-03
 cg2d: Sum(rhs),rhsMax =  -2.61682443279365E+00  2.58874087322909E-03
 cg2d: Sum(rhs),rhsMax =  -1.83238712118619E+00  2.61669729947035E-03
 cg2d: Sum(rhs),rhsMax =  -1.17513338083116E+00  2.56005946188702E-03
 cg2d: Sum(rhs),rhsMax =  -7.11994614328362E-01  2.47855831194784E-03
 cg2d: Sum(rhs),rhsMax =  -5.26422148471554E-01  2.47042093711934E-03
 cg2d: Sum(rhs),rhsMax =  -6.78930212027332E-01  2.49676871515238E-03
 cg2d: Sum(rhs),rhsMax =  -1.12673721703007E+00  2.53652612656876E-03
 cg2d: Sum(rhs),rhsMax =  -1.75981624941750E+00  2.58504765064209E-03
 cg2d: Sum(rhs),rhsMax =  -2.43940635229099E+00  2.63568091478309E-03
 cg2d: Sum(rhs),rhsMax =  -3.03203008754747E+00  2.68092815031972E-03
 cg2d: Sum(rhs),rhsMax =  -3.40991311736782E+00  2.73286304507871E-03
 cg2d: Sum(rhs),rhsMax =  -3.48046023135199E+00  2.80943922984762E-03
 cg2d: Sum(rhs),rhsMax =  -3.32063072994993E+00  2.84054009287386E-03
 cg2d: Sum(rhs),rhsMax =  -2.96079447505711E+00  2.82589058241310E-03
 cg2d: Sum(rhs),rhsMax =  -2.32992811171794E+00  2.92147975299437E-03
 cg2d: Sum(rhs),rhsMax =  -1.72242456229802E+00  2.94384963445564E-03
 cg2d: Sum(rhs),rhsMax =  -1.21221903669400E+00  2.89157780413895E-03
 cg2d: Sum(rhs),rhsMax =  -8.69698394590444E-01  2.78046458009694E-03
 cg2d: Sum(rhs),rhsMax =  -7.64867805166247E-01  2.63730950597021E-03
 cg2d: Sum(rhs),rhsMax =  -9.31747848877664E-01  2.54529703318402E-03
 cg2d: Sum(rhs),rhsMax =  -1.31074338875860E+00  2.59464768531809E-03
 cg2d: Sum(rhs),rhsMax =  -1.82960843249762E+00  2.67470088146842E-03
 cg2d: Sum(rhs),rhsMax =  -2.36415409387815E+00  2.77096212154154E-03
 cg2d: Sum(rhs),rhsMax =  -2.80794779722331E+00  2.86583706053136E-03
 cg2d: Sum(rhs),rhsMax =  -3.09076538239548E+00  2.94225354122905E-03
 cg2d: Sum(rhs),rhsMax =  -3.17911024161572E+00  2.98708406965263E-03
 cg2d: Sum(rhs),rhsMax =  -3.06968981017307E+00  2.99369701807029E-03
 cg2d: Sum(rhs),rhsMax =  -2.74200031050719E+00  3.00868116267411E-03
 cg2d: Sum(rhs),rhsMax =  -2.22987018773983E+00  3.08320496751588E-03
 cg2d: Sum(rhs),rhsMax =  -1.72892384600272E+00  3.09216602831807E-03
 cg2d: Sum(rhs),rhsMax =  -1.30661126527166E+00  3.03707924437206E-03
 cg2d: Sum(rhs),rhsMax =  -1.02724587980450E+00  2.93201255081842E-03
 cg2d: Sum(rhs),rhsMax =  -9.49612086870940E-01  2.80059568854696E-03
 cg2d: Sum(rhs),rhsMax =  -1.10546682037993E+00  2.68802011695505E-03
 cg2d: Sum(rhs),rhsMax =  -1.41911846452213E+00  2.73183503632456E-03
 cg2d: Sum(rhs),rhsMax =  -1.85263653060799E+00  2.80075123749479E-03
 cg2d: Sum(rhs),rhsMax =  -2.30607106180283E+00  2.88121984039278E-03
 cg2d: Sum(rhs),rhsMax =  -2.69038334079860E+00  2.95745898259767E-03
 cg2d: Sum(rhs),rhsMax =  -2.94313286165495E+00  3.01465309266391E-03
 cg2d: Sum(rhs),rhsMax =  -3.03123925066035E+00  3.04190025453076E-03
 cg2d: Sum(rhs),rhsMax =  -2.94785323415796E+00  3.03433139682814E-03
 cg2d: Sum(rhs),rhsMax =  -2.61356656153156E+00  3.10365978088508E-03
 cg2d: Sum(rhs),rhsMax =  -2.18161318143635E+00  3.16115504993780E-03
 cg2d: Sum(rhs),rhsMax =  -1.75526124305171E+00  3.15966313456494E-03
 cg2d: Sum(rhs),rhsMax =  -1.39603743736443E+00  3.10114912213030E-03
 cg2d: Sum(rhs),rhsMax =  -1.16177140249455E+00  2.99876545460816E-03
 cg2d: Sum(rhs),rhsMax =  -1.10293747318675E+00  2.87411083254418E-03
 cg2d: Sum(rhs),rhsMax =  -1.24975134315658E+00  2.75286354487612E-03
 cg2d: Sum(rhs),rhsMax =  -1.53840869953518E+00  2.75098215001168E-03
 cg2d: Sum(rhs),rhsMax =  -1.91301873807400E+00  2.81271667440430E-03
 cg2d: Sum(rhs),rhsMax =  -2.30705942420094E+00  2.88449379429028E-03
 cg2d: Sum(rhs),rhsMax =  -2.64297555648757E+00  2.95188723783781E-03
 cg2d: Sum(rhs),rhsMax =  -2.86495132246753E+00  3.00154116789452E-03
 cg2d: Sum(rhs),rhsMax =  -2.94238811598336E+00  3.02377924327627E-03
 cg2d: Sum(rhs),rhsMax =  -2.84207313709400E+00  3.04217206658373E-03
 cg2d: Sum(rhs),rhsMax =  -2.51902176173457E+00  3.13830805017149E-03
 cg2d: Sum(rhs),rhsMax =  -2.14123730423401E+00  3.18959323579331E-03
 cg2d: Sum(rhs),rhsMax =  -1.76835919019725E+00  3.18714932594816E-03
 cg2d: Sum(rhs),rhsMax =  -1.45590349524495E+00  3.13272229561500E-03
 cg2d: Sum(rhs),rhsMax =  -1.25508070572333E+00  3.03818417723488E-03
 cg2d: Sum(rhs),rhsMax =  -1.20874903570431E+00  2.92305992608174E-03
 cg2d: Sum(rhs),rhsMax =  -1.34034310277176E+00  2.81059306921272E-03
 cg2d: Sum(rhs),rhsMax =  -1.62624331679311E+00  2.74190570697463E-03
(PID.TID 0000.0001) %CHECKPOINT       100 ckptB
 --> objf_test(bi,bj)   =  0.509071979050175E-01
 --> objf_tracer(bi,bj) =  0.000000000000000E+00
 --> objf_atl(bi,bj)    =  0.000000000000000E+00
  local fc =  0.509071979050175E-01
 global fc =  0.509071979050175E-01
(PID.TID 0000.0001)  MDS_READ_FIELD: opening file: xx_depth.0000000000.001.001.data
grad-res -------------------------------
 grad-res     0   13    3    3    1    1    1    1   0.509071982062E-01 0.509071985073E-01 0.509071979050E-01
 grad-res     0   13   13   13   25    1    1    1   0.301354900258E-05 0.301133947639E-05 0.733197367769E-03
(PID.TID 0000.0001)   ADM  precision_derivative_cost =    5.09071982061515E-02
(PID.TID 0000.0001)   ADM  precision_derivative_grad =    3.01354900258499E-06
 ph-grd  ierr ---------------------------
 ph-grd  ierr =  0, icomp =  13, ichknum =  13
 ph-grd -->hit<--  4 3 1 1
(PID.TID 0000.0001)  MDS_READ_FIELD: opening file: adxx_depth.0000000000.001.001.data
(PID.TID 0000.0001)  MDS_READ_FIELD: opening file: xx_depth.0000000000.001.001.data
(PID.TID 0000.0001)  MDS_READ_FIELD: opening global file: noWalls.bigRidge
(PID.TID 0000.0001) // =======================================================
(PID.TID 0000.0001) // Field Model R_low (ini_masks_etc) at iteration          1
(PID.TID 0000.0001) // CMIN =         -5.000000000000000E+03
(PID.TID 0000.0001) // CMAX =         -2.000000000000000E+03
(PID.TID 0000.0001) // CINT =          1.111111111111111E+02
(PID.TID 0000.0001) // SYMBOLS (CMIN->CMAX): -abcdefghijklmnopqrstuvwxyz+
(PID.TID 0000.0001) //                  0.0: .
(PID.TID 0000.0001) // RANGE I (Lo:Hi:Step):(  -1:   7:   1)
(PID.TID 0000.0001) // RANGE J (Lo:Hi:Step):(   7:  -1:  -1)
(PID.TID 0000.0001) // RANGE K (Lo:Hi:Step):(   1:   1:   1)
(PID.TID 0000.0001) // =======================================================
(PID.TID 0000.0001) K =   1
(PID.TID 0000.0001) //
(PID.TID 0000.0001) // |--J--|101234567
(PID.TID 0000.0001) //      7 ----+----
(PID.TID 0000.0001) //      6 ----+----
(PID.TID 0000.0001) //      5 ----+----
(PID.TID 0000.0001) //      4 ----+----
(PID.TID 0000.0001) //      3 ----+----
(PID.TID 0000.0001) //      2 ----+----
(PID.TID 0000.0001) //      1 ----+----
(PID.TID 0000.0001) //      0 ----+----
(PID.TID 0000.0001) //     -1 ----+----
(PID.TID 0000.0001) // =======================================================
(PID.TID 0000.0001) // END OF FIELD                                          =
(PID.TID 0000.0001) // =======================================================
(PID.TID 0000.0001) 
(PID.TID 0000.0001) // =======================================================
(PID.TID 0000.0001) // Field Model Ro_surf (ini_masks_etc) at iteration          1
(PID.TID 0000.0001) // CMIN =          1.000000000000000E+32
(PID.TID 0000.0001) // CMAX =         -1.000000000000000E+32
(PID.TID 0000.0001) // CINT =          0.000000000000000E+00
(PID.TID 0000.0001) // SYMBOLS (CMIN->CMAX): -abcdefghijklmnopqrstuvwxyz+
(PID.TID 0000.0001) //                  0.0: .
(PID.TID 0000.0001) // RANGE I (Lo:Hi:Step):(  -1:   7:   1)
(PID.TID 0000.0001) // RANGE J (Lo:Hi:Step):(   7:  -1:  -1)
(PID.TID 0000.0001) // RANGE K (Lo:Hi:Step):(   1:   1:   1)
(PID.TID 0000.0001) // =======================================================
(PID.TID 0000.0001) // =======================================================
(PID.TID 0000.0001) // END OF FIELD                                          =
(PID.TID 0000.0001) // =======================================================
(PID.TID 0000.0001) 
(PID.TID 0000.0001) // =======================================================
(PID.TID 0000.0001) // Field hFacC at iteration          1
(PID.TID 0000.0001) // CMIN =          1.000000000000000E+00
(PID.TID 0000.0001) // CMAX =          1.000000000000000E+00
(PID.TID 0000.0001) // CINT =          0.000000000000000E+00
(PID.TID 0000.0001) // SYMBOLS (CMIN->CMAX): -abcdefghijklmnopqrstuvwxyz+
(PID.TID 0000.0001) //                  0.0: .
(PID.TID 0000.0001) // RANGE I (Lo:Hi:Step):(  -1:   7:   1)
(PID.TID 0000.0001) // RANGE J (Lo:Hi:Step):(   7:  -1:  -1)
(PID.TID 0000.0001) // RANGE K (Lo:Hi:Step):(   1:   1:   1)
(PID.TID 0000.0001) // =======================================================
(PID.TID 0000.0001) // =======================================================
(PID.TID 0000.0001) // END OF FIELD                                          =
(PID.TID 0000.0001) // =======================================================
(PID.TID 0000.0001) 
(PID.TID 0000.0001) // =======================================================
(PID.TID 0000.0001) // Field hFacW at iteration          1
(PID.TID 0000.0001) // CMIN =          1.000000000000000E+00
(PID.TID 0000.0001) // CMAX =          1.000000000000000E+00
(PID.TID 0000.0001) // CINT =          0.000000000000000E+00
(PID.TID 0000.0001) // SYMBOLS (CMIN->CMAX): -abcdefghijklmnopqrstuvwxyz+
(PID.TID 0000.0001) //                  0.0: .
(PID.TID 0000.0001) // RANGE I (Lo:Hi:Step):(  -1:   7:   1)
(PID.TID 0000.0001) // RANGE J (Lo:Hi:Step):(   7:  -1:  -1)
(PID.TID 0000.0001) // RANGE K (Lo:Hi:Step):(   1:   1:   1)
(PID.TID 0000.0001) // =======================================================
(PID.TID 0000.0001) // =======================================================
(PID.TID 0000.0001) // END OF FIELD                                          =
(PID.TID 0000.0001) // =======================================================
(PID.TID 0000.0001) 
(PID.TID 0000.0001) // =======================================================
(PID.TID 0000.0001) // Field hFacS at iteration          1
(PID.TID 0000.0001) // CMIN =          1.000000000000000E+00
(PID.TID 0000.0001) // CMAX =          1.000000000000000E+00
(PID.TID 0000.0001) // CINT =          0.000000000000000E+00
(PID.TID 0000.0001) // SYMBOLS (CMIN->CMAX): -abcdefghijklmnopqrstuvwxyz+
(PID.TID 0000.0001) //                  0.0: .
(PID.TID 0000.0001) // RANGE I (Lo:Hi:Step):(  -1:   7:   1)
(PID.TID 0000.0001) // RANGE J (Lo:Hi:Step):(   7:  -1:  -1)
(PID.TID 0000.0001) // RANGE K (Lo:Hi:Step):(   1:   1:   1)
(PID.TID 0000.0001) // =======================================================
(PID.TID 0000.0001) // =======================================================
(PID.TID 0000.0001) // END OF FIELD                                          =
(PID.TID 0000.0001) // =======================================================
(PID.TID 0000.0001) 
(PID.TID 0000.0001) %MON surfExpanfCori_max           =  -1.0735540000000E-04
(PID.TID 0000.0001) %MON surfExpanfCori_min           =  -1.1783060000000E-04
(PID.TID 0000.0001) %MON surfExpanfCori_mean          =  -1.1259300000000E-04
(PID.TID 0000.0001) %MON surfExpanfCori_sd            =   3.7035424771427E-06
(PID.TID 0000.0001) %MON surfExpanfCoriG_max          =  -1.0866480000000E-04
(PID.TID 0000.0001) %MON surfExpanfCoriG_min          =  -1.1914000000000E-04
(PID.TID 0000.0001) %MON surfExpanfCoriG_mean         =  -1.1390240000000E-04
(PID.TID 0000.0001) %MON surfExpanfCoriG_sd           =   3.7035424771427E-06
(PID.TID 0000.0001) %MON surfExpanfCoriCos_max        =   0.0000000000000E+00
(PID.TID 0000.0001) %MON surfExpanfCoriCos_min        =   0.0000000000000E+00
(PID.TID 0000.0001) %MON surfExpanfCoriCos_mean       =   0.0000000000000E+00
(PID.TID 0000.0001) %MON surfExpanfCoriCos_sd         =   0.0000000000000E+00
(PID.TID 0000.0001) INI_CG2D: CG2D normalisation factor =  1.9999999999999996E-04
(PID.TID 0000.0001) 
                     ctrl_depth_ini: ctrl update R_low,
                                     adding the control vector.
(PID.TID 0000.0001)  MDS_READ_FIELD: opening file: xx_depth.0000000000.001.001.data
(PID.TID 0000.0001) // =======================================================
(PID.TID 0000.0001) // Field Model Ro_surf (update_masks_etc) at iteration          1
(PID.TID 0000.0001) // CMIN =          1.000000000000000E+32
(PID.TID 0000.0001) // CMAX =         -1.000000000000000E+32
(PID.TID 0000.0001) // CINT =          0.000000000000000E+00
(PID.TID 0000.0001) // SYMBOLS (CMIN->CMAX): -abcdefghijklmnopqrstuvwxyz+
(PID.TID 0000.0001) //                  0.0: .
(PID.TID 0000.0001) // RANGE I (Lo:Hi:Step):(  -1:   7:   1)
(PID.TID 0000.0001) // RANGE J (Lo:Hi:Step):(   7:  -1:  -1)
(PID.TID 0000.0001) // RANGE K (Lo:Hi:Step):(   1:   1:   1)
(PID.TID 0000.0001) // =======================================================
(PID.TID 0000.0001) // =======================================================
(PID.TID 0000.0001) // END OF FIELD                                          =
(PID.TID 0000.0001) // =======================================================
(PID.TID 0000.0001) 
(PID.TID 0000.0001) // =======================================================
(PID.TID 0000.0001) // Field hFacC at iteration          1
(PID.TID 0000.0001) // CMIN =          1.000000000000000E+00
(PID.TID 0000.0001) // CMAX =          1.000000000000000E+00
(PID.TID 0000.0001) // CINT =          0.000000000000000E+00
(PID.TID 0000.0001) // SYMBOLS (CMIN->CMAX): -abcdefghijklmnopqrstuvwxyz+
(PID.TID 0000.0001) //                  0.0: .
(PID.TID 0000.0001) // RANGE I (Lo:Hi:Step):(  -1:   7:   1)
(PID.TID 0000.0001) // RANGE J (Lo:Hi:Step):(   7:  -1:  -1)
(PID.TID 0000.0001) // RANGE K (Lo:Hi:Step):(   1:   1:   1)
(PID.TID 0000.0001) // =======================================================
(PID.TID 0000.0001) // =======================================================
(PID.TID 0000.0001) // END OF FIELD                                          =
(PID.TID 0000.0001) // =======================================================
(PID.TID 0000.0001) 
(PID.TID 0000.0001) // =======================================================
(PID.TID 0000.0001) // Field hFacW at iteration          1
(PID.TID 0000.0001) // CMIN =          1.000000000000000E+00
(PID.TID 0000.0001) // CMAX =          1.000000000000000E+00
(PID.TID 0000.0001) // CINT =          0.000000000000000E+00
(PID.TID 0000.0001) // SYMBOLS (CMIN->CMAX): -abcdefghijklmnopqrstuvwxyz+
(PID.TID 0000.0001) //                  0.0: .
(PID.TID 0000.0001) // RANGE I (Lo:Hi:Step):(  -1:   7:   1)
(PID.TID 0000.0001) // RANGE J (Lo:Hi:Step):(   7:  -1:  -1)
(PID.TID 0000.0001) // RANGE K (Lo:Hi:Step):(   1:   1:   1)
(PID.TID 0000.0001) // =======================================================
(PID.TID 0000.0001) // =======================================================
(PID.TID 0000.0001) // END OF FIELD                                          =
(PID.TID 0000.0001) // =======================================================
(PID.TID 0000.0001) 
(PID.TID 0000.0001) // =======================================================
(PID.TID 0000.0001) // Field hFacS at iteration          1
(PID.TID 0000.0001) // CMIN =          1.000000000000000E+00
(PID.TID 0000.0001) // CMAX =          1.000000000000000E+00
(PID.TID 0000.0001) // CINT =          0.000000000000000E+00
(PID.TID 0000.0001) // SYMBOLS (CMIN->CMAX): -abcdefghijklmnopqrstuvwxyz+
(PID.TID 0000.0001) //                  0.0: .
(PID.TID 0000.0001) // RANGE I (Lo:Hi:Step):(  -1:   7:   1)
(PID.TID 0000.0001) // RANGE J (Lo:Hi:Step):(   7:  -1:  -1)
(PID.TID 0000.0001) // RANGE K (Lo:Hi:Step):(   1:   1:   1)
(PID.TID 0000.0001) // =======================================================
(PID.TID 0000.0001) // =======================================================
(PID.TID 0000.0001) // END OF FIELD                                          =
(PID.TID 0000.0001) // =======================================================
(PID.TID 0000.0001) 
(PID.TID 0000.0001) // =======================================================
(PID.TID 0000.0001) // Field Initial Temperature at iteration          1
(PID.TID 0000.0001) // CMIN =          4.000000000000000E+00
(PID.TID 0000.0001) // CMAX =          4.000000000000000E+00
(PID.TID 0000.0001) // CINT =          0.000000000000000E+00
(PID.TID 0000.0001) // SYMBOLS (CMIN->CMAX): -abcdefghijklmnopqrstuvwxyz+
(PID.TID 0000.0001) //                  0.0: .
(PID.TID 0000.0001) // RANGE I (Lo:Hi:Step):(   1:   5:   1)
(PID.TID 0000.0001) // RANGE J (Lo:Hi:Step):(   5:   1:  -1)
(PID.TID 0000.0001) // RANGE K (Lo:Hi:Step):(   1:   1:   1)
(PID.TID 0000.0001) // =======================================================
(PID.TID 0000.0001) // =======================================================
(PID.TID 0000.0001) // END OF FIELD                                          =
(PID.TID 0000.0001) // =======================================================
(PID.TID 0000.0001) 
(PID.TID 0000.0001) // =======================================================
(PID.TID 0000.0001) // Field Initial Salinity at iteration          1
(PID.TID 0000.0001) // CMIN =          3.500000000000000E+01
(PID.TID 0000.0001) // CMAX =          3.500000000000000E+01
(PID.TID 0000.0001) // CINT =          0.000000000000000E+00
(PID.TID 0000.0001) // SYMBOLS (CMIN->CMAX): -abcdefghijklmnopqrstuvwxyz+
(PID.TID 0000.0001) //                  0.0: .
(PID.TID 0000.0001) // RANGE I (Lo:Hi:Step):(   1:   5:   1)
(PID.TID 0000.0001) // RANGE J (Lo:Hi:Step):(   5:   1:  -1)
(PID.TID 0000.0001) // RANGE K (Lo:Hi:Step):(   1:   1:   1)
(PID.TID 0000.0001) // =======================================================
(PID.TID 0000.0001) // =======================================================
(PID.TID 0000.0001) // END OF FIELD                                          =
(PID.TID 0000.0001) // =======================================================
(PID.TID 0000.0001) 
(PID.TID 0000.0001) Start initial hydrostatic pressure computation
(PID.TID 0000.0001) Pressure is predetermined for buoyancyRelation OCEANIC
(PID.TID 0000.0001) 
(PID.TID 0000.0001)  MDS_READ_FIELD: opening global file: windx.sin_y
(PID.TID 0000.0001) // =======================================================
(PID.TID 0000.0001) // Model current state
(PID.TID 0000.0001) // =======================================================
(PID.TID 0000.0001) 
 cg2d: Sum(rhs),rhsMax =   0.00000000000000E+00  0.00000000000000E+00
 cg2d: Sum(rhs),rhsMax =  -2.49999999999996E+01  6.03492218443698E-05
 cg2d: Sum(rhs),rhsMax =  -1.81034404639062E+01  2.18766023587219E-04
 cg2d: Sum(rhs),rhsMax =  -1.54955562832147E+01  4.32479836297446E-04
 cg2d: Sum(rhs),rhsMax =  -1.41111452328516E+01  6.49958988327881E-04
 cg2d: Sum(rhs),rhsMax =  -1.31144322332518E+01  8.30737102829434E-04
 cg2d: Sum(rhs),rhsMax =  -1.21209090325525E+01  9.52510661966037E-04
 cg2d: Sum(rhs),rhsMax =  -1.07124742370972E+01  1.02806631164665E-03
 cg2d: Sum(rhs),rhsMax =  -7.41375936655783E+00  1.27086596336594E-03
 cg2d: Sum(rhs),rhsMax =  -4.70217533444052E+00  1.51019014098755E-03
 cg2d: Sum(rhs),rhsMax =  -2.72440685916361E+00  1.65833738318104E-03
 cg2d: Sum(rhs),rhsMax =  -1.27958669035809E+00  1.70565508838556E-03
 cg2d: Sum(rhs),rhsMax =  -3.29564699013398E-01  1.66071960629672E-03
 cg2d: Sum(rhs),rhsMax =   5.21320409018933E-02  1.54812756179422E-03
 cg2d: Sum(rhs),rhsMax =  -2.86625373933458E-01  1.40338816116655E-03
 cg2d: Sum(rhs),rhsMax =  -1.30315843297212E+00  1.44268599701165E-03
 cg2d: Sum(rhs),rhsMax =  -2.68067690255098E+00  1.50836886613273E-03
 cg2d: Sum(rhs),rhsMax =  -4.07407453415235E+00  1.58424366857516E-03
 cg2d: Sum(rhs),rhsMax =  -5.18272348186571E+00  1.66593592771997E-03
 cg2d: Sum(rhs),rhsMax =  -5.80990598655667E+00  1.74846175222608E-03
 cg2d: Sum(rhs),rhsMax =  -5.87740628070398E+00  1.82725971010598E-03
 cg2d: Sum(rhs),rhsMax =  -5.41358311928086E+00  1.89900434456659E-03
 cg2d: Sum(rhs),rhsMax =  -4.53080677296209E+00  1.96213934285065E-03
 cg2d: Sum(rhs),rhsMax =  -3.22587898949669E+00  2.12611202645672E-03
 cg2d: Sum(rhs),rhsMax =  -2.04447211888097E+00  2.24837953799352E-03
 cg2d: Sum(rhs),rhsMax =  -1.10818137279206E+00  2.30404049213332E-03
 cg2d: Sum(rhs),rhsMax =  -4.90484880431517E-01  2.29576532469226E-03
 cg2d: Sum(rhs),rhsMax =  -2.61247063886259E-01  2.23814842233054E-03
 cg2d: Sum(rhs),rhsMax =  -4.50921969139008E-01  2.26266906665835E-03
 cg2d: Sum(rhs),rhsMax =  -1.00469610729207E+00  2.31946122737444E-03
 cg2d: Sum(rhs),rhsMax =  -1.78565331606818E+00  2.37599941248469E-03
 cg2d: Sum(rhs),rhsMax =  -2.62429309147353E+00  2.42805543032242E-03
 cg2d: Sum(rhs),rhsMax =  -3.35748487166414E+00  2.47123044598905E-03
 cg2d: Sum(rhs),rhsMax =  -3.85508918456361E+00  2.50195597835314E-03
 cg2d: Sum(rhs),rhsMax =  -4.03589978918000E+00  2.51830321979223E-03
 cg2d: Sum(rhs),rhsMax =  -3.87512848886529E+00  2.52047518482736E-03
 cg2d: Sum(rhs),rhsMax =  -3.40600369442231E+00  2.51092921117278E-03
 cg2d: Sum(rhs),rhsMax =  -2.61682443141104E+00  2.58874087367613E-03
 cg2d: Sum(rhs),rhsMax =  -1.83238712012592E+00  2.61669729998761E-03
 cg2d: Sum(rhs),rhsMax =  -1.17513338000894E+00  2.56005946246326E-03
 cg2d: Sum(rhs),rhsMax =  -7.11994616904173E-01  2.47855830109361E-03
 cg2d: Sum(rhs),rhsMax =  -5.26422151686719E-01  2.47042091888416E-03
 cg2d: Sum(rhs),rhsMax =  -6.78930216111575E-01  2.49676869662232E-03
 cg2d: Sum(rhs),rhsMax =  -1.12673722405182E+00  2.53652610767935E-03
 cg2d: Sum(rhs),rhsMax =  -1.75981626071456E+00  2.58504763131201E-03
 cg2d: Sum(rhs),rhsMax =  -2.43940636828028E+00  2.63568089494241E-03
 cg2d: Sum(rhs),rhsMax =  -3.03203010775290E+00  2.68092812993490E-03
 cg2d: Sum(rhs),rhsMax =  -3.40991311904175E+00  2.73286304115296E-03
 cg2d: Sum(rhs),rhsMax =  -3.48046023259849E+00  2.80943922606142E-03
 cg2d: Sum(rhs),rhsMax =  -3.32063073061207E+00  2.84054008923881E-03
 cg2d: Sum(rhs),rhsMax =  -2.96079447501712E+00  2.82589057894452E-03
 cg2d: Sum(rhs),rhsMax =  -2.32992810721655E+00  2.92147975419821E-03
 cg2d: Sum(rhs),rhsMax =  -1.72242455800246E+00  2.94384963586652E-03
 cg2d: Sum(rhs),rhsMax =  -1.21221903250272E+00  2.89157780576708E-03
 cg2d: Sum(rhs),rhsMax =  -8.69698390316866E-01  2.78046458193924E-03
 cg2d: Sum(rhs),rhsMax =  -7.64867800508014E-01  2.63730950801177E-03
 cg2d: Sum(rhs),rhsMax =  -9.31747845110337E-01  2.54529703110910E-03
 cg2d: Sum(rhs),rhsMax =  -1.31074338478966E+00  2.59464768351945E-03
 cg2d: Sum(rhs),rhsMax =  -1.82960842828679E+00  2.67470087995013E-03
 cg2d: Sum(rhs),rhsMax =  -2.36415408931936E+00  2.77096212030807E-03
 cg2d: Sum(rhs),rhsMax =  -2.80794779220335E+00  2.86583705959033E-03
 cg2d: Sum(rhs),rhsMax =  -3.09076537682992E+00  2.94225354059340E-03
 cg2d: Sum(rhs),rhsMax =  -3.17911023546024E+00  2.98708406934181E-03
 cg2d: Sum(rhs),rhsMax =  -3.06968980342415E+00  2.99369701810991E-03
 cg2d: Sum(rhs),rhsMax =  -2.74200030065284E+00  3.00868116601948E-03
 cg2d: Sum(rhs),rhsMax =  -2.22987017844873E+00  3.08320497111192E-03
 cg2d: Sum(rhs),rhsMax =  -1.72892383715246E+00  3.09216603219839E-03
 cg2d: Sum(rhs),rhsMax =  -1.30661125665257E+00  3.03707924855960E-03
 cg2d: Sum(rhs),rhsMax =  -1.02724587109717E+00  2.93201255532263E-03
 cg2d: Sum(rhs),rhsMax =  -9.49612077614795E-01  2.80059569336343E-03
 cg2d: Sum(rhs),rhsMax =  -1.10546681086147E+00  2.68802012011963E-03
 cg2d: Sum(rhs),rhsMax =  -1.41911845418413E+00  2.73183503994740E-03
 cg2d: Sum(rhs),rhsMax =  -1.85263651924081E+00  2.80075124155705E-03
 cg2d: Sum(rhs),rhsMax =  -2.30607104933016E+00  2.88121984487611E-03
 cg2d: Sum(rhs),rhsMax =  -2.69038332728014E+00  2.95745898748874E-03
 cg2d: Sum(rhs),rhsMax =  -2.94313284724763E+00  3.01465309795816E-03
 cg2d: Sum(rhs),rhsMax =  -3.03123923557704E+00  3.04190026023461E-03
 cg2d: Sum(rhs),rhsMax =  -2.94785321864335E+00  3.03433140295913E-03
 cg2d: Sum(rhs),rhsMax =  -2.61356654624278E+00  3.10365978790390E-03
 cg2d: Sum(rhs),rhsMax =  -2.18161316721190E+00  3.16115505726302E-03
 cg2d: Sum(rhs),rhsMax =  -1.75526122969387E+00  3.15966314222491E-03
 cg2d: Sum(rhs),rhsMax =  -1.39603742454136E+00  3.10114913014512E-03
 cg2d: Sum(rhs),rhsMax =  -1.16177138972310E+00  2.99876546298656E-03
 cg2d: Sum(rhs),rhsMax =  -1.10293745980674E+00  2.87411084128284E-03
 cg2d: Sum(rhs),rhsMax =  -1.24975132836236E+00  2.75286355396135E-03
 cg2d: Sum(rhs),rhsMax =  -1.53840868270612E+00  2.75098216047400E-03
 cg2d: Sum(rhs),rhsMax =  -1.91301871947915E+00  2.81271668542662E-03
 cg2d: Sum(rhs),rhsMax =  -2.30705940376003E+00  2.88449380585297E-03
 cg2d: Sum(rhs),rhsMax =  -2.64297553439984E+00  2.95188724992244E-03
 cg2d: Sum(rhs),rhsMax =  -2.86495129911834E+00  3.00154118048774E-03
 cg2d: Sum(rhs),rhsMax =  -2.94238809185705E+00  3.02377925637254E-03
 cg2d: Sum(rhs),rhsMax =  -2.84207311532024E+00  3.04217207776431E-03
 cg2d: Sum(rhs),rhsMax =  -2.51902174159115E+00  3.13830806170270E-03
 cg2d: Sum(rhs),rhsMax =  -2.14123728569464E+00  3.18959324770558E-03
 cg2d: Sum(rhs),rhsMax =  -1.76835917301718E+00  3.18714933826665E-03
 cg2d: Sum(rhs),rhsMax =  -1.45590347899372E+00  3.13272230835495E-03
 cg2d: Sum(rhs),rhsMax =  -1.25508068977160E+00  3.03818419039900E-03
 cg2d: Sum(rhs),rhsMax =  -1.20874901920490E+00  2.92305993965997E-03
 cg2d: Sum(rhs),rhsMax =  -1.34034308471315E+00  2.81059308318476E-03
 cg2d: Sum(rhs),rhsMax =  -1.62624329414168E+00  2.74190572514872E-03
(PID.TID 0000.0001) %CHECKPOINT       100 ckptA
 --> objf_test(bi,bj)   =  0.509071979743580E-01
 --> objf_tracer(bi,bj) =  0.000000000000000E+00
 --> objf_atl(bi,bj)    =  0.000000000000000E+00
  local fc =  0.509071979743580E-01
 global fc =  0.509071979743580E-01
 ph-check fcpertplus =   0.050907198
(PID.TID 0000.0001)  MDS_READ_FIELD: opening file: xx_depth.0000000000.001.001.data
 ph-check fcpertminus =   0.0509071982
(PID.TID 0000.0001)  MDS_READ_FIELD: opening file: xx_depth.0000000000.001.001.data
(PID.TID 0000.0001)  MDS_READ_FIELD: opening global file: noWalls.bigRidge
(PID.TID 0000.0001) // =======================================================
(PID.TID 0000.0001) // Field Model R_low (ini_masks_etc) at iteration          1
(PID.TID 0000.0001) // CMIN =         -5.000000000000000E+03
(PID.TID 0000.0001) // CMAX =         -2.000000000000000E+03
(PID.TID 0000.0001) // CINT =          1.111111111111111E+02
(PID.TID 0000.0001) // SYMBOLS (CMIN->CMAX): -abcdefghijklmnopqrstuvwxyz+
(PID.TID 0000.0001) //                  0.0: .
(PID.TID 0000.0001) // RANGE I (Lo:Hi:Step):(  -1:   7:   1)
(PID.TID 0000.0001) // RANGE J (Lo:Hi:Step):(   7:  -1:  -1)
(PID.TID 0000.0001) // RANGE K (Lo:Hi:Step):(   1:   1:   1)
(PID.TID 0000.0001) // =======================================================
(PID.TID 0000.0001) K =   1
(PID.TID 0000.0001) //
(PID.TID 0000.0001) // |--J--|101234567
(PID.TID 0000.0001) //      7 ----+----
(PID.TID 0000.0001) //      6 ----+----
(PID.TID 0000.0001) //      5 ----+----
(PID.TID 0000.0001) //      4 ----+----
(PID.TID 0000.0001) //      3 ----+----
(PID.TID 0000.0001) //      2 ----+----
(PID.TID 0000.0001) //      1 ----+----
(PID.TID 0000.0001) //      0 ----+----
(PID.TID 0000.0001) //     -1 ----+----
(PID.TID 0000.0001) // =======================================================
(PID.TID 0000.0001) // END OF FIELD                                          =
(PID.TID 0000.0001) // =======================================================
(PID.TID 0000.0001) 
(PID.TID 0000.0001) // =======================================================
(PID.TID 0000.0001) // Field Model Ro_surf (ini_masks_etc) at iteration          1
(PID.TID 0000.0001) // CMIN =          1.000000000000000E+32
(PID.TID 0000.0001) // CMAX =         -1.000000000000000E+32
(PID.TID 0000.0001) // CINT =          0.000000000000000E+00
(PID.TID 0000.0001) // SYMBOLS (CMIN->CMAX): -abcdefghijklmnopqrstuvwxyz+
(PID.TID 0000.0001) //                  0.0: .
(PID.TID 0000.0001) // RANGE I (Lo:Hi:Step):(  -1:   7:   1)
(PID.TID 0000.0001) // RANGE J (Lo:Hi:Step):(   7:  -1:  -1)
(PID.TID 0000.0001) // RANGE K (Lo:Hi:Step):(   1:   1:   1)
(PID.TID 0000.0001) // =======================================================
(PID.TID 0000.0001) // =======================================================
(PID.TID 0000.0001) // END OF FIELD                                          =
(PID.TID 0000.0001) // =======================================================
(PID.TID 0000.0001) 
(PID.TID 0000.0001) // =======================================================
(PID.TID 0000.0001) // Field hFacC at iteration          1
(PID.TID 0000.0001) // CMIN =          1.000000000000000E+00
(PID.TID 0000.0001) // CMAX =          1.000000000000000E+00
(PID.TID 0000.0001) // CINT =          0.000000000000000E+00
(PID.TID 0000.0001) // SYMBOLS (CMIN->CMAX): -abcdefghijklmnopqrstuvwxyz+
(PID.TID 0000.0001) //                  0.0: .
(PID.TID 0000.0001) // RANGE I (Lo:Hi:Step):(  -1:   7:   1)
(PID.TID 0000.0001) // RANGE J (Lo:Hi:Step):(   7:  -1:  -1)
(PID.TID 0000.0001) // RANGE K (Lo:Hi:Step):(   1:   1:   1)
(PID.TID 0000.0001) // =======================================================
(PID.TID 0000.0001) // =======================================================
(PID.TID 0000.0001) // END OF FIELD                                          =
(PID.TID 0000.0001) // =======================================================
(PID.TID 0000.0001) 
(PID.TID 0000.0001) // =======================================================
(PID.TID 0000.0001) // Field hFacW at iteration          1
(PID.TID 0000.0001) // CMIN =          1.000000000000000E+00
(PID.TID 0000.0001) // CMAX =          1.000000000000000E+00
(PID.TID 0000.0001) // CINT =          0.000000000000000E+00
(PID.TID 0000.0001) // SYMBOLS (CMIN->CMAX): -abcdefghijklmnopqrstuvwxyz+
(PID.TID 0000.0001) //                  0.0: .
(PID.TID 0000.0001) // RANGE I (Lo:Hi:Step):(  -1:   7:   1)
(PID.TID 0000.0001) // RANGE J (Lo:Hi:Step):(   7:  -1:  -1)
(PID.TID 0000.0001) // RANGE K (Lo:Hi:Step):(   1:   1:   1)
(PID.TID 0000.0001) // =======================================================
(PID.TID 0000.0001) // =======================================================
(PID.TID 0000.0001) // END OF FIELD                                          =
(PID.TID 0000.0001) // =======================================================
(PID.TID 0000.0001) 
(PID.TID 0000.0001) // =======================================================
(PID.TID 0000.0001) // Field hFacS at iteration          1
(PID.TID 0000.0001) // CMIN =          1.000000000000000E+00
(PID.TID 0000.0001) // CMAX =          1.000000000000000E+00
(PID.TID 0000.0001) // CINT =          0.000000000000000E+00
(PID.TID 0000.0001) // SYMBOLS (CMIN->CMAX): -abcdefghijklmnopqrstuvwxyz+
(PID.TID 0000.0001) //                  0.0: .
(PID.TID 0000.0001) // RANGE I (Lo:Hi:Step):(  -1:   7:   1)
(PID.TID 0000.0001) // RANGE J (Lo:Hi:Step):(   7:  -1:  -1)
(PID.TID 0000.0001) // RANGE K (Lo:Hi:Step):(   1:   1:   1)
(PID.TID 0000.0001) // =======================================================
(PID.TID 0000.0001) // =======================================================
(PID.TID 0000.0001) // END OF FIELD                                          =
(PID.TID 0000.0001) // =======================================================
(PID.TID 0000.0001) 
(PID.TID 0000.0001) %MON surfExpanfCori_max           =  -1.0735540000000E-04
(PID.TID 0000.0001) %MON surfExpanfCori_min           =  -1.1783060000000E-04
(PID.TID 0000.0001) %MON surfExpanfCori_mean          =  -1.1259300000000E-04
(PID.TID 0000.0001) %MON surfExpanfCori_sd            =   3.7035424771427E-06
(PID.TID 0000.0001) %MON surfExpanfCoriG_max          =  -1.0866480000000E-04
(PID.TID 0000.0001) %MON surfExpanfCoriG_min          =  -1.1914000000000E-04
(PID.TID 0000.0001) %MON surfExpanfCoriG_mean         =  -1.1390240000000E-04
(PID.TID 0000.0001) %MON surfExpanfCoriG_sd           =   3.7035424771427E-06
(PID.TID 0000.0001) %MON surfExpanfCoriCos_max        =   0.0000000000000E+00
(PID.TID 0000.0001) %MON surfExpanfCoriCos_min        =   0.0000000000000E+00
(PID.TID 0000.0001) %MON surfExpanfCoriCos_mean       =   0.0000000000000E+00
(PID.TID 0000.0001) %MON surfExpanfCoriCos_sd         =   0.0000000000000E+00
(PID.TID 0000.0001) INI_CG2D: CG2D normalisation factor =  1.9999999999999996E-04
(PID.TID 0000.0001) 
                     ctrl_depth_ini: ctrl update R_low,
                                     adding the control vector.
(PID.TID 0000.0001)  MDS_READ_FIELD: opening file: xx_depth.0000000000.001.001.data
(PID.TID 0000.0001) // =======================================================
(PID.TID 0000.0001) // Field Model Ro_surf (update_masks_etc) at iteration          1
(PID.TID 0000.0001) // CMIN =          1.000000000000000E+32
(PID.TID 0000.0001) // CMAX =         -1.000000000000000E+32
(PID.TID 0000.0001) // CINT =          0.000000000000000E+00
(PID.TID 0000.0001) // SYMBOLS (CMIN->CMAX): -abcdefghijklmnopqrstuvwxyz+
(PID.TID 0000.0001) //                  0.0: .
(PID.TID 0000.0001) // RANGE I (Lo:Hi:Step):(  -1:   7:   1)
(PID.TID 0000.0001) // RANGE J (Lo:Hi:Step):(   7:  -1:  -1)
(PID.TID 0000.0001) // RANGE K (Lo:Hi:Step):(   1:   1:   1)
(PID.TID 0000.0001) // =======================================================
(PID.TID 0000.0001) // =======================================================
(PID.TID 0000.0001) // END OF FIELD                                          =
(PID.TID 0000.0001) // =======================================================
(PID.TID 0000.0001) 
(PID.TID 0000.0001) // =======================================================
(PID.TID 0000.0001) // Field hFacC at iteration          1
(PID.TID 0000.0001) // CMIN =          1.000000000000000E+00
(PID.TID 0000.0001) // CMAX =          1.000000000000000E+00
(PID.TID 0000.0001) // CINT =          0.000000000000000E+00
(PID.TID 0000.0001) // SYMBOLS (CMIN->CMAX): -abcdefghijklmnopqrstuvwxyz+
(PID.TID 0000.0001) //                  0.0: .
(PID.TID 0000.0001) // RANGE I (Lo:Hi:Step):(  -1:   7:   1)
(PID.TID 0000.0001) // RANGE J (Lo:Hi:Step):(   7:  -1:  -1)
(PID.TID 0000.0001) // RANGE K (Lo:Hi:Step):(   1:   1:   1)
(PID.TID 0000.0001) // =======================================================
(PID.TID 0000.0001) // =======================================================
(PID.TID 0000.0001) // END OF FIELD                                          =
(PID.TID 0000.0001) // =======================================================
(PID.TID 0000.0001) 
(PID.TID 0000.0001) // =======================================================
(PID.TID 0000.0001) // Field hFacW at iteration          1
(PID.TID 0000.0001) // CMIN =          1.000000000000000E+00
(PID.TID 0000.0001) // CMAX =          1.000000000000000E+00
(PID.TID 0000.0001) // CINT =          0.000000000000000E+00
(PID.TID 0000.0001) // SYMBOLS (CMIN->CMAX): -abcdefghijklmnopqrstuvwxyz+
(PID.TID 0000.0001) //                  0.0: .
(PID.TID 0000.0001) // RANGE I (Lo:Hi:Step):(  -1:   7:   1)
(PID.TID 0000.0001) // RANGE J (Lo:Hi:Step):(   7:  -1:  -1)
(PID.TID 0000.0001) // RANGE K (Lo:Hi:Step):(   1:   1:   1)
(PID.TID 0000.0001) // =======================================================
(PID.TID 0000.0001) // =======================================================
(PID.TID 0000.0001) // END OF FIELD                                          =
(PID.TID 0000.0001) // =======================================================
(PID.TID 0000.0001) 
(PID.TID 0000.0001) // =======================================================
(PID.TID 0000.0001) // Field hFacS at iteration          1
(PID.TID 0000.0001) // CMIN =          1.000000000000000E+00
(PID.TID 0000.0001) // CMAX =          1.000000000000000E+00
(PID.TID 0000.0001) // CINT =          0.000000000000000E+00
(PID.TID 0000.0001) // SYMBOLS (CMIN->CMAX): -abcdefghijklmnopqrstuvwxyz+
(PID.TID 0000.0001) //                  0.0: .
(PID.TID 0000.0001) // RANGE I (Lo:Hi:Step):(  -1:   7:   1)
(PID.TID 0000.0001) // RANGE J (Lo:Hi:Step):(   7:  -1:  -1)
(PID.TID 0000.0001) // RANGE K (Lo:Hi:Step):(   1:   1:   1)
(PID.TID 0000.0001) // =======================================================
(PID.TID 0000.0001) // =======================================================
(PID.TID 0000.0001) // END OF FIELD                                          =
(PID.TID 0000.0001) // =======================================================
(PID.TID 0000.0001) 
(PID.TID 0000.0001) // =======================================================
(PID.TID 0000.0001) // Field Initial Temperature at iteration          1
(PID.TID 0000.0001) // CMIN =          4.000000000000000E+00
(PID.TID 0000.0001) // CMAX =          4.000000000000000E+00
(PID.TID 0000.0001) // CINT =          0.000000000000000E+00
(PID.TID 0000.0001) // SYMBOLS (CMIN->CMAX): -abcdefghijklmnopqrstuvwxyz+
(PID.TID 0000.0001) //                  0.0: .
(PID.TID 0000.0001) // RANGE I (Lo:Hi:Step):(   1:   5:   1)
(PID.TID 0000.0001) // RANGE J (Lo:Hi:Step):(   5:   1:  -1)
(PID.TID 0000.0001) // RANGE K (Lo:Hi:Step):(   1:   1:   1)
(PID.TID 0000.0001) // =======================================================
(PID.TID 0000.0001) // =======================================================
(PID.TID 0000.0001) // END OF FIELD                                          =
(PID.TID 0000.0001) // =======================================================
(PID.TID 0000.0001) 
(PID.TID 0000.0001) // =======================================================
(PID.TID 0000.0001) // Field Initial Salinity at iteration          1
(PID.TID 0000.0001) // CMIN =          3.500000000000000E+01
(PID.TID 0000.0001) // CMAX =          3.500000000000000E+01
(PID.TID 0000.0001) // CINT =          0.000000000000000E+00
(PID.TID 0000.0001) // SYMBOLS (CMIN->CMAX): -abcdefghijklmnopqrstuvwxyz+
(PID.TID 0000.0001) //                  0.0: .
(PID.TID 0000.0001) // RANGE I (Lo:Hi:Step):(   1:   5:   1)
(PID.TID 0000.0001) // RANGE J (Lo:Hi:Step):(   5:   1:  -1)
(PID.TID 0000.0001) // RANGE K (Lo:Hi:Step):(   1:   1:   1)
(PID.TID 0000.0001) // =======================================================
(PID.TID 0000.0001) // =======================================================
(PID.TID 0000.0001) // END OF FIELD                                          =
(PID.TID 0000.0001) // =======================================================
(PID.TID 0000.0001) 
(PID.TID 0000.0001) Start initial hydrostatic pressure computation
(PID.TID 0000.0001) Pressure is predetermined for buoyancyRelation OCEANIC
(PID.TID 0000.0001) 
(PID.TID 0000.0001)  MDS_READ_FIELD: opening global file: windx.sin_y
(PID.TID 0000.0001) // =======================================================
(PID.TID 0000.0001) // Model current state
(PID.TID 0000.0001) // =======================================================
(PID.TID 0000.0001) 
 cg2d: Sum(rhs),rhsMax =   0.00000000000000E+00  0.00000000000000E+00
 cg2d: Sum(rhs),rhsMax =  -2.49999999999996E+01  6.03492218443698E-05
 cg2d: Sum(rhs),rhsMax =  -1.81034404639062E+01  2.18766023587219E-04
 cg2d: Sum(rhs),rhsMax =  -1.54955562832147E+01  4.32479836297446E-04
 cg2d: Sum(rhs),rhsMax =  -1.41111452330477E+01  6.49958988318951E-04
 cg2d: Sum(rhs),rhsMax =  -1.31144322332708E+01  8.30737102827328E-04
 cg2d: Sum(rhs),rhsMax =  -1.21209090325250E+01  9.52510661964553E-04
 cg2d: Sum(rhs),rhsMax =  -1.07124742373167E+01  1.02806631161748E-03
 cg2d: Sum(rhs),rhsMax =  -7.41375936675630E+00  1.27086596331549E-03
 cg2d: Sum(rhs),rhsMax =  -4.70217533466759E+00  1.51019014088862E-03
 cg2d: Sum(rhs),rhsMax =  -2.72440685939476E+00  1.65833738301917E-03
 cg2d: Sum(rhs),rhsMax =  -1.27958669058797E+00  1.70565508815713E-03
 cg2d: Sum(rhs),rhsMax =  -3.29564699291604E-01  1.66071960601107E-03
 cg2d: Sum(rhs),rhsMax =   5.21320404290297E-02  1.54812756147841E-03
 cg2d: Sum(rhs),rhsMax =  -2.86625374867522E-01  1.40338816086456E-03
 cg2d: Sum(rhs),rhsMax =  -1.30315843443150E+00  1.44268599674570E-03
 cg2d: Sum(rhs),rhsMax =  -2.68067690343742E+00  1.50836886649237E-03
 cg2d: Sum(rhs),rhsMax =  -4.07407453287845E+00  1.58424366975620E-03
 cg2d: Sum(rhs),rhsMax =  -5.18272347711286E+00  1.66593592986165E-03
 cg2d: Sum(rhs),rhsMax =  -5.80990597800476E+00  1.74846175538946E-03
 cg2d: Sum(rhs),rhsMax =  -5.87740626924718E+00  1.82725971426517E-03
 cg2d: Sum(rhs),rhsMax =  -5.41358310670480E+00  1.89900434961497E-03
 cg2d: Sum(rhs),rhsMax =  -4.53080676130888E+00  1.96213934862117E-03
 cg2d: Sum(rhs),rhsMax =  -3.22587898867294E+00  2.12611202795247E-03
 cg2d: Sum(rhs),rhsMax =  -2.04447211878370E+00  2.24837953952423E-03
 cg2d: Sum(rhs),rhsMax =  -1.10818137332636E+00  2.30404049361625E-03
 cg2d: Sum(rhs),rhsMax =  -4.90484881461084E-01  2.29576532606167E-03
 cg2d: Sum(rhs),rhsMax =  -2.61247065280622E-01  2.23814842354862E-03
 cg2d: Sum(rhs),rhsMax =  -4.50921969504055E-01  2.26266907391186E-03
 cg2d: Sum(rhs),rhsMax =  -1.00469610614858E+00  2.31946123497328E-03
 cg2d: Sum(rhs),rhsMax =  -1.78565331250689E+00  2.37599942060304E-03
 cg2d: Sum(rhs),rhsMax =  -2.62429308490959E+00  2.42805543912739E-03
 cg2d: Sum(rhs),rhsMax =  -3.35748486195258E+00  2.47123045560588E-03
 cg2d: Sum(rhs),rhsMax =  -3.85508917212488E+00  2.50195598883919E-03
 cg2d: Sum(rhs),rhsMax =  -4.03589977504591E+00  2.51830323112509E-03
 cg2d: Sum(rhs),rhsMax =  -3.87512847456560E+00  2.52047519690923E-03
 cg2d: Sum(rhs),rhsMax =  -3.40600368168964E+00  2.51092922384969E-03
 cg2d: Sum(rhs),rhsMax =  -2.61682443485874E+00  2.58874087465241E-03
 cg2d: Sum(rhs),rhsMax =  -1.83238712388538E+00  2.61669730098994E-03
 cg2d: Sum(rhs),rhsMax =  -1.17513338418908E+00  2.56005946347046E-03
 cg2d: Sum(rhs),rhsMax =  -7.11994621086523E-01  2.47855830368298E-03
 cg2d: Sum(rhs),rhsMax =  -5.26422153952068E-01  2.47042093243367E-03
 cg2d: Sum(rhs),rhsMax =  -6.78930217797234E-01  2.49676871029646E-03
 cg2d: Sum(rhs),rhsMax =  -1.12673722359077E+00  2.53652612159440E-03
 cg2d: Sum(rhs),rhsMax =  -1.75981625708023E+00  2.58504764559815E-03
 cg2d: Sum(rhs),rhsMax =  -2.43940636111298E+00  2.63568090971001E-03
 cg2d: Sum(rhs),rhsMax =  -3.03203009736633E+00  2.68092814524563E-03
 cg2d: Sum(rhs),rhsMax =  -3.40991311803609E+00  2.73286304781663E-03
 cg2d: Sum(rhs),rhsMax =  -3.48046023211772E+00  2.80943923255003E-03
 cg2d: Sum(rhs),rhsMax =  -3.32063073114724E+00  2.84054009549225E-03
 cg2d: Sum(rhs),rhsMax =  -2.96079447694991E+00  2.82589058490262E-03
 cg2d: Sum(rhs),rhsMax =  -2.32992811488631E+00  2.92147975475061E-03
 cg2d: Sum(rhs),rhsMax =  -1.72242456591482E+00  2.94384963633971E-03
 cg2d: Sum(rhs),rhsMax =  -1.21221904079219E+00  2.89157780613711E-03
 cg2d: Sum(rhs),rhsMax =  -8.69698399127987E-01  2.78046458218326E-03
 cg2d: Sum(rhs),rhsMax =  -7.64867809984307E-01  2.63730950811110E-03
 cg2d: Sum(rhs),rhsMax =  -9.31747853729756E-01  2.54529703498272E-03
 cg2d: Sum(rhs),rhsMax =  -1.31074339304153E+00  2.59464768715812E-03
 cg2d: Sum(rhs),rhsMax =  -1.82960843601390E+00  2.67470088338601E-03
 cg2d: Sum(rhs),rhsMax =  -2.36415409659662E+00  2.77096212354851E-03
 cg2d: Sum(rhs),rhsMax =  -2.80794779926622E+00  2.86583706261188E-03
 cg2d: Sum(rhs),rhsMax =  -3.09076538399288E+00  2.94225354334184E-03
 cg2d: Sum(rhs),rhsMax =  -3.17911024304696E+00  2.98708407173833E-03
 cg2d: Sum(rhs),rhsMax =  -3.06968981170936E+00  2.99369702006267E-03
 cg2d: Sum(rhs),rhsMax =  -2.74200031211475E+00  3.00868116478105E-03
 cg2d: Sum(rhs),rhsMax =  -2.22987018957077E+00  3.08320496970720E-03
 cg2d: Sum(rhs),rhsMax =  -1.72892384808242E+00  3.09216603060506E-03
 cg2d: Sum(rhs),rhsMax =  -1.30661126757056E+00  3.03707924675358E-03
 cg2d: Sum(rhs),rhsMax =  -1.02724588221458E+00  2.93201255328148E-03
 cg2d: Sum(rhs),rhsMax =  -9.49612089180105E-01  2.80059569106943E-03
 cg2d: Sum(rhs),rhsMax =  -1.10546682291278E+00  2.68802011793929E-03
 cg2d: Sum(rhs),rhsMax =  -1.41911846644994E+00  2.73183503736205E-03
 cg2d: Sum(rhs),rhsMax =  -1.85263653180209E+00  2.80075123863510E-03
 cg2d: Sum(rhs),rhsMax =  -2.30607106222453E+00  2.88121984165777E-03
 cg2d: Sum(rhs),rhsMax =  -2.69038334050513E+00  2.95745898397719E-03
 cg2d: Sum(rhs),rhsMax =  -2.94313286078392E+00  3.01465309411767E-03
 cg2d: Sum(rhs),rhsMax =  -3.03123924939483E+00  3.04190025599603E-03
 cg2d: Sum(rhs),rhsMax =  -2.94785323268173E+00  3.03433139823160E-03
 cg2d: Sum(rhs),rhsMax =  -2.61356655901883E+00  3.10365978341447E-03
 cg2d: Sum(rhs),rhsMax =  -2.18161317901431E+00  3.16115505252580E-03
 cg2d: Sum(rhs),rhsMax =  -1.75526124066261E+00  3.15966313721982E-03
 cg2d: Sum(rhs),rhsMax =  -1.39603743488243E+00  3.10114912485026E-03
 cg2d: Sum(rhs),rhsMax =  -1.16177139971823E+00  2.99876545738161E-03
 cg2d: Sum(rhs),rhsMax =  -1.10293746983744E+00  2.87411083535217E-03
 cg2d: Sum(rhs),rhsMax =  -1.24975133890801E+00  2.75286354769628E-03
 cg2d: Sum(rhs),rhsMax =  -1.53840869570544E+00  2.75098215036751E-03
 cg2d: Sum(rhs),rhsMax =  -1.91301873355059E+00  2.81271667482866E-03
 cg2d: Sum(rhs),rhsMax =  -2.30705941898342E+00  2.88449379480709E-03
 cg2d: Sum(rhs),rhsMax =  -2.64297555061347E+00  2.95188723844084E-03
 cg2d: Sum(rhs),rhsMax =  -2.86495131600856E+00  3.00154116854876E-03
 cg2d: Sum(rhs),rhsMax =  -2.94238810902752E+00  3.02377924392510E-03
 cg2d: Sum(rhs),rhsMax =  -2.84207312774980E+00  3.04217206934361E-03
 cg2d: Sum(rhs),rhsMax =  -2.51902175248632E+00  3.13830805298812E-03
 cg2d: Sum(rhs),rhsMax =  -2.14123729501127E+00  3.18959323868332E-03
 cg2d: Sum(rhs),rhsMax =  -1.76835918084178E+00  3.18714932891832E-03
 cg2d: Sum(rhs),rhsMax =  -1.45590348552399E+00  3.13272229866078E-03
 cg2d: Sum(rhs),rhsMax =  -1.25508069533825E+00  3.03818418034109E-03
 cg2d: Sum(rhs),rhsMax =  -1.20874902431175E+00  2.92305992922526E-03
 cg2d: Sum(rhs),rhsMax =  -1.34034309003902E+00  2.81059307236708E-03
 cg2d: Sum(rhs),rhsMax =  -1.62624330477355E+00  2.74190570646635E-03
(PID.TID 0000.0001) %CHECKPOINT       100 ckptB
 --> objf_test(bi,bj)   =  0.509071984379451E-01
 --> objf_tracer(bi,bj) =  0.000000000000000E+00
 --> objf_atl(bi,bj)    =  0.000000000000000E+00
  local fc =  0.509071984379451E-01
 global fc =  0.509071984379451E-01
(PID.TID 0000.0001)  MDS_READ_FIELD: opening file: xx_depth.0000000000.001.001.data
grad-res -------------------------------
 grad-res     0   14    4    3    1    1    1    1   0.509071982062E-01 0.509071979744E-01 0.509071984379E-01
 grad-res     0   14   14   14   25    1    1    1   -.231773627218E-05 -.231793577388E-05 -.860760985835E-04
(PID.TID 0000.0001)   ADM  precision_derivative_cost =    5.09071982061515E-02
(PID.TID 0000.0001)   ADM  precision_derivative_grad =   -2.31773627218088E-06
 ph-grd  ierr ---------------------------
 ph-grd  ierr =  0, icomp =  14, ichknum =  14
 ph-grd -->hit<--  5 3 1 1
(PID.TID 0000.0001)  MDS_READ_FIELD: opening file: adxx_depth.0000000000.001.001.data
(PID.TID 0000.0001)  MDS_READ_FIELD: opening file: xx_depth.0000000000.001.001.data
(PID.TID 0000.0001)  MDS_READ_FIELD: opening global file: noWalls.bigRidge
(PID.TID 0000.0001) // =======================================================
(PID.TID 0000.0001) // Field Model R_low (ini_masks_etc) at iteration          1
(PID.TID 0000.0001) // CMIN =         -5.000000000000000E+03
(PID.TID 0000.0001) // CMAX =         -2.000000000000000E+03
(PID.TID 0000.0001) // CINT =          1.111111111111111E+02
(PID.TID 0000.0001) // SYMBOLS (CMIN->CMAX): -abcdefghijklmnopqrstuvwxyz+
(PID.TID 0000.0001) //                  0.0: .
(PID.TID 0000.0001) // RANGE I (Lo:Hi:Step):(  -1:   7:   1)
(PID.TID 0000.0001) // RANGE J (Lo:Hi:Step):(   7:  -1:  -1)
(PID.TID 0000.0001) // RANGE K (Lo:Hi:Step):(   1:   1:   1)
(PID.TID 0000.0001) // =======================================================
(PID.TID 0000.0001) K =   1
(PID.TID 0000.0001) //
(PID.TID 0000.0001) // |--J--|101234567
(PID.TID 0000.0001) //      7 ----+----
(PID.TID 0000.0001) //      6 ----+----
(PID.TID 0000.0001) //      5 ----+----
(PID.TID 0000.0001) //      4 ----+----
(PID.TID 0000.0001) //      3 ----+----
(PID.TID 0000.0001) //      2 ----+----
(PID.TID 0000.0001) //      1 ----+----
(PID.TID 0000.0001) //      0 ----+----
(PID.TID 0000.0001) //     -1 ----+----
(PID.TID 0000.0001) // =======================================================
(PID.TID 0000.0001) // END OF FIELD                                          =
(PID.TID 0000.0001) // =======================================================
(PID.TID 0000.0001) 
(PID.TID 0000.0001) // =======================================================
(PID.TID 0000.0001) // Field Model Ro_surf (ini_masks_etc) at iteration          1
(PID.TID 0000.0001) // CMIN =          1.000000000000000E+32
(PID.TID 0000.0001) // CMAX =         -1.000000000000000E+32
(PID.TID 0000.0001) // CINT =          0.000000000000000E+00
(PID.TID 0000.0001) // SYMBOLS (CMIN->CMAX): -abcdefghijklmnopqrstuvwxyz+
(PID.TID 0000.0001) //                  0.0: .
(PID.TID 0000.0001) // RANGE I (Lo:Hi:Step):(  -1:   7:   1)
(PID.TID 0000.0001) // RANGE J (Lo:Hi:Step):(   7:  -1:  -1)
(PID.TID 0000.0001) // RANGE K (Lo:Hi:Step):(   1:   1:   1)
(PID.TID 0000.0001) // =======================================================
(PID.TID 0000.0001) // =======================================================
(PID.TID 0000.0001) // END OF FIELD                                          =
(PID.TID 0000.0001) // =======================================================
(PID.TID 0000.0001) 
(PID.TID 0000.0001) // =======================================================
(PID.TID 0000.0001) // Field hFacC at iteration          1
(PID.TID 0000.0001) // CMIN =          1.000000000000000E+00
(PID.TID 0000.0001) // CMAX =          1.000000000000000E+00
(PID.TID 0000.0001) // CINT =          0.000000000000000E+00
(PID.TID 0000.0001) // SYMBOLS (CMIN->CMAX): -abcdefghijklmnopqrstuvwxyz+
(PID.TID 0000.0001) //                  0.0: .
(PID.TID 0000.0001) // RANGE I (Lo:Hi:Step):(  -1:   7:   1)
(PID.TID 0000.0001) // RANGE J (Lo:Hi:Step):(   7:  -1:  -1)
(PID.TID 0000.0001) // RANGE K (Lo:Hi:Step):(   1:   1:   1)
(PID.TID 0000.0001) // =======================================================
(PID.TID 0000.0001) // =======================================================
(PID.TID 0000.0001) // END OF FIELD                                          =
(PID.TID 0000.0001) // =======================================================
(PID.TID 0000.0001) 
(PID.TID 0000.0001) // =======================================================
(PID.TID 0000.0001) // Field hFacW at iteration          1
(PID.TID 0000.0001) // CMIN =          1.000000000000000E+00
(PID.TID 0000.0001) // CMAX =          1.000000000000000E+00
(PID.TID 0000.0001) // CINT =          0.000000000000000E+00
(PID.TID 0000.0001) // SYMBOLS (CMIN->CMAX): -abcdefghijklmnopqrstuvwxyz+
(PID.TID 0000.0001) //                  0.0: .
(PID.TID 0000.0001) // RANGE I (Lo:Hi:Step):(  -1:   7:   1)
(PID.TID 0000.0001) // RANGE J (Lo:Hi:Step):(   7:  -1:  -1)
(PID.TID 0000.0001) // RANGE K (Lo:Hi:Step):(   1:   1:   1)
(PID.TID 0000.0001) // =======================================================
(PID.TID 0000.0001) // =======================================================
(PID.TID 0000.0001) // END OF FIELD                                          =
(PID.TID 0000.0001) // =======================================================
(PID.TID 0000.0001) 
(PID.TID 0000.0001) // =======================================================
(PID.TID 0000.0001) // Field hFacS at iteration          1
(PID.TID 0000.0001) // CMIN =          1.000000000000000E+00
(PID.TID 0000.0001) // CMAX =          1.000000000000000E+00
(PID.TID 0000.0001) // CINT =          0.000000000000000E+00
(PID.TID 0000.0001) // SYMBOLS (CMIN->CMAX): -abcdefghijklmnopqrstuvwxyz+
(PID.TID 0000.0001) //                  0.0: .
(PID.TID 0000.0001) // RANGE I (Lo:Hi:Step):(  -1:   7:   1)
(PID.TID 0000.0001) // RANGE J (Lo:Hi:Step):(   7:  -1:  -1)
(PID.TID 0000.0001) // RANGE K (Lo:Hi:Step):(   1:   1:   1)
(PID.TID 0000.0001) // =======================================================
(PID.TID 0000.0001) // =======================================================
(PID.TID 0000.0001) // END OF FIELD                                          =
(PID.TID 0000.0001) // =======================================================
(PID.TID 0000.0001) 
(PID.TID 0000.0001) %MON surfExpanfCori_max           =  -1.0735540000000E-04
(PID.TID 0000.0001) %MON surfExpanfCori_min           =  -1.1783060000000E-04
(PID.TID 0000.0001) %MON surfExpanfCori_mean          =  -1.1259300000000E-04
(PID.TID 0000.0001) %MON surfExpanfCori_sd            =   3.7035424771427E-06
(PID.TID 0000.0001) %MON surfExpanfCoriG_max          =  -1.0866480000000E-04
(PID.TID 0000.0001) %MON surfExpanfCoriG_min          =  -1.1914000000000E-04
(PID.TID 0000.0001) %MON surfExpanfCoriG_mean         =  -1.1390240000000E-04
(PID.TID 0000.0001) %MON surfExpanfCoriG_sd           =   3.7035424771427E-06
(PID.TID 0000.0001) %MON surfExpanfCoriCos_max        =   0.0000000000000E+00
(PID.TID 0000.0001) %MON surfExpanfCoriCos_min        =   0.0000000000000E+00
(PID.TID 0000.0001) %MON surfExpanfCoriCos_mean       =   0.0000000000000E+00
(PID.TID 0000.0001) %MON surfExpanfCoriCos_sd         =   0.0000000000000E+00
(PID.TID 0000.0001) INI_CG2D: CG2D normalisation factor =  1.9999999999999996E-04
(PID.TID 0000.0001) 
                     ctrl_depth_ini: ctrl update R_low,
                                     adding the control vector.
(PID.TID 0000.0001)  MDS_READ_FIELD: opening file: xx_depth.0000000000.001.001.data
(PID.TID 0000.0001) // =======================================================
(PID.TID 0000.0001) // Field Model Ro_surf (update_masks_etc) at iteration          1
(PID.TID 0000.0001) // CMIN =          1.000000000000000E+32
(PID.TID 0000.0001) // CMAX =         -1.000000000000000E+32
(PID.TID 0000.0001) // CINT =          0.000000000000000E+00
(PID.TID 0000.0001) // SYMBOLS (CMIN->CMAX): -abcdefghijklmnopqrstuvwxyz+
(PID.TID 0000.0001) //                  0.0: .
(PID.TID 0000.0001) // RANGE I (Lo:Hi:Step):(  -1:   7:   1)
(PID.TID 0000.0001) // RANGE J (Lo:Hi:Step):(   7:  -1:  -1)
(PID.TID 0000.0001) // RANGE K (Lo:Hi:Step):(   1:   1:   1)
(PID.TID 0000.0001) // =======================================================
(PID.TID 0000.0001) // =======================================================
(PID.TID 0000.0001) // END OF FIELD                                          =
(PID.TID 0000.0001) // =======================================================
(PID.TID 0000.0001) 
(PID.TID 0000.0001) // =======================================================
(PID.TID 0000.0001) // Field hFacC at iteration          1
(PID.TID 0000.0001) // CMIN =          1.000000000000000E+00
(PID.TID 0000.0001) // CMAX =          1.000000000000000E+00
(PID.TID 0000.0001) // CINT =          0.000000000000000E+00
(PID.TID 0000.0001) // SYMBOLS (CMIN->CMAX): -abcdefghijklmnopqrstuvwxyz+
(PID.TID 0000.0001) //                  0.0: .
(PID.TID 0000.0001) // RANGE I (Lo:Hi:Step):(  -1:   7:   1)
(PID.TID 0000.0001) // RANGE J (Lo:Hi:Step):(   7:  -1:  -1)
(PID.TID 0000.0001) // RANGE K (Lo:Hi:Step):(   1:   1:   1)
(PID.TID 0000.0001) // =======================================================
(PID.TID 0000.0001) // =======================================================
(PID.TID 0000.0001) // END OF FIELD                                          =
(PID.TID 0000.0001) // =======================================================
(PID.TID 0000.0001) 
(PID.TID 0000.0001) // =======================================================
(PID.TID 0000.0001) // Field hFacW at iteration          1
(PID.TID 0000.0001) // CMIN =          1.000000000000000E+00
(PID.TID 0000.0001) // CMAX =          1.000000000000000E+00
(PID.TID 0000.0001) // CINT =          0.000000000000000E+00
(PID.TID 0000.0001) // SYMBOLS (CMIN->CMAX): -abcdefghijklmnopqrstuvwxyz+
(PID.TID 0000.0001) //                  0.0: .
(PID.TID 0000.0001) // RANGE I (Lo:Hi:Step):(  -1:   7:   1)
(PID.TID 0000.0001) // RANGE J (Lo:Hi:Step):(   7:  -1:  -1)
(PID.TID 0000.0001) // RANGE K (Lo:Hi:Step):(   1:   1:   1)
(PID.TID 0000.0001) // =======================================================
(PID.TID 0000.0001) // =======================================================
(PID.TID 0000.0001) // END OF FIELD                                          =
(PID.TID 0000.0001) // =======================================================
(PID.TID 0000.0001) 
(PID.TID 0000.0001) // =======================================================
(PID.TID 0000.0001) // Field hFacS at iteration          1
(PID.TID 0000.0001) // CMIN =          1.000000000000000E+00
(PID.TID 0000.0001) // CMAX =          1.000000000000000E+00
(PID.TID 0000.0001) // CINT =          0.000000000000000E+00
(PID.TID 0000.0001) // SYMBOLS (CMIN->CMAX): -abcdefghijklmnopqrstuvwxyz+
(PID.TID 0000.0001) //                  0.0: .
(PID.TID 0000.0001) // RANGE I (Lo:Hi:Step):(  -1:   7:   1)
(PID.TID 0000.0001) // RANGE J (Lo:Hi:Step):(   7:  -1:  -1)
(PID.TID 0000.0001) // RANGE K (Lo:Hi:Step):(   1:   1:   1)
(PID.TID 0000.0001) // =======================================================
(PID.TID 0000.0001) // =======================================================
(PID.TID 0000.0001) // END OF FIELD                                          =
(PID.TID 0000.0001) // =======================================================
(PID.TID 0000.0001) 
(PID.TID 0000.0001) // =======================================================
(PID.TID 0000.0001) // Field Initial Temperature at iteration          1
(PID.TID 0000.0001) // CMIN =          4.000000000000000E+00
(PID.TID 0000.0001) // CMAX =          4.000000000000000E+00
(PID.TID 0000.0001) // CINT =          0.000000000000000E+00
(PID.TID 0000.0001) // SYMBOLS (CMIN->CMAX): -abcdefghijklmnopqrstuvwxyz+
(PID.TID 0000.0001) //                  0.0: .
(PID.TID 0000.0001) // RANGE I (Lo:Hi:Step):(   1:   5:   1)
(PID.TID 0000.0001) // RANGE J (Lo:Hi:Step):(   5:   1:  -1)
(PID.TID 0000.0001) // RANGE K (Lo:Hi:Step):(   1:   1:   1)
(PID.TID 0000.0001) // =======================================================
(PID.TID 0000.0001) // =======================================================
(PID.TID 0000.0001) // END OF FIELD                                          =
(PID.TID 0000.0001) // =======================================================
(PID.TID 0000.0001) 
(PID.TID 0000.0001) // =======================================================
(PID.TID 0000.0001) // Field Initial Salinity at iteration          1
(PID.TID 0000.0001) // CMIN =          3.500000000000000E+01
(PID.TID 0000.0001) // CMAX =          3.500000000000000E+01
(PID.TID 0000.0001) // CINT =          0.000000000000000E+00
(PID.TID 0000.0001) // SYMBOLS (CMIN->CMAX): -abcdefghijklmnopqrstuvwxyz+
(PID.TID 0000.0001) //                  0.0: .
(PID.TID 0000.0001) // RANGE I (Lo:Hi:Step):(   1:   5:   1)
(PID.TID 0000.0001) // RANGE J (Lo:Hi:Step):(   5:   1:  -1)
(PID.TID 0000.0001) // RANGE K (Lo:Hi:Step):(   1:   1:   1)
(PID.TID 0000.0001) // =======================================================
(PID.TID 0000.0001) // =======================================================
(PID.TID 0000.0001) // END OF FIELD                                          =
(PID.TID 0000.0001) // =======================================================
(PID.TID 0000.0001) 
(PID.TID 0000.0001) Start initial hydrostatic pressure computation
(PID.TID 0000.0001) Pressure is predetermined for buoyancyRelation OCEANIC
(PID.TID 0000.0001) 
(PID.TID 0000.0001)  MDS_READ_FIELD: opening global file: windx.sin_y
(PID.TID 0000.0001) // =======================================================
(PID.TID 0000.0001) // Model current state
(PID.TID 0000.0001) // =======================================================
(PID.TID 0000.0001) 
 cg2d: Sum(rhs),rhsMax =   0.00000000000000E+00  0.00000000000000E+00
 cg2d: Sum(rhs),rhsMax =  -2.49999999999996E+01  6.03492218443698E-05
 cg2d: Sum(rhs),rhsMax =  -1.81034404639062E+01  2.18766023587219E-04
 cg2d: Sum(rhs),rhsMax =  -1.54955562832148E+01  4.32479836297446E-04
 cg2d: Sum(rhs),rhsMax =  -1.41111452329382E+01  6.49958988323895E-04
 cg2d: Sum(rhs),rhsMax =  -1.31144322332473E+01  8.30737102829552E-04
 cg2d: Sum(rhs),rhsMax =  -1.21209090325454E+01  9.52510661966011E-04
 cg2d: Sum(rhs),rhsMax =  -1.07124742370909E+01  1.02806631164608E-03
 cg2d: Sum(rhs),rhsMax =  -7.41375936671926E+00  1.27086596333623E-03
 cg2d: Sum(rhs),rhsMax =  -4.70217533459046E+00  1.51019014093746E-03
 cg2d: Sum(rhs),rhsMax =  -2.72440685929273E+00  1.65833738310676E-03
 cg2d: Sum(rhs),rhsMax =  -1.27958669046203E+00  1.70565508828866E-03
 cg2d: Sum(rhs),rhsMax =  -3.29564699107640E-01  1.66071960618434E-03
 cg2d: Sum(rhs),rhsMax =   5.21320407694198E-02  1.54812756168059E-03
 cg2d: Sum(rhs),rhsMax =  -2.86625374184018E-01  1.40338816107196E-03
 cg2d: Sum(rhs),rhsMax =  -1.30315843335509E+00  1.44268599693483E-03
 cg2d: Sum(rhs),rhsMax =  -2.68067690269472E+00  1.50836886626952E-03
 cg2d: Sum(rhs),rhsMax =  -4.07407453351516E+00  1.58424366899592E-03
 cg2d: Sum(rhs),rhsMax =  -5.18272347999254E+00  1.66593592847710E-03
 cg2d: Sum(rhs),rhsMax =  -5.80990598333209E+00  1.74846175334613E-03
 cg2d: Sum(rhs),rhsMax =  -5.87740627643450E+00  1.82725971158604E-03
 cg2d: Sum(rhs),rhsMax =  -5.41358311459210E+00  1.89900434637564E-03
 cg2d: Sum(rhs),rhsMax =  -4.53080676858214E+00  1.96213934493600E-03
 cg2d: Sum(rhs),rhsMax =  -3.22587898894383E+00  2.12611202707130E-03
 cg2d: Sum(rhs),rhsMax =  -2.04447211867574E+00  2.24837953859499E-03
 cg2d: Sum(rhs),rhsMax =  -1.10818137285509E+00  2.30404049268765E-03
 cg2d: Sum(rhs),rhsMax =  -4.90484880677516E-01  2.29576532517423E-03
 cg2d: Sum(rhs),rhsMax =  -2.61247064245769E-01  2.23814842272763E-03
 cg2d: Sum(rhs),rhsMax =  -4.50921969064862E-01  2.26266906944458E-03
 cg2d: Sum(rhs),rhsMax =  -1.00469610659767E+00  2.31946123031135E-03
 cg2d: Sum(rhs),rhsMax =  -1.78565331439583E+00  2.37599941563500E-03
 cg2d: Sum(rhs),rhsMax =  -2.62429308859697E+00  2.42805543374810E-03
 cg2d: Sum(rhs),rhsMax =  -3.35748486753200E+00  2.47123044973885E-03
 cg2d: Sum(rhs),rhsMax =  -3.85508917934489E+00  2.50195598245283E-03
 cg2d: Sum(rhs),rhsMax =  -4.03589978328130E+00  2.51830322423954E-03
 cg2d: Sum(rhs),rhsMax =  -3.87512848289051E+00  2.52047518959261E-03
 cg2d: Sum(rhs),rhsMax =  -3.40600368906372E+00  2.51092921620479E-03
 cg2d: Sum(rhs),rhsMax =  -2.61682443393088E+00  2.58874087268727E-03
 cg2d: Sum(rhs),rhsMax =  -1.83238712248178E+00  2.61669729890467E-03
 cg2d: Sum(rhs),rhsMax =  -1.17513338224219E+00  2.56005946137927E-03
 cg2d: Sum(rhs),rhsMax =  -7.11994618635023E-01  2.47855830174332E-03
 cg2d: Sum(rhs),rhsMax =  -5.26422152569731E-01  2.47042092449032E-03
 cg2d: Sum(rhs),rhsMax =  -6.78930216806396E-01  2.49676870231715E-03
 cg2d: Sum(rhs),rhsMax =  -1.12673722389547E+00  2.53652611350357E-03
 cg2d: Sum(rhs),rhsMax =  -1.75981625926799E+00  2.58504763731351E-03
 cg2d: Sum(rhs),rhsMax =  -2.43940636538831E+00  2.63568090116403E-03
 cg2d: Sum(rhs),rhsMax =  -3.03203010354823E+00  2.68092813640332E-03
 cg2d: Sum(rhs),rhsMax =  -3.40991311949318E+00  2.73286304347455E-03
 cg2d: Sum(rhs),rhsMax =  -3.48046023319316E+00  2.80943922844253E-03
 cg2d: Sum(rhs),rhsMax =  -3.32063073154149E+00  2.84054009167888E-03
 cg2d: Sum(rhs),rhsMax =  -2.96079447646164E+00  2.82589058144722E-03
 cg2d: Sum(rhs),rhsMax =  -2.32992811118185E+00  2.92147975446501E-03
 cg2d: Sum(rhs),rhsMax =  -1.72242456226094E+00  2.94384963607548E-03
 cg2d: Sum(rhs),rhsMax =  -1.21221903711821E+00  2.89157780596224E-03
 cg2d: Sum(rhs),rhsMax =  -8.69698395382061E-01  2.78046458217730E-03
 cg2d: Sum(rhs),rhsMax =  -7.64867806114618E-01  2.63730950835104E-03
 cg2d: Sum(rhs),rhsMax =  -9.31747850288981E-01  2.54529703399371E-03
 cg2d: Sum(rhs),rhsMax =  -1.31074338978899E+00  2.59464768641866E-03
 cg2d: Sum(rhs),rhsMax =  -1.82960843294837E+00  2.67470088283934E-03
 cg2d: Sum(rhs),rhsMax =  -2.36415409366824E+00  2.77096212316573E-03
 cg2d: Sum(rhs),rhsMax =  -2.80794779639524E+00  2.86583706240170E-03
 cg2d: Sum(rhs),rhsMax =  -3.09076538107893E+00  2.94225354335314E-03
 cg2d: Sum(rhs),rhsMax =  -3.17911023998879E+00  2.98708407205467E-03
 cg2d: Sum(rhs),rhsMax =  -3.06968980844144E+00  2.99369702078955E-03
 cg2d: Sum(rhs),rhsMax =  -2.74200030746380E+00  3.00868116740836E-03
 cg2d: Sum(rhs),rhsMax =  -2.22987018565854E+00  3.08320497249431E-03
 cg2d: Sum(rhs),rhsMax =  -1.72892384487917E+00  3.09216603358448E-03
 cg2d: Sum(rhs),rhsMax =  -1.30661126501615E+00  3.03707924997350E-03
 cg2d: Sum(rhs),rhsMax =  -1.02724588020354E+00  2.93201255679617E-03
 cg2d: Sum(rhs),rhsMax =  -9.49612087513558E-01  2.80059569492858E-03
 cg2d: Sum(rhs),rhsMax =  -1.10546682098176E+00  2.68802012287816E-03
 cg2d: Sum(rhs),rhsMax =  -1.41911846425339E+00  2.73183504266055E-03
 cg2d: Sum(rhs),rhsMax =  -1.85263652911206E+00  2.80075124418938E-03
 cg2d: Sum(rhs),rhsMax =  -2.30607105902381E+00  2.88121984739567E-03
 cg2d: Sum(rhs),rhsMax =  -2.69038333694187E+00  2.95745898987217E-03
 cg2d: Sum(rhs),rhsMax =  -2.94313285708531E+00  3.01465310019430E-03
 cg2d: Sum(rhs),rhsMax =  -3.03123924581115E+00  3.04190026232575E-03
 cg2d: Sum(rhs),rhsMax =  -2.94785322947928E+00  3.03433140491981E-03
 cg2d: Sum(rhs),rhsMax =  -2.61356655725500E+00  3.10365979005298E-03
 cg2d: Sum(rhs),rhsMax =  -2.18161317866530E+00  3.16115505940284E-03
 cg2d: Sum(rhs),rhsMax =  -1.75526124176073E+00  3.15966314437850E-03
 cg2d: Sum(rhs),rhsMax =  -1.39603743738849E+00  3.10114913234582E-03
 cg2d: Sum(rhs),rhsMax =  -1.16177140348265E+00  2.99876546527130E-03
 cg2d: Sum(rhs),rhsMax =  -1.10293747452149E+00  2.87411084368448E-03
 cg2d: Sum(rhs),rhsMax =  -1.24975134392151E+00  2.75286355650172E-03
 cg2d: Sum(rhs),rhsMax =  -1.53840869901905E+00  2.75098216193618E-03
 cg2d: Sum(rhs),rhsMax =  -1.91301873573619E+00  2.81271668677027E-03
 cg2d: Sum(rhs),rhsMax =  -2.30705941996757E+00  2.88449380704791E-03
 cg2d: Sum(rhs),rhsMax =  -2.64297555067149E+00  2.95188725094529E-03
 cg2d: Sum(rhs),rhsMax =  -2.86495131562764E+00  3.00154118132562E-03
 cg2d: Sum(rhs),rhsMax =  -2.94238810879491E+00  3.02377925702455E-03
 cg2d: Sum(rhs),rhsMax =  -2.84207313041871E+00  3.04217208069302E-03
 cg2d: Sum(rhs),rhsMax =  -2.51902175691480E+00  3.13830806456618E-03
 cg2d: Sum(rhs),rhsMax =  -2.14123730145592E+00  3.18959325050993E-03
 cg2d: Sum(rhs),rhsMax =  -1.76835918942364E+00  3.18714934103590E-03
 cg2d: Sum(rhs),rhsMax =  -1.45590349623734E+00  3.13272231112658E-03
 cg2d: Sum(rhs),rhsMax =  -1.25508070799662E+00  3.03818419321665E-03
 cg2d: Sum(rhs),rhsMax =  -1.20874903845213E+00  2.92305994256510E-03
 cg2d: Sum(rhs),rhsMax =  -1.34034310485809E+00  2.81059308620858E-03
 cg2d: Sum(rhs),rhsMax =  -1.62624331691312E+00  2.74190572464606E-03
(PID.TID 0000.0001) %CHECKPOINT       100 ckptA
 --> objf_test(bi,bj)   =  0.509071979902221E-01
 --> objf_tracer(bi,bj) =  0.000000000000000E+00
 --> objf_atl(bi,bj)    =  0.000000000000000E+00
  local fc =  0.509071979902221E-01
 global fc =  0.509071979902221E-01
 ph-check fcpertplus =   0.050907198
(PID.TID 0000.0001)  MDS_READ_FIELD: opening file: xx_depth.0000000000.001.001.data
 ph-check fcpertminus =   0.0509071982
(PID.TID 0000.0001)  MDS_READ_FIELD: opening file: xx_depth.0000000000.001.001.data
(PID.TID 0000.0001)  MDS_READ_FIELD: opening global file: noWalls.bigRidge
(PID.TID 0000.0001) // =======================================================
(PID.TID 0000.0001) // Field Model R_low (ini_masks_etc) at iteration          1
(PID.TID 0000.0001) // CMIN =         -5.000000000000000E+03
(PID.TID 0000.0001) // CMAX =         -2.000000000000000E+03
(PID.TID 0000.0001) // CINT =          1.111111111111111E+02
(PID.TID 0000.0001) // SYMBOLS (CMIN->CMAX): -abcdefghijklmnopqrstuvwxyz+
(PID.TID 0000.0001) //                  0.0: .
(PID.TID 0000.0001) // RANGE I (Lo:Hi:Step):(  -1:   7:   1)
(PID.TID 0000.0001) // RANGE J (Lo:Hi:Step):(   7:  -1:  -1)
(PID.TID 0000.0001) // RANGE K (Lo:Hi:Step):(   1:   1:   1)
(PID.TID 0000.0001) // =======================================================
(PID.TID 0000.0001) K =   1
(PID.TID 0000.0001) //
(PID.TID 0000.0001) // |--J--|101234567
(PID.TID 0000.0001) //      7 ----+----
(PID.TID 0000.0001) //      6 ----+----
(PID.TID 0000.0001) //      5 ----+----
(PID.TID 0000.0001) //      4 ----+----
(PID.TID 0000.0001) //      3 ----+----
(PID.TID 0000.0001) //      2 ----+----
(PID.TID 0000.0001) //      1 ----+----
(PID.TID 0000.0001) //      0 ----+----
(PID.TID 0000.0001) //     -1 ----+----
(PID.TID 0000.0001) // =======================================================
(PID.TID 0000.0001) // END OF FIELD                                          =
(PID.TID 0000.0001) // =======================================================
(PID.TID 0000.0001) 
(PID.TID 0000.0001) // =======================================================
(PID.TID 0000.0001) // Field Model Ro_surf (ini_masks_etc) at iteration          1
(PID.TID 0000.0001) // CMIN =          1.000000000000000E+32
(PID.TID 0000.0001) // CMAX =         -1.000000000000000E+32
(PID.TID 0000.0001) // CINT =          0.000000000000000E+00
(PID.TID 0000.0001) // SYMBOLS (CMIN->CMAX): -abcdefghijklmnopqrstuvwxyz+
(PID.TID 0000.0001) //                  0.0: .
(PID.TID 0000.0001) // RANGE I (Lo:Hi:Step):(  -1:   7:   1)
(PID.TID 0000.0001) // RANGE J (Lo:Hi:Step):(   7:  -1:  -1)
(PID.TID 0000.0001) // RANGE K (Lo:Hi:Step):(   1:   1:   1)
(PID.TID 0000.0001) // =======================================================
(PID.TID 0000.0001) // =======================================================
(PID.TID 0000.0001) // END OF FIELD                                          =
(PID.TID 0000.0001) // =======================================================
(PID.TID 0000.0001) 
(PID.TID 0000.0001) // =======================================================
(PID.TID 0000.0001) // Field hFacC at iteration          1
(PID.TID 0000.0001) // CMIN =          1.000000000000000E+00
(PID.TID 0000.0001) // CMAX =          1.000000000000000E+00
(PID.TID 0000.0001) // CINT =          0.000000000000000E+00
(PID.TID 0000.0001) // SYMBOLS (CMIN->CMAX): -abcdefghijklmnopqrstuvwxyz+
(PID.TID 0000.0001) //                  0.0: .
(PID.TID 0000.0001) // RANGE I (Lo:Hi:Step):(  -1:   7:   1)
(PID.TID 0000.0001) // RANGE J (Lo:Hi:Step):(   7:  -1:  -1)
(PID.TID 0000.0001) // RANGE K (Lo:Hi:Step):(   1:   1:   1)
(PID.TID 0000.0001) // =======================================================
(PID.TID 0000.0001) // =======================================================
(PID.TID 0000.0001) // END OF FIELD                                          =
(PID.TID 0000.0001) // =======================================================
(PID.TID 0000.0001) 
(PID.TID 0000.0001) // =======================================================
(PID.TID 0000.0001) // Field hFacW at iteration          1
(PID.TID 0000.0001) // CMIN =          1.000000000000000E+00
(PID.TID 0000.0001) // CMAX =          1.000000000000000E+00
(PID.TID 0000.0001) // CINT =          0.000000000000000E+00
(PID.TID 0000.0001) // SYMBOLS (CMIN->CMAX): -abcdefghijklmnopqrstuvwxyz+
(PID.TID 0000.0001) //                  0.0: .
(PID.TID 0000.0001) // RANGE I (Lo:Hi:Step):(  -1:   7:   1)
(PID.TID 0000.0001) // RANGE J (Lo:Hi:Step):(   7:  -1:  -1)
(PID.TID 0000.0001) // RANGE K (Lo:Hi:Step):(   1:   1:   1)
(PID.TID 0000.0001) // =======================================================
(PID.TID 0000.0001) // =======================================================
(PID.TID 0000.0001) // END OF FIELD                                          =
(PID.TID 0000.0001) // =======================================================
(PID.TID 0000.0001) 
(PID.TID 0000.0001) // =======================================================
(PID.TID 0000.0001) // Field hFacS at iteration          1
(PID.TID 0000.0001) // CMIN =          1.000000000000000E+00
(PID.TID 0000.0001) // CMAX =          1.000000000000000E+00
(PID.TID 0000.0001) // CINT =          0.000000000000000E+00
(PID.TID 0000.0001) // SYMBOLS (CMIN->CMAX): -abcdefghijklmnopqrstuvwxyz+
(PID.TID 0000.0001) //                  0.0: .
(PID.TID 0000.0001) // RANGE I (Lo:Hi:Step):(  -1:   7:   1)
(PID.TID 0000.0001) // RANGE J (Lo:Hi:Step):(   7:  -1:  -1)
(PID.TID 0000.0001) // RANGE K (Lo:Hi:Step):(   1:   1:   1)
(PID.TID 0000.0001) // =======================================================
(PID.TID 0000.0001) // =======================================================
(PID.TID 0000.0001) // END OF FIELD                                          =
(PID.TID 0000.0001) // =======================================================
(PID.TID 0000.0001) 
(PID.TID 0000.0001) %MON surfExpanfCori_max           =  -1.0735540000000E-04
(PID.TID 0000.0001) %MON surfExpanfCori_min           =  -1.1783060000000E-04
(PID.TID 0000.0001) %MON surfExpanfCori_mean          =  -1.1259300000000E-04
(PID.TID 0000.0001) %MON surfExpanfCori_sd            =   3.7035424771427E-06
(PID.TID 0000.0001) %MON surfExpanfCoriG_max          =  -1.0866480000000E-04
(PID.TID 0000.0001) %MON surfExpanfCoriG_min          =  -1.1914000000000E-04
(PID.TID 0000.0001) %MON surfExpanfCoriG_mean         =  -1.1390240000000E-04
(PID.TID 0000.0001) %MON surfExpanfCoriG_sd           =   3.7035424771427E-06
(PID.TID 0000.0001) %MON surfExpanfCoriCos_max        =   0.0000000000000E+00
(PID.TID 0000.0001) %MON surfExpanfCoriCos_min        =   0.0000000000000E+00
(PID.TID 0000.0001) %MON surfExpanfCoriCos_mean       =   0.0000000000000E+00
(PID.TID 0000.0001) %MON surfExpanfCoriCos_sd         =   0.0000000000000E+00
(PID.TID 0000.0001) INI_CG2D: CG2D normalisation factor =  1.9999999999999996E-04
(PID.TID 0000.0001) 
                     ctrl_depth_ini: ctrl update R_low,
                                     adding the control vector.
(PID.TID 0000.0001)  MDS_READ_FIELD: opening file: xx_depth.0000000000.001.001.data
(PID.TID 0000.0001) // =======================================================
(PID.TID 0000.0001) // Field Model Ro_surf (update_masks_etc) at iteration          1
(PID.TID 0000.0001) // CMIN =          1.000000000000000E+32
(PID.TID 0000.0001) // CMAX =         -1.000000000000000E+32
(PID.TID 0000.0001) // CINT =          0.000000000000000E+00
(PID.TID 0000.0001) // SYMBOLS (CMIN->CMAX): -abcdefghijklmnopqrstuvwxyz+
(PID.TID 0000.0001) //                  0.0: .
(PID.TID 0000.0001) // RANGE I (Lo:Hi:Step):(  -1:   7:   1)
(PID.TID 0000.0001) // RANGE J (Lo:Hi:Step):(   7:  -1:  -1)
(PID.TID 0000.0001) // RANGE K (Lo:Hi:Step):(   1:   1:   1)
(PID.TID 0000.0001) // =======================================================
(PID.TID 0000.0001) // =======================================================
(PID.TID 0000.0001) // END OF FIELD                                          =
(PID.TID 0000.0001) // =======================================================
(PID.TID 0000.0001) 
(PID.TID 0000.0001) // =======================================================
(PID.TID 0000.0001) // Field hFacC at iteration          1
(PID.TID 0000.0001) // CMIN =          1.000000000000000E+00
(PID.TID 0000.0001) // CMAX =          1.000000000000000E+00
(PID.TID 0000.0001) // CINT =          0.000000000000000E+00
(PID.TID 0000.0001) // SYMBOLS (CMIN->CMAX): -abcdefghijklmnopqrstuvwxyz+
(PID.TID 0000.0001) //                  0.0: .
(PID.TID 0000.0001) // RANGE I (Lo:Hi:Step):(  -1:   7:   1)
(PID.TID 0000.0001) // RANGE J (Lo:Hi:Step):(   7:  -1:  -1)
(PID.TID 0000.0001) // RANGE K (Lo:Hi:Step):(   1:   1:   1)
(PID.TID 0000.0001) // =======================================================
(PID.TID 0000.0001) // =======================================================
(PID.TID 0000.0001) // END OF FIELD                                          =
(PID.TID 0000.0001) // =======================================================
(PID.TID 0000.0001) 
(PID.TID 0000.0001) // =======================================================
(PID.TID 0000.0001) // Field hFacW at iteration          1
(PID.TID 0000.0001) // CMIN =          1.000000000000000E+00
(PID.TID 0000.0001) // CMAX =          1.000000000000000E+00
(PID.TID 0000.0001) // CINT =          0.000000000000000E+00
(PID.TID 0000.0001) // SYMBOLS (CMIN->CMAX): -abcdefghijklmnopqrstuvwxyz+
(PID.TID 0000.0001) //                  0.0: .
(PID.TID 0000.0001) // RANGE I (Lo:Hi:Step):(  -1:   7:   1)
(PID.TID 0000.0001) // RANGE J (Lo:Hi:Step):(   7:  -1:  -1)
(PID.TID 0000.0001) // RANGE K (Lo:Hi:Step):(   1:   1:   1)
(PID.TID 0000.0001) // =======================================================
(PID.TID 0000.0001) // =======================================================
(PID.TID 0000.0001) // END OF FIELD                                          =
(PID.TID 0000.0001) // =======================================================
(PID.TID 0000.0001) 
(PID.TID 0000.0001) // =======================================================
(PID.TID 0000.0001) // Field hFacS at iteration          1
(PID.TID 0000.0001) // CMIN =          1.000000000000000E+00
(PID.TID 0000.0001) // CMAX =          1.000000000000000E+00
(PID.TID 0000.0001) // CINT =          0.000000000000000E+00
(PID.TID 0000.0001) // SYMBOLS (CMIN->CMAX): -abcdefghijklmnopqrstuvwxyz+
(PID.TID 0000.0001) //                  0.0: .
(PID.TID 0000.0001) // RANGE I (Lo:Hi:Step):(  -1:   7:   1)
(PID.TID 0000.0001) // RANGE J (Lo:Hi:Step):(   7:  -1:  -1)
(PID.TID 0000.0001) // RANGE K (Lo:Hi:Step):(   1:   1:   1)
(PID.TID 0000.0001) // =======================================================
(PID.TID 0000.0001) // =======================================================
(PID.TID 0000.0001) // END OF FIELD                                          =
(PID.TID 0000.0001) // =======================================================
(PID.TID 0000.0001) 
(PID.TID 0000.0001) // =======================================================
(PID.TID 0000.0001) // Field Initial Temperature at iteration          1
(PID.TID 0000.0001) // CMIN =          4.000000000000000E+00
(PID.TID 0000.0001) // CMAX =          4.000000000000000E+00
(PID.TID 0000.0001) // CINT =          0.000000000000000E+00
(PID.TID 0000.0001) // SYMBOLS (CMIN->CMAX): -abcdefghijklmnopqrstuvwxyz+
(PID.TID 0000.0001) //                  0.0: .
(PID.TID 0000.0001) // RANGE I (Lo:Hi:Step):(   1:   5:   1)
(PID.TID 0000.0001) // RANGE J (Lo:Hi:Step):(   5:   1:  -1)
(PID.TID 0000.0001) // RANGE K (Lo:Hi:Step):(   1:   1:   1)
(PID.TID 0000.0001) // =======================================================
(PID.TID 0000.0001) // =======================================================
(PID.TID 0000.0001) // END OF FIELD                                          =
(PID.TID 0000.0001) // =======================================================
(PID.TID 0000.0001) 
(PID.TID 0000.0001) // =======================================================
(PID.TID 0000.0001) // Field Initial Salinity at iteration          1
(PID.TID 0000.0001) // CMIN =          3.500000000000000E+01
(PID.TID 0000.0001) // CMAX =          3.500000000000000E+01
(PID.TID 0000.0001) // CINT =          0.000000000000000E+00
(PID.TID 0000.0001) // SYMBOLS (CMIN->CMAX): -abcdefghijklmnopqrstuvwxyz+
(PID.TID 0000.0001) //                  0.0: .
(PID.TID 0000.0001) // RANGE I (Lo:Hi:Step):(   1:   5:   1)
(PID.TID 0000.0001) // RANGE J (Lo:Hi:Step):(   5:   1:  -1)
(PID.TID 0000.0001) // RANGE K (Lo:Hi:Step):(   1:   1:   1)
(PID.TID 0000.0001) // =======================================================
(PID.TID 0000.0001) // =======================================================
(PID.TID 0000.0001) // END OF FIELD                                          =
(PID.TID 0000.0001) // =======================================================
(PID.TID 0000.0001) 
(PID.TID 0000.0001) Start initial hydrostatic pressure computation
(PID.TID 0000.0001) Pressure is predetermined for buoyancyRelation OCEANIC
(PID.TID 0000.0001) 
(PID.TID 0000.0001)  MDS_READ_FIELD: opening global file: windx.sin_y
(PID.TID 0000.0001) // =======================================================
(PID.TID 0000.0001) // Model current state
(PID.TID 0000.0001) // =======================================================
(PID.TID 0000.0001) 
 cg2d: Sum(rhs),rhsMax =   0.00000000000000E+00  0.00000000000000E+00
 cg2d: Sum(rhs),rhsMax =  -2.49999999999996E+01  6.03492218443698E-05
 cg2d: Sum(rhs),rhsMax =  -1.81034404639062E+01  2.18766023587219E-04
 cg2d: Sum(rhs),rhsMax =  -1.54955562832148E+01  4.32479836297446E-04
 cg2d: Sum(rhs),rhsMax =  -1.41111452329611E+01  6.49958988322930E-04
 cg2d: Sum(rhs),rhsMax =  -1.31144322332750E+01  8.30737102827225E-04
 cg2d: Sum(rhs),rhsMax =  -1.21209090325319E+01  9.52510661964595E-04
 cg2d: Sum(rhs),rhsMax =  -1.07124742373228E+01  1.02806631161806E-03
 cg2d: Sum(rhs),rhsMax =  -7.41375936659486E+00  1.27086596334520E-03
 cg2d: Sum(rhs),rhsMax =  -4.70217533451766E+00  1.51019014093870E-03
 cg2d: Sum(rhs),rhsMax =  -2.72440685926564E+00  1.65833738309344E-03
 cg2d: Sum(rhs),rhsMax =  -1.27958669048401E+00  1.70565508825402E-03
 cg2d: Sum(rhs),rhsMax =  -3.29564699197341E-01  1.66071960612346E-03
 cg2d: Sum(rhs),rhsMax =   5.21320405615258E-02  1.54812756159204E-03
 cg2d: Sum(rhs),rhsMax =  -2.86625374616932E-01  1.40338816095914E-03
 cg2d: Sum(rhs),rhsMax =  -1.30315843404849E+00  1.44268599682252E-03
 cg2d: Sum(rhs),rhsMax =  -2.68067690329366E+00  1.50836886635558E-03
 cg2d: Sum(rhs),rhsMax =  -4.07407453351561E+00  1.58424366933544E-03
 cg2d: Sum(rhs),rhsMax =  -5.18272347898598E+00  1.66593592910453E-03
 cg2d: Sum(rhs),rhsMax =  -5.80990598122933E+00  1.74846175426941E-03
 cg2d: Sum(rhs),rhsMax =  -5.87740627351660E+00  1.82725971278512E-03
 cg2d: Sum(rhs),rhsMax =  -5.41358311139360E+00  1.89900434780589E-03
 cg2d: Sum(rhs),rhsMax =  -4.53080676568880E+00  1.96213934653583E-03
 cg2d: Sum(rhs),rhsMax =  -3.22587898922580E+00  2.12611202733788E-03
 cg2d: Sum(rhs),rhsMax =  -2.04447211898892E+00  2.24837953892276E-03
 cg2d: Sum(rhs),rhsMax =  -1.10818137326333E+00  2.30404049306191E-03
 cg2d: Sum(rhs),rhsMax =  -4.90484881215076E-01  2.29576532557969E-03
 cg2d: Sum(rhs),rhsMax =  -2.61247064921105E-01  2.23814842315153E-03
 cg2d: Sum(rhs),rhsMax =  -4.50921969578192E-01  2.26266907112563E-03
 cg2d: Sum(rhs),rhsMax =  -1.00469610684296E+00  2.31946123203638E-03
 cg2d: Sum(rhs),rhsMax =  -1.78565331417923E+00  2.37599941745274E-03
 cg2d: Sum(rhs),rhsMax =  -2.62429308778614E+00  2.42805543570172E-03
 cg2d: Sum(rhs),rhsMax =  -3.35748486608472E+00  2.47123045185607E-03
 cg2d: Sum(rhs),rhsMax =  -3.85508917734362E+00  2.50195598473949E-03
 cg2d: Sum(rhs),rhsMax =  -4.03589978094463E+00  2.51830322667777E-03
 cg2d: Sum(rhs),rhsMax =  -3.87512848054034E+00  2.52047519214400E-03
 cg2d: Sum(rhs),rhsMax =  -3.40600368704826E+00  2.51092921881767E-03
 cg2d: Sum(rhs),rhsMax =  -2.61682443233892E+00  2.58874087564127E-03
 cg2d: Sum(rhs),rhsMax =  -1.83238712152953E+00  2.61669730207289E-03
 cg2d: Sum(rhs),rhsMax =  -1.17513338195585E+00  2.56005946455445E-03
 cg2d: Sum(rhs),rhsMax =  -7.11994619355680E-01  2.47855830303327E-03
 cg2d: Sum(rhs),rhsMax =  -5.26422153069062E-01  2.47042092682751E-03
 cg2d: Sum(rhs),rhsMax =  -6.78930217102420E-01  2.49676870460163E-03
 cg2d: Sum(rhs),rhsMax =  -1.12673722374713E+00  2.53652611577018E-03
 cg2d: Sum(rhs),rhsMax =  -1.75981625852681E+00  2.58504763959665E-03
 cg2d: Sum(rhs),rhsMax =  -2.43940636400496E+00  2.63568090348839E-03
 cg2d: Sum(rhs),rhsMax =  -3.03203010157102E+00  2.68092813877720E-03
 cg2d: Sum(rhs),rhsMax =  -3.40991311758467E+00  2.73286304549504E-03
 cg2d: Sum(rhs),rhsMax =  -3.48046023152309E+00  2.80943923016890E-03
 cg2d: Sum(rhs),rhsMax =  -3.32063073021784E+00  2.84054009305218E-03
 cg2d: Sum(rhs),rhsMax =  -2.96079447550541E+00  2.82589058239990E-03
 cg2d: Sum(rhs),rhsMax =  -2.32992811092102E+00  2.92147975448380E-03
 cg2d: Sum(rhs),rhsMax =  -1.72242456165633E+00  2.94384963613077E-03
 cg2d: Sum(rhs),rhsMax =  -1.21221903617671E+00  2.89157780594195E-03
 cg2d: Sum(rhs),rhsMax =  -8.69698394062807E-01  2.78046458194521E-03
 cg2d: Sum(rhs),rhsMax =  -7.64867804377721E-01  2.63730950777184E-03
 cg2d: Sum(rhs),rhsMax =  -9.31747848551131E-01  2.54529703209811E-03
 cg2d: Sum(rhs),rhsMax =  -1.31074338804222E+00  2.59464768425891E-03
 cg2d: Sum(rhs),rhsMax =  -1.82960843135234E+00  2.67470088049680E-03
 cg2d: Sum(rhs),rhsMax =  -2.36415409224777E+00  2.77096212069085E-03
 cg2d: Sum(rhs),rhsMax =  -2.80794779507435E+00  2.86583705980051E-03
 cg2d: Sum(rhs),rhsMax =  -3.09076537974387E+00  2.94225354058212E-03
 cg2d: Sum(rhs),rhsMax =  -3.17911023851843E+00  2.98708406902547E-03
 cg2d: Sum(rhs),rhsMax =  -3.06968980669208E+00  2.99369701738303E-03
 cg2d: Sum(rhs),rhsMax =  -2.74200030530381E+00  3.00868116339215E-03
 cg2d: Sum(rhs),rhsMax =  -2.22987018236096E+00  3.08320496832482E-03
 cg2d: Sum(rhs),rhsMax =  -1.72892384035573E+00  3.09216602921897E-03
 cg2d: Sum(rhs),rhsMax =  -1.30661125920700E+00  3.03707924533968E-03
 cg2d: Sum(rhs),rhsMax =  -1.02724587310822E+00  2.93201255180796E-03
 cg2d: Sum(rhs),rhsMax =  -9.49612079281360E-01  2.80059568950429E-03
 cg2d: Sum(rhs),rhsMax =  -1.10546681279251E+00  2.68802011518075E-03
 cg2d: Sum(rhs),rhsMax =  -1.41911845638069E+00  2.73183503464891E-03
 cg2d: Sum(rhs),rhsMax =  -1.85263652193085E+00  2.80075123600276E-03
 cg2d: Sum(rhs),rhsMax =  -2.30607105253088E+00  2.88121983913821E-03
 cg2d: Sum(rhs),rhsMax =  -2.69038333084342E+00  2.95745898159376E-03
 cg2d: Sum(rhs),rhsMax =  -2.94313285094621E+00  3.01465309188156E-03
 cg2d: Sum(rhs),rhsMax =  -3.03123923916069E+00  3.04190025390492E-03
 cg2d: Sum(rhs),rhsMax =  -2.94785322184580E+00  3.03433139627093E-03
 cg2d: Sum(rhs),rhsMax =  -2.61356654800662E+00  3.10365978126540E-03
 cg2d: Sum(rhs),rhsMax =  -2.18161316756093E+00  3.16115505038598E-03
 cg2d: Sum(rhs),rhsMax =  -1.75526122859578E+00  3.15966313506624E-03
 cg2d: Sum(rhs),rhsMax =  -1.39603742203534E+00  3.10114912264957E-03
 cg2d: Sum(rhs),rhsMax =  -1.16177138595872E+00  2.99876545509688E-03
 cg2d: Sum(rhs),rhsMax =  -1.10293745512273E+00  2.87411083295054E-03
 cg2d: Sum(rhs),rhsMax =  -1.24975132334889E+00  2.75286354515592E-03
 cg2d: Sum(rhs),rhsMax =  -1.53840867939254E+00  2.75098214890535E-03
 cg2d: Sum(rhs),rhsMax =  -1.91301871729360E+00  2.81271667348500E-03
 cg2d: Sum(rhs),rhsMax =  -2.30705940277593E+00  2.88449379361215E-03
 cg2d: Sum(rhs),rhsMax =  -2.64297553434186E+00  2.95188723741799E-03
 cg2d: Sum(rhs),rhsMax =  -2.86495129949930E+00  3.00154116771088E-03
 cg2d: Sum(rhs),rhsMax =  -2.94238809208971E+00  3.02377924327309E-03
 cg2d: Sum(rhs),rhsMax =  -2.84207311265137E+00  3.04217206641491E-03
 cg2d: Sum(rhs),rhsMax =  -2.51902173716272E+00  3.13830805012467E-03
 cg2d: Sum(rhs),rhsMax =  -2.14123727925005E+00  3.18959323587899E-03
 cg2d: Sum(rhs),rhsMax =  -1.76835916443538E+00  3.18714932614908E-03
 cg2d: Sum(rhs),rhsMax =  -1.45590346828043E+00  3.13272229588917E-03
 cg2d: Sum(rhs),rhsMax =  -1.25508067711329E+00  3.03818417752345E-03
 cg2d: Sum(rhs),rhsMax =  -1.20874900506459E+00  2.92305992632014E-03
 cg2d: Sum(rhs),rhsMax =  -1.34034306989414E+00  2.81059306934327E-03
 cg2d: Sum(rhs),rhsMax =  -1.62624328200218E+00  2.74190570696901E-03
(PID.TID 0000.0001) %CHECKPOINT       100 ckptB
 --> objf_test(bi,bj)   =  0.509071984220809E-01
 --> objf_tracer(bi,bj) =  0.000000000000000E+00
 --> objf_atl(bi,bj)    =  0.000000000000000E+00
  local fc =  0.509071984220809E-01
 global fc =  0.509071984220809E-01
(PID.TID 0000.0001)  MDS_READ_FIELD: opening file: xx_depth.0000000000.001.001.data
grad-res -------------------------------
 grad-res     0   15    5    3    1    1    1    1   0.509071982062E-01 0.509071979902E-01 0.509071984221E-01
 grad-res     0   15   15   15   25    1    1    1   -.215910802957E-05 -.215929392422E-05 -.860978934121E-04
(PID.TID 0000.0001)   ADM  precision_derivative_cost =    5.09071982061515E-02
(PID.TID 0000.0001)   ADM  precision_derivative_grad =   -2.15910802956688E-06
 ph-grd  ierr ---------------------------
 ph-grd  ierr =  0, icomp =  15, ichknum =  15
 ph-grd -->hit<--  1 4 1 1
(PID.TID 0000.0001)  MDS_READ_FIELD: opening file: adxx_depth.0000000000.001.001.data
(PID.TID 0000.0001)  MDS_READ_FIELD: opening file: xx_depth.0000000000.001.001.data
(PID.TID 0000.0001)  MDS_READ_FIELD: opening global file: noWalls.bigRidge
(PID.TID 0000.0001) // =======================================================
(PID.TID 0000.0001) // Field Model R_low (ini_masks_etc) at iteration          1
(PID.TID 0000.0001) // CMIN =         -5.000000000000000E+03
(PID.TID 0000.0001) // CMAX =         -2.000000000000000E+03
(PID.TID 0000.0001) // CINT =          1.111111111111111E+02
(PID.TID 0000.0001) // SYMBOLS (CMIN->CMAX): -abcdefghijklmnopqrstuvwxyz+
(PID.TID 0000.0001) //                  0.0: .
(PID.TID 0000.0001) // RANGE I (Lo:Hi:Step):(  -1:   7:   1)
(PID.TID 0000.0001) // RANGE J (Lo:Hi:Step):(   7:  -1:  -1)
(PID.TID 0000.0001) // RANGE K (Lo:Hi:Step):(   1:   1:   1)
(PID.TID 0000.0001) // =======================================================
(PID.TID 0000.0001) K =   1
(PID.TID 0000.0001) //
(PID.TID 0000.0001) // |--J--|101234567
(PID.TID 0000.0001) //      7 ----+----
(PID.TID 0000.0001) //      6 ----+----
(PID.TID 0000.0001) //      5 ----+----
(PID.TID 0000.0001) //      4 ----+----
(PID.TID 0000.0001) //      3 ----+----
(PID.TID 0000.0001) //      2 ----+----
(PID.TID 0000.0001) //      1 ----+----
(PID.TID 0000.0001) //      0 ----+----
(PID.TID 0000.0001) //     -1 ----+----
(PID.TID 0000.0001) // =======================================================
(PID.TID 0000.0001) // END OF FIELD                                          =
(PID.TID 0000.0001) // =======================================================
(PID.TID 0000.0001) 
(PID.TID 0000.0001) // =======================================================
(PID.TID 0000.0001) // Field Model Ro_surf (ini_masks_etc) at iteration          1
(PID.TID 0000.0001) // CMIN =          1.000000000000000E+32
(PID.TID 0000.0001) // CMAX =         -1.000000000000000E+32
(PID.TID 0000.0001) // CINT =          0.000000000000000E+00
(PID.TID 0000.0001) // SYMBOLS (CMIN->CMAX): -abcdefghijklmnopqrstuvwxyz+
(PID.TID 0000.0001) //                  0.0: .
(PID.TID 0000.0001) // RANGE I (Lo:Hi:Step):(  -1:   7:   1)
(PID.TID 0000.0001) // RANGE J (Lo:Hi:Step):(   7:  -1:  -1)
(PID.TID 0000.0001) // RANGE K (Lo:Hi:Step):(   1:   1:   1)
(PID.TID 0000.0001) // =======================================================
(PID.TID 0000.0001) // =======================================================
(PID.TID 0000.0001) // END OF FIELD                                          =
(PID.TID 0000.0001) // =======================================================
(PID.TID 0000.0001) 
(PID.TID 0000.0001) // =======================================================
(PID.TID 0000.0001) // Field hFacC at iteration          1
(PID.TID 0000.0001) // CMIN =          1.000000000000000E+00
(PID.TID 0000.0001) // CMAX =          1.000000000000000E+00
(PID.TID 0000.0001) // CINT =          0.000000000000000E+00
(PID.TID 0000.0001) // SYMBOLS (CMIN->CMAX): -abcdefghijklmnopqrstuvwxyz+
(PID.TID 0000.0001) //                  0.0: .
(PID.TID 0000.0001) // RANGE I (Lo:Hi:Step):(  -1:   7:   1)
(PID.TID 0000.0001) // RANGE J (Lo:Hi:Step):(   7:  -1:  -1)
(PID.TID 0000.0001) // RANGE K (Lo:Hi:Step):(   1:   1:   1)
(PID.TID 0000.0001) // =======================================================
(PID.TID 0000.0001) // =======================================================
(PID.TID 0000.0001) // END OF FIELD                                          =
(PID.TID 0000.0001) // =======================================================
(PID.TID 0000.0001) 
(PID.TID 0000.0001) // =======================================================
(PID.TID 0000.0001) // Field hFacW at iteration          1
(PID.TID 0000.0001) // CMIN =          1.000000000000000E+00
(PID.TID 0000.0001) // CMAX =          1.000000000000000E+00
(PID.TID 0000.0001) // CINT =          0.000000000000000E+00
(PID.TID 0000.0001) // SYMBOLS (CMIN->CMAX): -abcdefghijklmnopqrstuvwxyz+
(PID.TID 0000.0001) //                  0.0: .
(PID.TID 0000.0001) // RANGE I (Lo:Hi:Step):(  -1:   7:   1)
(PID.TID 0000.0001) // RANGE J (Lo:Hi:Step):(   7:  -1:  -1)
(PID.TID 0000.0001) // RANGE K (Lo:Hi:Step):(   1:   1:   1)
(PID.TID 0000.0001) // =======================================================
(PID.TID 0000.0001) // =======================================================
(PID.TID 0000.0001) // END OF FIELD                                          =
(PID.TID 0000.0001) // =======================================================
(PID.TID 0000.0001) 
(PID.TID 0000.0001) // =======================================================
(PID.TID 0000.0001) // Field hFacS at iteration          1
(PID.TID 0000.0001) // CMIN =          1.000000000000000E+00
(PID.TID 0000.0001) // CMAX =          1.000000000000000E+00
(PID.TID 0000.0001) // CINT =          0.000000000000000E+00
(PID.TID 0000.0001) // SYMBOLS (CMIN->CMAX): -abcdefghijklmnopqrstuvwxyz+
(PID.TID 0000.0001) //                  0.0: .
(PID.TID 0000.0001) // RANGE I (Lo:Hi:Step):(  -1:   7:   1)
(PID.TID 0000.0001) // RANGE J (Lo:Hi:Step):(   7:  -1:  -1)
(PID.TID 0000.0001) // RANGE K (Lo:Hi:Step):(   1:   1:   1)
(PID.TID 0000.0001) // =======================================================
(PID.TID 0000.0001) // =======================================================
(PID.TID 0000.0001) // END OF FIELD                                          =
(PID.TID 0000.0001) // =======================================================
(PID.TID 0000.0001) 
(PID.TID 0000.0001) %MON surfExpanfCori_max           =  -1.0735540000000E-04
(PID.TID 0000.0001) %MON surfExpanfCori_min           =  -1.1783060000000E-04
(PID.TID 0000.0001) %MON surfExpanfCori_mean          =  -1.1259300000000E-04
(PID.TID 0000.0001) %MON surfExpanfCori_sd            =   3.7035424771427E-06
(PID.TID 0000.0001) %MON surfExpanfCoriG_max          =  -1.0866480000000E-04
(PID.TID 0000.0001) %MON surfExpanfCoriG_min          =  -1.1914000000000E-04
(PID.TID 0000.0001) %MON surfExpanfCoriG_mean         =  -1.1390240000000E-04
(PID.TID 0000.0001) %MON surfExpanfCoriG_sd           =   3.7035424771427E-06
(PID.TID 0000.0001) %MON surfExpanfCoriCos_max        =   0.0000000000000E+00
(PID.TID 0000.0001) %MON surfExpanfCoriCos_min        =   0.0000000000000E+00
(PID.TID 0000.0001) %MON surfExpanfCoriCos_mean       =   0.0000000000000E+00
(PID.TID 0000.0001) %MON surfExpanfCoriCos_sd         =   0.0000000000000E+00
(PID.TID 0000.0001) INI_CG2D: CG2D normalisation factor =  1.9999999999999996E-04
(PID.TID 0000.0001) 
                     ctrl_depth_ini: ctrl update R_low,
                                     adding the control vector.
(PID.TID 0000.0001)  MDS_READ_FIELD: opening file: xx_depth.0000000000.001.001.data
(PID.TID 0000.0001) // =======================================================
(PID.TID 0000.0001) // Field Model Ro_surf (update_masks_etc) at iteration          1
(PID.TID 0000.0001) // CMIN =          1.000000000000000E+32
(PID.TID 0000.0001) // CMAX =         -1.000000000000000E+32
(PID.TID 0000.0001) // CINT =          0.000000000000000E+00
(PID.TID 0000.0001) // SYMBOLS (CMIN->CMAX): -abcdefghijklmnopqrstuvwxyz+
(PID.TID 0000.0001) //                  0.0: .
(PID.TID 0000.0001) // RANGE I (Lo:Hi:Step):(  -1:   7:   1)
(PID.TID 0000.0001) // RANGE J (Lo:Hi:Step):(   7:  -1:  -1)
(PID.TID 0000.0001) // RANGE K (Lo:Hi:Step):(   1:   1:   1)
(PID.TID 0000.0001) // =======================================================
(PID.TID 0000.0001) // =======================================================
(PID.TID 0000.0001) // END OF FIELD                                          =
(PID.TID 0000.0001) // =======================================================
(PID.TID 0000.0001) 
(PID.TID 0000.0001) // =======================================================
(PID.TID 0000.0001) // Field hFacC at iteration          1
(PID.TID 0000.0001) // CMIN =          1.000000000000000E+00
(PID.TID 0000.0001) // CMAX =          1.000000000000000E+00
(PID.TID 0000.0001) // CINT =          0.000000000000000E+00
(PID.TID 0000.0001) // SYMBOLS (CMIN->CMAX): -abcdefghijklmnopqrstuvwxyz+
(PID.TID 0000.0001) //                  0.0: .
(PID.TID 0000.0001) // RANGE I (Lo:Hi:Step):(  -1:   7:   1)
(PID.TID 0000.0001) // RANGE J (Lo:Hi:Step):(   7:  -1:  -1)
(PID.TID 0000.0001) // RANGE K (Lo:Hi:Step):(   1:   1:   1)
(PID.TID 0000.0001) // =======================================================
(PID.TID 0000.0001) // =======================================================
(PID.TID 0000.0001) // END OF FIELD                                          =
(PID.TID 0000.0001) // =======================================================
(PID.TID 0000.0001) 
(PID.TID 0000.0001) // =======================================================
(PID.TID 0000.0001) // Field hFacW at iteration          1
(PID.TID 0000.0001) // CMIN =          1.000000000000000E+00
(PID.TID 0000.0001) // CMAX =          1.000000000000000E+00
(PID.TID 0000.0001) // CINT =          0.000000000000000E+00
(PID.TID 0000.0001) // SYMBOLS (CMIN->CMAX): -abcdefghijklmnopqrstuvwxyz+
(PID.TID 0000.0001) //                  0.0: .
(PID.TID 0000.0001) // RANGE I (Lo:Hi:Step):(  -1:   7:   1)
(PID.TID 0000.0001) // RANGE J (Lo:Hi:Step):(   7:  -1:  -1)
(PID.TID 0000.0001) // RANGE K (Lo:Hi:Step):(   1:   1:   1)
(PID.TID 0000.0001) // =======================================================
(PID.TID 0000.0001) // =======================================================
(PID.TID 0000.0001) // END OF FIELD                                          =
(PID.TID 0000.0001) // =======================================================
(PID.TID 0000.0001) 
(PID.TID 0000.0001) // =======================================================
(PID.TID 0000.0001) // Field hFacS at iteration          1
(PID.TID 0000.0001) // CMIN =          1.000000000000000E+00
(PID.TID 0000.0001) // CMAX =          1.000000000000000E+00
(PID.TID 0000.0001) // CINT =          0.000000000000000E+00
(PID.TID 0000.0001) // SYMBOLS (CMIN->CMAX): -abcdefghijklmnopqrstuvwxyz+
(PID.TID 0000.0001) //                  0.0: .
(PID.TID 0000.0001) // RANGE I (Lo:Hi:Step):(  -1:   7:   1)
(PID.TID 0000.0001) // RANGE J (Lo:Hi:Step):(   7:  -1:  -1)
(PID.TID 0000.0001) // RANGE K (Lo:Hi:Step):(   1:   1:   1)
(PID.TID 0000.0001) // =======================================================
(PID.TID 0000.0001) // =======================================================
(PID.TID 0000.0001) // END OF FIELD                                          =
(PID.TID 0000.0001) // =======================================================
(PID.TID 0000.0001) 
(PID.TID 0000.0001) // =======================================================
(PID.TID 0000.0001) // Field Initial Temperature at iteration          1
(PID.TID 0000.0001) // CMIN =          4.000000000000000E+00
(PID.TID 0000.0001) // CMAX =          4.000000000000000E+00
(PID.TID 0000.0001) // CINT =          0.000000000000000E+00
(PID.TID 0000.0001) // SYMBOLS (CMIN->CMAX): -abcdefghijklmnopqrstuvwxyz+
(PID.TID 0000.0001) //                  0.0: .
(PID.TID 0000.0001) // RANGE I (Lo:Hi:Step):(   1:   5:   1)
(PID.TID 0000.0001) // RANGE J (Lo:Hi:Step):(   5:   1:  -1)
(PID.TID 0000.0001) // RANGE K (Lo:Hi:Step):(   1:   1:   1)
(PID.TID 0000.0001) // =======================================================
(PID.TID 0000.0001) // =======================================================
(PID.TID 0000.0001) // END OF FIELD                                          =
(PID.TID 0000.0001) // =======================================================
(PID.TID 0000.0001) 
(PID.TID 0000.0001) // =======================================================
(PID.TID 0000.0001) // Field Initial Salinity at iteration          1
(PID.TID 0000.0001) // CMIN =          3.500000000000000E+01
(PID.TID 0000.0001) // CMAX =          3.500000000000000E+01
(PID.TID 0000.0001) // CINT =          0.000000000000000E+00
(PID.TID 0000.0001) // SYMBOLS (CMIN->CMAX): -abcdefghijklmnopqrstuvwxyz+
(PID.TID 0000.0001) //                  0.0: .
(PID.TID 0000.0001) // RANGE I (Lo:Hi:Step):(   1:   5:   1)
(PID.TID 0000.0001) // RANGE J (Lo:Hi:Step):(   5:   1:  -1)
(PID.TID 0000.0001) // RANGE K (Lo:Hi:Step):(   1:   1:   1)
(PID.TID 0000.0001) // =======================================================
(PID.TID 0000.0001) // =======================================================
(PID.TID 0000.0001) // END OF FIELD                                          =
(PID.TID 0000.0001) // =======================================================
(PID.TID 0000.0001) 
(PID.TID 0000.0001) Start initial hydrostatic pressure computation
(PID.TID 0000.0001) Pressure is predetermined for buoyancyRelation OCEANIC
(PID.TID 0000.0001) 
(PID.TID 0000.0001)  MDS_READ_FIELD: opening global file: windx.sin_y
(PID.TID 0000.0001) // =======================================================
(PID.TID 0000.0001) // Model current state
(PID.TID 0000.0001) // =======================================================
(PID.TID 0000.0001) 
 cg2d: Sum(rhs),rhsMax =   0.00000000000000E+00  0.00000000000000E+00
 cg2d: Sum(rhs),rhsMax =  -2.49999999999996E+01  6.03492218443698E-05
 cg2d: Sum(rhs),rhsMax =  -1.81034404639062E+01  2.18766023587219E-04
 cg2d: Sum(rhs),rhsMax =  -1.54955562832148E+01  4.32479836297446E-04
 cg2d: Sum(rhs),rhsMax =  -1.41111452328566E+01  6.49958988327631E-04
 cg2d: Sum(rhs),rhsMax =  -1.31144322335799E+01  8.30737102808242E-04
 cg2d: Sum(rhs),rhsMax =  -1.21209090332938E+01  9.52510661906412E-04
 cg2d: Sum(rhs),rhsMax =  -1.07124742371565E+01  1.02806631163800E-03
 cg2d: Sum(rhs),rhsMax =  -7.41375936618052E+00  1.27086596342438E-03
 cg2d: Sum(rhs),rhsMax =  -4.70217533397700E+00  1.51019014112518E-03
 cg2d: Sum(rhs),rhsMax =  -2.72440685878156E+00  1.65833738339815E-03
 cg2d: Sum(rhs),rhsMax =  -1.27958669015955E+00  1.70565508864701E-03
 cg2d: Sum(rhs),rhsMax =  -3.29564699010420E-01  1.66071960652483E-03
 cg2d: Sum(rhs),rhsMax =   5.21320407780215E-02  1.54812756187310E-03
 cg2d: Sum(rhs),rhsMax =  -2.86625374226995E-01  1.40338816095475E-03
 cg2d: Sum(rhs),rhsMax =  -1.30315843358594E+00  1.44268599676142E-03
 cg2d: Sum(rhs),rhsMax =  -2.68067690301603E+00  1.50836886617174E-03
 cg2d: Sum(rhs),rhsMax =  -4.07407453370977E+00  1.58424366901250E-03
 cg2d: Sum(rhs),rhsMax =  -5.18272347982179E+00  1.66593592864133E-03
 cg2d: Sum(rhs),rhsMax =  -5.80990598267066E+00  1.74846175368142E-03
 cg2d: Sum(rhs),rhsMax =  -5.87740627534334E+00  1.82725971210281E-03
 cg2d: Sum(rhs),rhsMax =  -5.41358311330262E+00  1.89900434707045E-03
 cg2d: Sum(rhs),rhsMax =  -4.53080676741341E+00  1.96213934579269E-03
 cg2d: Sum(rhs),rhsMax =  -3.22587899631781E+00  2.12611202278766E-03
 cg2d: Sum(rhs),rhsMax =  -2.04447212316857E+00  2.24837953468941E-03
 cg2d: Sum(rhs),rhsMax =  -1.10818137550230E+00  2.30404048930830E-03
 cg2d: Sum(rhs),rhsMax =  -4.90484882395796E-01  2.29576532237201E-03
 cg2d: Sum(rhs),rhsMax =  -2.61247065748256E-01  2.23814842044641E-03
 cg2d: Sum(rhs),rhsMax =  -4.50921970104481E-01  2.26266907076858E-03
 cg2d: Sum(rhs),rhsMax =  -1.00469610734696E+00  2.31946123169175E-03
 cg2d: Sum(rhs),rhsMax =  -1.78565331468929E+00  2.37599941709241E-03
 cg2d: Sum(rhs),rhsMax =  -2.62429308834332E+00  2.42805543530775E-03
 cg2d: Sum(rhs),rhsMax =  -3.35748486671931E+00  2.47123045142573E-03
 cg2d: Sum(rhs),rhsMax =  -3.85508917804800E+00  2.50195598428705E-03
 cg2d: Sum(rhs),rhsMax =  -4.03589978166563E+00  2.51830322623280E-03
 cg2d: Sum(rhs),rhsMax =  -3.87512848119970E+00  2.52047519174639E-03
 cg2d: Sum(rhs),rhsMax =  -3.40600368758090E+00  2.51092921851062E-03
 cg2d: Sum(rhs),rhsMax =  -2.61682442689298E+00  2.58874088121325E-03
 cg2d: Sum(rhs),rhsMax =  -1.83238711610898E+00  2.61669731016095E-03
 cg2d: Sum(rhs),rhsMax =  -1.17513337777678E+00  2.56005947425058E-03
 cg2d: Sum(rhs),rhsMax =  -7.11994621415220E-01  2.47855829672572E-03
 cg2d: Sum(rhs),rhsMax =  -5.26422153121835E-01  2.47042092727116E-03
 cg2d: Sum(rhs),rhsMax =  -6.78930216929789E-01  2.49676870515216E-03
 cg2d: Sum(rhs),rhsMax =  -1.12673722322198E+00  2.53652611639384E-03
 cg2d: Sum(rhs),rhsMax =  -1.75981625756372E+00  2.58504764026538E-03
 cg2d: Sum(rhs),rhsMax =  -2.43940636257858E+00  2.63568090418641E-03
 cg2d: Sum(rhs),rhsMax =  -3.03203009970016E+00  2.68092813950491E-03
 cg2d: Sum(rhs),rhsMax =  -3.40991310019135E+00  2.73286305840037E-03
 cg2d: Sum(rhs),rhsMax =  -3.48046021319254E+00  2.80943924376265E-03
 cg2d: Sum(rhs),rhsMax =  -3.32063071187849E+00  2.84054010730017E-03
 cg2d: Sum(rhs),rhsMax =  -2.96079445800633E+00  2.82589059730082E-03
 cg2d: Sum(rhs),rhsMax =  -2.32992810158125E+00  2.92147976367355E-03
 cg2d: Sum(rhs),rhsMax =  -1.72242455274439E+00  2.94384964761436E-03
 cg2d: Sum(rhs),rhsMax =  -1.21221902818460E+00  2.89157781912982E-03
 cg2d: Sum(rhs),rhsMax =  -8.69698386808270E-01  2.78046459603729E-03
 cg2d: Sum(rhs),rhsMax =  -7.64867796917299E-01  2.63730952192113E-03
 cg2d: Sum(rhs),rhsMax =  -9.31747837356304E-01  2.54529705201351E-03
 cg2d: Sum(rhs),rhsMax =  -1.31074337319494E+00  2.59464770514276E-03
 cg2d: Sum(rhs),rhsMax =  -1.82960841176170E+00  2.67470090232984E-03
 cg2d: Sum(rhs),rhsMax =  -2.36415406785776E+00  2.77096214343935E-03
 cg2d: Sum(rhs),rhsMax =  -2.80794776663544E+00  2.86583708342841E-03
 cg2d: Sum(rhs),rhsMax =  -3.09076534842648E+00  2.94225356506358E-03
 cg2d: Sum(rhs),rhsMax =  -3.17911020561780E+00  2.98708409435494E-03
 cg2d: Sum(rhs),rhsMax =  -3.06968977348870E+00  2.99369704358054E-03
 cg2d: Sum(rhs),rhsMax =  -2.74200028585938E+00  3.00868117736339E-03
 cg2d: Sum(rhs),rhsMax =  -2.22987016390425E+00  3.08320498423863E-03
 cg2d: Sum(rhs),rhsMax =  -1.72892382317782E+00  3.09216604680749E-03
 cg2d: Sum(rhs),rhsMax =  -1.30661124321504E+00  3.03707926406942E-03
 cg2d: Sum(rhs),rhsMax =  -1.02724585765121E+00  2.93201257099102E-03
 cg2d: Sum(rhs),rhsMax =  -9.49612063122841E-01  2.80059570843988E-03
 cg2d: Sum(rhs),rhsMax =  -1.10546678812801E+00  2.68802014886812E-03
 cg2d: Sum(rhs),rhsMax =  -1.41911842698739E+00  2.73183506942662E-03
 cg2d: Sum(rhs),rhsMax =  -1.85263648651000E+00  2.80075127179985E-03
 cg2d: Sum(rhs),rhsMax =  -2.30607101103462E+00  2.88121987587692E-03
 cg2d: Sum(rhs),rhsMax =  -2.69038328419945E+00  2.95745901920531E-03
 cg2d: Sum(rhs),rhsMax =  -2.94313280060835E+00  3.01465313032045E-03
 cg2d: Sum(rhs),rhsMax =  -3.03123918675662E+00  3.04190029315925E-03
 cg2d: Sum(rhs),rhsMax =  -2.94785316899584E+00  3.03433143636622E-03
 cg2d: Sum(rhs),rhsMax =  -2.61356651719464E+00  3.10365980105509E-03
 cg2d: Sum(rhs),rhsMax =  -2.18161313810790E+00  3.16115507212267E-03
 cg2d: Sum(rhs),rhsMax =  -1.75526120057603E+00  3.15966315841479E-03
 cg2d: Sum(rhs),rhsMax =  -1.39603739508832E+00  3.10114914701628E-03
 cg2d: Sum(rhs),rhsMax =  -1.16177135916627E+00  2.99876547974238E-03
 cg2d: Sum(rhs),rhsMax =  -1.10293742704028E+00  2.87411085713175E-03
 cg2d: Sum(rhs),rhsMax =  -1.24975129232413E+00  2.75286356826928E-03
 cg2d: Sum(rhs),rhsMax =  -1.53840863040716E+00  2.75098219807794E-03
 cg2d: Sum(rhs),rhsMax =  -1.91301866112286E+00  2.81271672379038E-03
 cg2d: Sum(rhs),rhsMax =  -2.30705933937625E+00  2.88449384496320E-03
 cg2d: Sum(rhs),rhsMax =  -2.64297546480354E+00  2.95188728973015E-03
 cg2d: Sum(rhs),rhsMax =  -2.86495122554631E+00  3.00154122091762E-03
 cg2d: Sum(rhs),rhsMax =  -2.94238801567345E+00  3.02377929733772E-03
 cg2d: Sum(rhs),rhsMax =  -2.84207306837357E+00  3.04217208764071E-03
 cg2d: Sum(rhs),rhsMax =  -2.51902169411112E+00  3.13830807329341E-03
 cg2d: Sum(rhs),rhsMax =  -2.14123723753019E+00  3.18959326105728E-03
 cg2d: Sum(rhs),rhsMax =  -1.76835912387326E+00  3.18714935307354E-03
 cg2d: Sum(rhs),rhsMax =  -1.45590342829081E+00  3.13272232401745E-03
 cg2d: Sum(rhs),rhsMax =  -1.25508063660235E+00  3.03818420613780E-03
 cg2d: Sum(rhs),rhsMax =  -1.20874896248596E+00  2.92305995466350E-03
 cg2d: Sum(rhs),rhsMax =  -1.34034302358495E+00  2.81059309676146E-03
 cg2d: Sum(rhs),rhsMax =  -1.62624320893694E+00  2.74190577066969E-03
(PID.TID 0000.0001) %CHECKPOINT       100 ckptA
 --> objf_test(bi,bj)   =  0.509071982240805E-01
 --> objf_tracer(bi,bj) =  0.000000000000000E+00
 --> objf_atl(bi,bj)    =  0.000000000000000E+00
  local fc =  0.509071982240805E-01
 global fc =  0.509071982240805E-01
 ph-check fcpertplus =   0.0509071982
(PID.TID 0000.0001)  MDS_READ_FIELD: opening file: xx_depth.0000000000.001.001.data
 ph-check fcpertminus =   0.0509071982
(PID.TID 0000.0001)  MDS_READ_FIELD: opening file: xx_depth.0000000000.001.001.data
(PID.TID 0000.0001)  MDS_READ_FIELD: opening global file: noWalls.bigRidge
(PID.TID 0000.0001) // =======================================================
(PID.TID 0000.0001) // Field Model R_low (ini_masks_etc) at iteration          1
(PID.TID 0000.0001) // CMIN =         -5.000000000000000E+03
(PID.TID 0000.0001) // CMAX =         -2.000000000000000E+03
(PID.TID 0000.0001) // CINT =          1.111111111111111E+02
(PID.TID 0000.0001) // SYMBOLS (CMIN->CMAX): -abcdefghijklmnopqrstuvwxyz+
(PID.TID 0000.0001) //                  0.0: .
(PID.TID 0000.0001) // RANGE I (Lo:Hi:Step):(  -1:   7:   1)
(PID.TID 0000.0001) // RANGE J (Lo:Hi:Step):(   7:  -1:  -1)
(PID.TID 0000.0001) // RANGE K (Lo:Hi:Step):(   1:   1:   1)
(PID.TID 0000.0001) // =======================================================
(PID.TID 0000.0001) K =   1
(PID.TID 0000.0001) //
(PID.TID 0000.0001) // |--J--|101234567
(PID.TID 0000.0001) //      7 ----+----
(PID.TID 0000.0001) //      6 ----+----
(PID.TID 0000.0001) //      5 ----+----
(PID.TID 0000.0001) //      4 ----+----
(PID.TID 0000.0001) //      3 ----+----
(PID.TID 0000.0001) //      2 ----+----
(PID.TID 0000.0001) //      1 ----+----
(PID.TID 0000.0001) //      0 ----+----
(PID.TID 0000.0001) //     -1 ----+----
(PID.TID 0000.0001) // =======================================================
(PID.TID 0000.0001) // END OF FIELD                                          =
(PID.TID 0000.0001) // =======================================================
(PID.TID 0000.0001) 
(PID.TID 0000.0001) // =======================================================
(PID.TID 0000.0001) // Field Model Ro_surf (ini_masks_etc) at iteration          1
(PID.TID 0000.0001) // CMIN =          1.000000000000000E+32
(PID.TID 0000.0001) // CMAX =         -1.000000000000000E+32
(PID.TID 0000.0001) // CINT =          0.000000000000000E+00
(PID.TID 0000.0001) // SYMBOLS (CMIN->CMAX): -abcdefghijklmnopqrstuvwxyz+
(PID.TID 0000.0001) //                  0.0: .
(PID.TID 0000.0001) // RANGE I (Lo:Hi:Step):(  -1:   7:   1)
(PID.TID 0000.0001) // RANGE J (Lo:Hi:Step):(   7:  -1:  -1)
(PID.TID 0000.0001) // RANGE K (Lo:Hi:Step):(   1:   1:   1)
(PID.TID 0000.0001) // =======================================================
(PID.TID 0000.0001) // =======================================================
(PID.TID 0000.0001) // END OF FIELD                                          =
(PID.TID 0000.0001) // =======================================================
(PID.TID 0000.0001) 
(PID.TID 0000.0001) // =======================================================
(PID.TID 0000.0001) // Field hFacC at iteration          1
(PID.TID 0000.0001) // CMIN =          1.000000000000000E+00
(PID.TID 0000.0001) // CMAX =          1.000000000000000E+00
(PID.TID 0000.0001) // CINT =          0.000000000000000E+00
(PID.TID 0000.0001) // SYMBOLS (CMIN->CMAX): -abcdefghijklmnopqrstuvwxyz+
(PID.TID 0000.0001) //                  0.0: .
(PID.TID 0000.0001) // RANGE I (Lo:Hi:Step):(  -1:   7:   1)
(PID.TID 0000.0001) // RANGE J (Lo:Hi:Step):(   7:  -1:  -1)
(PID.TID 0000.0001) // RANGE K (Lo:Hi:Step):(   1:   1:   1)
(PID.TID 0000.0001) // =======================================================
(PID.TID 0000.0001) // =======================================================
(PID.TID 0000.0001) // END OF FIELD                                          =
(PID.TID 0000.0001) // =======================================================
(PID.TID 0000.0001) 
(PID.TID 0000.0001) // =======================================================
(PID.TID 0000.0001) // Field hFacW at iteration          1
(PID.TID 0000.0001) // CMIN =          1.000000000000000E+00
(PID.TID 0000.0001) // CMAX =          1.000000000000000E+00
(PID.TID 0000.0001) // CINT =          0.000000000000000E+00
(PID.TID 0000.0001) // SYMBOLS (CMIN->CMAX): -abcdefghijklmnopqrstuvwxyz+
(PID.TID 0000.0001) //                  0.0: .
(PID.TID 0000.0001) // RANGE I (Lo:Hi:Step):(  -1:   7:   1)
(PID.TID 0000.0001) // RANGE J (Lo:Hi:Step):(   7:  -1:  -1)
(PID.TID 0000.0001) // RANGE K (Lo:Hi:Step):(   1:   1:   1)
(PID.TID 0000.0001) // =======================================================
(PID.TID 0000.0001) // =======================================================
(PID.TID 0000.0001) // END OF FIELD                                          =
(PID.TID 0000.0001) // =======================================================
(PID.TID 0000.0001) 
(PID.TID 0000.0001) // =======================================================
(PID.TID 0000.0001) // Field hFacS at iteration          1
(PID.TID 0000.0001) // CMIN =          1.000000000000000E+00
(PID.TID 0000.0001) // CMAX =          1.000000000000000E+00
(PID.TID 0000.0001) // CINT =          0.000000000000000E+00
(PID.TID 0000.0001) // SYMBOLS (CMIN->CMAX): -abcdefghijklmnopqrstuvwxyz+
(PID.TID 0000.0001) //                  0.0: .
(PID.TID 0000.0001) // RANGE I (Lo:Hi:Step):(  -1:   7:   1)
(PID.TID 0000.0001) // RANGE J (Lo:Hi:Step):(   7:  -1:  -1)
(PID.TID 0000.0001) // RANGE K (Lo:Hi:Step):(   1:   1:   1)
(PID.TID 0000.0001) // =======================================================
(PID.TID 0000.0001) // =======================================================
(PID.TID 0000.0001) // END OF FIELD                                          =
(PID.TID 0000.0001) // =======================================================
(PID.TID 0000.0001) 
(PID.TID 0000.0001) %MON surfExpanfCori_max           =  -1.0735540000000E-04
(PID.TID 0000.0001) %MON surfExpanfCori_min           =  -1.1783060000000E-04
(PID.TID 0000.0001) %MON surfExpanfCori_mean          =  -1.1259300000000E-04
(PID.TID 0000.0001) %MON surfExpanfCori_sd            =   3.7035424771427E-06
(PID.TID 0000.0001) %MON surfExpanfCoriG_max          =  -1.0866480000000E-04
(PID.TID 0000.0001) %MON surfExpanfCoriG_min          =  -1.1914000000000E-04
(PID.TID 0000.0001) %MON surfExpanfCoriG_mean         =  -1.1390240000000E-04
(PID.TID 0000.0001) %MON surfExpanfCoriG_sd           =   3.7035424771427E-06
(PID.TID 0000.0001) %MON surfExpanfCoriCos_max        =   0.0000000000000E+00
(PID.TID 0000.0001) %MON surfExpanfCoriCos_min        =   0.0000000000000E+00
(PID.TID 0000.0001) %MON surfExpanfCoriCos_mean       =   0.0000000000000E+00
(PID.TID 0000.0001) %MON surfExpanfCoriCos_sd         =   0.0000000000000E+00
(PID.TID 0000.0001) INI_CG2D: CG2D normalisation factor =  1.9999999999999996E-04
(PID.TID 0000.0001) 
                     ctrl_depth_ini: ctrl update R_low,
                                     adding the control vector.
(PID.TID 0000.0001)  MDS_READ_FIELD: opening file: xx_depth.0000000000.001.001.data
(PID.TID 0000.0001) // =======================================================
(PID.TID 0000.0001) // Field Model Ro_surf (update_masks_etc) at iteration          1
(PID.TID 0000.0001) // CMIN =          1.000000000000000E+32
(PID.TID 0000.0001) // CMAX =         -1.000000000000000E+32
(PID.TID 0000.0001) // CINT =          0.000000000000000E+00
(PID.TID 0000.0001) // SYMBOLS (CMIN->CMAX): -abcdefghijklmnopqrstuvwxyz+
(PID.TID 0000.0001) //                  0.0: .
(PID.TID 0000.0001) // RANGE I (Lo:Hi:Step):(  -1:   7:   1)
(PID.TID 0000.0001) // RANGE J (Lo:Hi:Step):(   7:  -1:  -1)
(PID.TID 0000.0001) // RANGE K (Lo:Hi:Step):(   1:   1:   1)
(PID.TID 0000.0001) // =======================================================
(PID.TID 0000.0001) // =======================================================
(PID.TID 0000.0001) // END OF FIELD                                          =
(PID.TID 0000.0001) // =======================================================
(PID.TID 0000.0001) 
(PID.TID 0000.0001) // =======================================================
(PID.TID 0000.0001) // Field hFacC at iteration          1
(PID.TID 0000.0001) // CMIN =          1.000000000000000E+00
(PID.TID 0000.0001) // CMAX =          1.000000000000000E+00
(PID.TID 0000.0001) // CINT =          0.000000000000000E+00
(PID.TID 0000.0001) // SYMBOLS (CMIN->CMAX): -abcdefghijklmnopqrstuvwxyz+
(PID.TID 0000.0001) //                  0.0: .
(PID.TID 0000.0001) // RANGE I (Lo:Hi:Step):(  -1:   7:   1)
(PID.TID 0000.0001) // RANGE J (Lo:Hi:Step):(   7:  -1:  -1)
(PID.TID 0000.0001) // RANGE K (Lo:Hi:Step):(   1:   1:   1)
(PID.TID 0000.0001) // =======================================================
(PID.TID 0000.0001) // =======================================================
(PID.TID 0000.0001) // END OF FIELD                                          =
(PID.TID 0000.0001) // =======================================================
(PID.TID 0000.0001) 
(PID.TID 0000.0001) // =======================================================
(PID.TID 0000.0001) // Field hFacW at iteration          1
(PID.TID 0000.0001) // CMIN =          1.000000000000000E+00
(PID.TID 0000.0001) // CMAX =          1.000000000000000E+00
(PID.TID 0000.0001) // CINT =          0.000000000000000E+00
(PID.TID 0000.0001) // SYMBOLS (CMIN->CMAX): -abcdefghijklmnopqrstuvwxyz+
(PID.TID 0000.0001) //                  0.0: .
(PID.TID 0000.0001) // RANGE I (Lo:Hi:Step):(  -1:   7:   1)
(PID.TID 0000.0001) // RANGE J (Lo:Hi:Step):(   7:  -1:  -1)
(PID.TID 0000.0001) // RANGE K (Lo:Hi:Step):(   1:   1:   1)
(PID.TID 0000.0001) // =======================================================
(PID.TID 0000.0001) // =======================================================
(PID.TID 0000.0001) // END OF FIELD                                          =
(PID.TID 0000.0001) // =======================================================
(PID.TID 0000.0001) 
(PID.TID 0000.0001) // =======================================================
(PID.TID 0000.0001) // Field hFacS at iteration          1
(PID.TID 0000.0001) // CMIN =          1.000000000000000E+00
(PID.TID 0000.0001) // CMAX =          1.000000000000000E+00
(PID.TID 0000.0001) // CINT =          0.000000000000000E+00
(PID.TID 0000.0001) // SYMBOLS (CMIN->CMAX): -abcdefghijklmnopqrstuvwxyz+
(PID.TID 0000.0001) //                  0.0: .
(PID.TID 0000.0001) // RANGE I (Lo:Hi:Step):(  -1:   7:   1)
(PID.TID 0000.0001) // RANGE J (Lo:Hi:Step):(   7:  -1:  -1)
(PID.TID 0000.0001) // RANGE K (Lo:Hi:Step):(   1:   1:   1)
(PID.TID 0000.0001) // =======================================================
(PID.TID 0000.0001) // =======================================================
(PID.TID 0000.0001) // END OF FIELD                                          =
(PID.TID 0000.0001) // =======================================================
(PID.TID 0000.0001) 
(PID.TID 0000.0001) // =======================================================
(PID.TID 0000.0001) // Field Initial Temperature at iteration          1
(PID.TID 0000.0001) // CMIN =          4.000000000000000E+00
(PID.TID 0000.0001) // CMAX =          4.000000000000000E+00
(PID.TID 0000.0001) // CINT =          0.000000000000000E+00
(PID.TID 0000.0001) // SYMBOLS (CMIN->CMAX): -abcdefghijklmnopqrstuvwxyz+
(PID.TID 0000.0001) //                  0.0: .
(PID.TID 0000.0001) // RANGE I (Lo:Hi:Step):(   1:   5:   1)
(PID.TID 0000.0001) // RANGE J (Lo:Hi:Step):(   5:   1:  -1)
(PID.TID 0000.0001) // RANGE K (Lo:Hi:Step):(   1:   1:   1)
(PID.TID 0000.0001) // =======================================================
(PID.TID 0000.0001) // =======================================================
(PID.TID 0000.0001) // END OF FIELD                                          =
(PID.TID 0000.0001) // =======================================================
(PID.TID 0000.0001) 
(PID.TID 0000.0001) // =======================================================
(PID.TID 0000.0001) // Field Initial Salinity at iteration          1
(PID.TID 0000.0001) // CMIN =          3.500000000000000E+01
(PID.TID 0000.0001) // CMAX =          3.500000000000000E+01
(PID.TID 0000.0001) // CINT =          0.000000000000000E+00
(PID.TID 0000.0001) // SYMBOLS (CMIN->CMAX): -abcdefghijklmnopqrstuvwxyz+
(PID.TID 0000.0001) //                  0.0: .
(PID.TID 0000.0001) // RANGE I (Lo:Hi:Step):(   1:   5:   1)
(PID.TID 0000.0001) // RANGE J (Lo:Hi:Step):(   5:   1:  -1)
(PID.TID 0000.0001) // RANGE K (Lo:Hi:Step):(   1:   1:   1)
(PID.TID 0000.0001) // =======================================================
(PID.TID 0000.0001) // =======================================================
(PID.TID 0000.0001) // END OF FIELD                                          =
(PID.TID 0000.0001) // =======================================================
(PID.TID 0000.0001) 
(PID.TID 0000.0001) Start initial hydrostatic pressure computation
(PID.TID 0000.0001) Pressure is predetermined for buoyancyRelation OCEANIC
(PID.TID 0000.0001) 
(PID.TID 0000.0001)  MDS_READ_FIELD: opening global file: windx.sin_y
(PID.TID 0000.0001) // =======================================================
(PID.TID 0000.0001) // Model current state
(PID.TID 0000.0001) // =======================================================
(PID.TID 0000.0001) 
 cg2d: Sum(rhs),rhsMax =   0.00000000000000E+00  0.00000000000000E+00
 cg2d: Sum(rhs),rhsMax =  -2.49999999999996E+01  6.03492218443698E-05
 cg2d: Sum(rhs),rhsMax =  -1.81034404639062E+01  2.18766023587219E-04
 cg2d: Sum(rhs),rhsMax =  -1.54955562832147E+01  4.32479836297446E-04
 cg2d: Sum(rhs),rhsMax =  -1.41111452330425E+01  6.49958988319203E-04
 cg2d: Sum(rhs),rhsMax =  -1.31144322329428E+01  8.30737102848513E-04
 cg2d: Sum(rhs),rhsMax =  -1.21209090317835E+01  9.52510662024190E-04
 cg2d: Sum(rhs),rhsMax =  -1.07124742372572E+01  1.02806631162615E-03
 cg2d: Sum(rhs),rhsMax =  -7.41375936713360E+00  1.27086596325705E-03
 cg2d: Sum(rhs),rhsMax =  -4.70217533513109E+00  1.51019014075098E-03
 cg2d: Sum(rhs),rhsMax =  -2.72440685977679E+00  1.65833738280206E-03
 cg2d: Sum(rhs),rhsMax =  -1.27958669078650E+00  1.70565508789567E-03
 cg2d: Sum(rhs),rhsMax =  -3.29564699294570E-01  1.66071960578296E-03
 cg2d: Sum(rhs),rhsMax =   5.21320405529225E-02  1.54812756139953E-03
 cg2d: Sum(rhs),rhsMax =  -2.86625374573959E-01  1.40338816107635E-03
 cg2d: Sum(rhs),rhsMax =  -1.30315843381765E+00  1.44268599699593E-03
 cg2d: Sum(rhs),rhsMax =  -2.68067690297236E+00  1.50836886645336E-03
 cg2d: Sum(rhs),rhsMax =  -4.07407453332099E+00  1.58424366931887E-03
 cg2d: Sum(rhs),rhsMax =  -5.18272347915674E+00  1.66593592894029E-03
 cg2d: Sum(rhs),rhsMax =  -5.80990598189073E+00  1.74846175393412E-03
 cg2d: Sum(rhs),rhsMax =  -5.87740627460778E+00  1.82725971226835E-03
 cg2d: Sum(rhs),rhsMax =  -5.41358311268305E+00  1.89900434711110E-03
 cg2d: Sum(rhs),rhsMax =  -4.53080676685754E+00  1.96213934567914E-03
 cg2d: Sum(rhs),rhsMax =  -3.22587898185184E+00  2.12611203162151E-03
 cg2d: Sum(rhs),rhsMax =  -2.04447211449610E+00  2.24837954282834E-03
 cg2d: Sum(rhs),rhsMax =  -1.10818137061612E+00  2.30404049644126E-03
 cg2d: Sum(rhs),rhsMax =  -4.90484879496796E-01  2.29576532838193E-03
 cg2d: Sum(rhs),rhsMax =  -2.61247063418619E-01  2.23814842543276E-03
 cg2d: Sum(rhs),rhsMax =  -4.50921968538577E-01  2.26266906980163E-03
 cg2d: Sum(rhs),rhsMax =  -1.00469610609368E+00  2.31946123065597E-03
 cg2d: Sum(rhs),rhsMax =  -1.78565331388577E+00  2.37599941599533E-03
 cg2d: Sum(rhs),rhsMax =  -2.62429308803979E+00  2.42805543414207E-03
 cg2d: Sum(rhs),rhsMax =  -3.35748486689740E+00  2.47123045016920E-03
 cg2d: Sum(rhs),rhsMax =  -3.85508917864048E+00  2.50195598290528E-03
 cg2d: Sum(rhs),rhsMax =  -4.03589978256025E+00  2.51830322468454E-03
 cg2d: Sum(rhs),rhsMax =  -3.87512848223118E+00  2.52047518999019E-03
 cg2d: Sum(rhs),rhsMax =  -3.40600368853106E+00  2.51092921651186E-03
 cg2d: Sum(rhs),rhsMax =  -2.61682443937681E+00  2.58874086711529E-03
 cg2d: Sum(rhs),rhsMax =  -1.83238712790233E+00  2.61669729081660E-03
 cg2d: Sum(rhs),rhsMax =  -1.17513338642125E+00  2.56005945168314E-03
 cg2d: Sum(rhs),rhsMax =  -7.11994616575488E-01  2.47855830805087E-03
 cg2d: Sum(rhs),rhsMax =  -5.26422152516965E-01  2.47042092404667E-03
 cg2d: Sum(rhs),rhsMax =  -6.78930216979038E-01  2.49676870176662E-03
 cg2d: Sum(rhs),rhsMax =  -1.12673722442064E+00  2.53652611287991E-03
 cg2d: Sum(rhs),rhsMax =  -1.75981626023109E+00  2.58504763664480E-03
 cg2d: Sum(rhs),rhsMax =  -2.43940636681469E+00  2.63568090046601E-03
 cg2d: Sum(rhs),rhsMax =  -3.03203010541910E+00  2.68092813567562E-03
 cg2d: Sum(rhs),rhsMax =  -3.40991313688649E+00  2.73286303056923E-03
 cg2d: Sum(rhs),rhsMax =  -3.48046025152371E+00  2.80943921484879E-03
 cg2d: Sum(rhs),rhsMax =  -3.32063074988084E+00  2.84054007743089E-03
 cg2d: Sum(rhs),rhsMax =  -2.96079449396075E+00  2.82589056654630E-03
 cg2d: Sum(rhs),rhsMax =  -2.32992812052163E+00  2.92147974527528E-03
 cg2d: Sum(rhs),rhsMax =  -1.72242457117290E+00  2.94384962459188E-03
 cg2d: Sum(rhs),rhsMax =  -1.21221904511034E+00  2.89157779277437E-03
 cg2d: Sum(rhs),rhsMax =  -8.69698402636619E-01  2.78046456808521E-03
 cg2d: Sum(rhs),rhsMax =  -7.64867813575060E-01  2.63730949420175E-03
 cg2d: Sum(rhs),rhsMax =  -9.31747861483830E-01  2.54529701407831E-03
 cg2d: Sum(rhs),rhsMax =  -1.31074340463628E+00  2.59464766553480E-03
 cg2d: Sum(rhs),rhsMax =  -1.82960845253903E+00  2.67470086100628E-03
 cg2d: Sum(rhs),rhsMax =  -2.36415411805826E+00  2.77096210041723E-03
 cg2d: Sum(rhs),rhsMax =  -2.80794782483416E+00  2.86583703877381E-03
 cg2d: Sum(rhs),rhsMax =  -3.09076541239634E+00  2.94225351887167E-03
 cg2d: Sum(rhs),rhsMax =  -3.17911027288944E+00  2.98708404672519E-03
 cg2d: Sum(rhs),rhsMax =  -3.06968984164484E+00  2.99369699459204E-03
 cg2d: Sum(rhs),rhsMax =  -2.74200032690825E+00  3.00868115343711E-03
 cg2d: Sum(rhs),rhsMax =  -2.22987020411526E+00  3.08320495658050E-03
 cg2d: Sum(rhs),rhsMax =  -1.72892386205709E+00  3.09216601599596E-03
 cg2d: Sum(rhs),rhsMax =  -1.30661128100813E+00  3.03707923124376E-03
 cg2d: Sum(rhs),rhsMax =  -1.02724589566056E+00  2.93201253761311E-03
 cg2d: Sum(rhs),rhsMax =  -9.49612103672085E-01  2.80059567599299E-03
 cg2d: Sum(rhs),rhsMax =  -1.10546684564627E+00  2.68802008919079E-03
 cg2d: Sum(rhs),rhsMax =  -1.41911849364670E+00  2.73183500788284E-03
 cg2d: Sum(rhs),rhsMax =  -1.85263656453292E+00  2.80075120839230E-03
 cg2d: Sum(rhs),rhsMax =  -2.30607110052009E+00  2.88121981065695E-03
 cg2d: Sum(rhs),rhsMax =  -2.69038338358583E+00  2.95745895226062E-03
 cg2d: Sum(rhs),rhsMax =  -2.94313290742320E+00  3.01465306175538E-03
 cg2d: Sum(rhs),rhsMax =  -3.03123929821524E+00  3.04190022307141E-03
 cg2d: Sum(rhs),rhsMax =  -2.94785328232923E+00  3.03433136482453E-03
 cg2d: Sum(rhs),rhsMax =  -2.61356658806698E+00  3.10365977026328E-03
 cg2d: Sum(rhs),rhsMax =  -2.18161320811831E+00  3.16115503766614E-03
 cg2d: Sum(rhs),rhsMax =  -1.75526126978045E+00  3.15966312102994E-03
 cg2d: Sum(rhs),rhsMax =  -1.39603746433547E+00  3.10114910797911E-03
 cg2d: Sum(rhs),rhsMax =  -1.16177143027506E+00  2.99876544062579E-03
 cg2d: Sum(rhs),rhsMax =  -1.10293750260390E+00  2.87411081950326E-03
 cg2d: Sum(rhs),rhsMax =  -1.24975137494624E+00  2.75286353338834E-03
 cg2d: Sum(rhs),rhsMax =  -1.53840874800439E+00  2.75098211276357E-03
 cg2d: Sum(rhs),rhsMax =  -1.91301879190687E+00  2.81271663646489E-03
 cg2d: Sum(rhs),rhsMax =  -2.30705948336721E+00  2.88449375569685E-03
 cg2d: Sum(rhs),rhsMax =  -2.64297562020979E+00  2.95188719863312E-03
 cg2d: Sum(rhs),rhsMax =  -2.86495138958060E+00  3.00154112811887E-03
 cg2d: Sum(rhs),rhsMax =  -2.94238818521113E+00  3.02377920295991E-03
 cg2d: Sum(rhs),rhsMax =  -2.84207317469646E+00  3.04217205946723E-03
 cg2d: Sum(rhs),rhsMax =  -2.51902179996635E+00  3.13830804139742E-03
 cg2d: Sum(rhs),rhsMax =  -2.14123734317573E+00  3.18959322533163E-03
 cg2d: Sum(rhs),rhsMax =  -1.76835922998573E+00  3.18714931411142E-03
 cg2d: Sum(rhs),rhsMax =  -1.45590353622693E+00  3.13272228299829E-03
 cg2d: Sum(rhs),rhsMax =  -1.25508074850753E+00  3.03818416460229E-03
 cg2d: Sum(rhs),rhsMax =  -1.20874908103072E+00  2.92305991422173E-03
 cg2d: Sum(rhs),rhsMax =  -1.34034315116725E+00  2.81059305879038E-03
 cg2d: Sum(rhs),rhsMax =  -1.62624338997832E+00  2.74190566094539E-03
(PID.TID 0000.0001) %CHECKPOINT       100 ckptB
 --> objf_test(bi,bj)   =  0.509071981882225E-01
 --> objf_tracer(bi,bj) =  0.000000000000000E+00
 --> objf_atl(bi,bj)    =  0.000000000000000E+00
  local fc =  0.509071981882225E-01
 global fc =  0.509071981882225E-01
(PID.TID 0000.0001)  MDS_READ_FIELD: opening file: xx_depth.0000000000.001.001.data
grad-res -------------------------------
 grad-res     0   16    1    4    1    1    1    1   0.509071982062E-01 0.509071982241E-01 0.509071981882E-01
 grad-res     0   16   16   16   25    1    1    1   0.179081973516E-06 0.179289812163E-06 -.116057827136E-02
(PID.TID 0000.0001)   ADM  precision_derivative_cost =    5.09071982061515E-02
(PID.TID 0000.0001)   ADM  precision_derivative_grad =    1.79081973516054E-07
 ph-grd  ierr ---------------------------
 ph-grd  ierr =  0, icomp =  16, ichknum =  16
 ph-grd -->hit<--  2 4 1 1
(PID.TID 0000.0001)  MDS_READ_FIELD: opening file: adxx_depth.0000000000.001.001.data
(PID.TID 0000.0001)  MDS_READ_FIELD: opening file: xx_depth.0000000000.001.001.data
(PID.TID 0000.0001)  MDS_READ_FIELD: opening global file: noWalls.bigRidge
(PID.TID 0000.0001) // =======================================================
(PID.TID 0000.0001) // Field Model R_low (ini_masks_etc) at iteration          1
(PID.TID 0000.0001) // CMIN =         -5.000000000000000E+03
(PID.TID 0000.0001) // CMAX =         -2.000000000000000E+03
(PID.TID 0000.0001) // CINT =          1.111111111111111E+02
(PID.TID 0000.0001) // SYMBOLS (CMIN->CMAX): -abcdefghijklmnopqrstuvwxyz+
(PID.TID 0000.0001) //                  0.0: .
(PID.TID 0000.0001) // RANGE I (Lo:Hi:Step):(  -1:   7:   1)
(PID.TID 0000.0001) // RANGE J (Lo:Hi:Step):(   7:  -1:  -1)
(PID.TID 0000.0001) // RANGE K (Lo:Hi:Step):(   1:   1:   1)
(PID.TID 0000.0001) // =======================================================
(PID.TID 0000.0001) K =   1
(PID.TID 0000.0001) //
(PID.TID 0000.0001) // |--J--|101234567
(PID.TID 0000.0001) //      7 ----+----
(PID.TID 0000.0001) //      6 ----+----
(PID.TID 0000.0001) //      5 ----+----
(PID.TID 0000.0001) //      4 ----+----
(PID.TID 0000.0001) //      3 ----+----
(PID.TID 0000.0001) //      2 ----+----
(PID.TID 0000.0001) //      1 ----+----
(PID.TID 0000.0001) //      0 ----+----
(PID.TID 0000.0001) //     -1 ----+----
(PID.TID 0000.0001) // =======================================================
(PID.TID 0000.0001) // END OF FIELD                                          =
(PID.TID 0000.0001) // =======================================================
(PID.TID 0000.0001) 
(PID.TID 0000.0001) // =======================================================
(PID.TID 0000.0001) // Field Model Ro_surf (ini_masks_etc) at iteration          1
(PID.TID 0000.0001) // CMIN =          1.000000000000000E+32
(PID.TID 0000.0001) // CMAX =         -1.000000000000000E+32
(PID.TID 0000.0001) // CINT =          0.000000000000000E+00
(PID.TID 0000.0001) // SYMBOLS (CMIN->CMAX): -abcdefghijklmnopqrstuvwxyz+
(PID.TID 0000.0001) //                  0.0: .
(PID.TID 0000.0001) // RANGE I (Lo:Hi:Step):(  -1:   7:   1)
(PID.TID 0000.0001) // RANGE J (Lo:Hi:Step):(   7:  -1:  -1)
(PID.TID 0000.0001) // RANGE K (Lo:Hi:Step):(   1:   1:   1)
(PID.TID 0000.0001) // =======================================================
(PID.TID 0000.0001) // =======================================================
(PID.TID 0000.0001) // END OF FIELD                                          =
(PID.TID 0000.0001) // =======================================================
(PID.TID 0000.0001) 
(PID.TID 0000.0001) // =======================================================
(PID.TID 0000.0001) // Field hFacC at iteration          1
(PID.TID 0000.0001) // CMIN =          1.000000000000000E+00
(PID.TID 0000.0001) // CMAX =          1.000000000000000E+00
(PID.TID 0000.0001) // CINT =          0.000000000000000E+00
(PID.TID 0000.0001) // SYMBOLS (CMIN->CMAX): -abcdefghijklmnopqrstuvwxyz+
(PID.TID 0000.0001) //                  0.0: .
(PID.TID 0000.0001) // RANGE I (Lo:Hi:Step):(  -1:   7:   1)
(PID.TID 0000.0001) // RANGE J (Lo:Hi:Step):(   7:  -1:  -1)
(PID.TID 0000.0001) // RANGE K (Lo:Hi:Step):(   1:   1:   1)
(PID.TID 0000.0001) // =======================================================
(PID.TID 0000.0001) // =======================================================
(PID.TID 0000.0001) // END OF FIELD                                          =
(PID.TID 0000.0001) // =======================================================
(PID.TID 0000.0001) 
(PID.TID 0000.0001) // =======================================================
(PID.TID 0000.0001) // Field hFacW at iteration          1
(PID.TID 0000.0001) // CMIN =          1.000000000000000E+00
(PID.TID 0000.0001) // CMAX =          1.000000000000000E+00
(PID.TID 0000.0001) // CINT =          0.000000000000000E+00
(PID.TID 0000.0001) // SYMBOLS (CMIN->CMAX): -abcdefghijklmnopqrstuvwxyz+
(PID.TID 0000.0001) //                  0.0: .
(PID.TID 0000.0001) // RANGE I (Lo:Hi:Step):(  -1:   7:   1)
(PID.TID 0000.0001) // RANGE J (Lo:Hi:Step):(   7:  -1:  -1)
(PID.TID 0000.0001) // RANGE K (Lo:Hi:Step):(   1:   1:   1)
(PID.TID 0000.0001) // =======================================================
(PID.TID 0000.0001) // =======================================================
(PID.TID 0000.0001) // END OF FIELD                                          =
(PID.TID 0000.0001) // =======================================================
(PID.TID 0000.0001) 
(PID.TID 0000.0001) // =======================================================
(PID.TID 0000.0001) // Field hFacS at iteration          1
(PID.TID 0000.0001) // CMIN =          1.000000000000000E+00
(PID.TID 0000.0001) // CMAX =          1.000000000000000E+00
(PID.TID 0000.0001) // CINT =          0.000000000000000E+00
(PID.TID 0000.0001) // SYMBOLS (CMIN->CMAX): -abcdefghijklmnopqrstuvwxyz+
(PID.TID 0000.0001) //                  0.0: .
(PID.TID 0000.0001) // RANGE I (Lo:Hi:Step):(  -1:   7:   1)
(PID.TID 0000.0001) // RANGE J (Lo:Hi:Step):(   7:  -1:  -1)
(PID.TID 0000.0001) // RANGE K (Lo:Hi:Step):(   1:   1:   1)
(PID.TID 0000.0001) // =======================================================
(PID.TID 0000.0001) // =======================================================
(PID.TID 0000.0001) // END OF FIELD                                          =
(PID.TID 0000.0001) // =======================================================
(PID.TID 0000.0001) 
(PID.TID 0000.0001) %MON surfExpanfCori_max           =  -1.0735540000000E-04
(PID.TID 0000.0001) %MON surfExpanfCori_min           =  -1.1783060000000E-04
(PID.TID 0000.0001) %MON surfExpanfCori_mean          =  -1.1259300000000E-04
(PID.TID 0000.0001) %MON surfExpanfCori_sd            =   3.7035424771427E-06
(PID.TID 0000.0001) %MON surfExpanfCoriG_max          =  -1.0866480000000E-04
(PID.TID 0000.0001) %MON surfExpanfCoriG_min          =  -1.1914000000000E-04
(PID.TID 0000.0001) %MON surfExpanfCoriG_mean         =  -1.1390240000000E-04
(PID.TID 0000.0001) %MON surfExpanfCoriG_sd           =   3.7035424771427E-06
(PID.TID 0000.0001) %MON surfExpanfCoriCos_max        =   0.0000000000000E+00
(PID.TID 0000.0001) %MON surfExpanfCoriCos_min        =   0.0000000000000E+00
(PID.TID 0000.0001) %MON surfExpanfCoriCos_mean       =   0.0000000000000E+00
(PID.TID 0000.0001) %MON surfExpanfCoriCos_sd         =   0.0000000000000E+00
(PID.TID 0000.0001) INI_CG2D: CG2D normalisation factor =  1.9999999999999996E-04
(PID.TID 0000.0001) 
                     ctrl_depth_ini: ctrl update R_low,
                                     adding the control vector.
(PID.TID 0000.0001)  MDS_READ_FIELD: opening file: xx_depth.0000000000.001.001.data
(PID.TID 0000.0001) // =======================================================
(PID.TID 0000.0001) // Field Model Ro_surf (update_masks_etc) at iteration          1
(PID.TID 0000.0001) // CMIN =          1.000000000000000E+32
(PID.TID 0000.0001) // CMAX =         -1.000000000000000E+32
(PID.TID 0000.0001) // CINT =          0.000000000000000E+00
(PID.TID 0000.0001) // SYMBOLS (CMIN->CMAX): -abcdefghijklmnopqrstuvwxyz+
(PID.TID 0000.0001) //                  0.0: .
(PID.TID 0000.0001) // RANGE I (Lo:Hi:Step):(  -1:   7:   1)
(PID.TID 0000.0001) // RANGE J (Lo:Hi:Step):(   7:  -1:  -1)
(PID.TID 0000.0001) // RANGE K (Lo:Hi:Step):(   1:   1:   1)
(PID.TID 0000.0001) // =======================================================
(PID.TID 0000.0001) // =======================================================
(PID.TID 0000.0001) // END OF FIELD                                          =
(PID.TID 0000.0001) // =======================================================
(PID.TID 0000.0001) 
(PID.TID 0000.0001) // =======================================================
(PID.TID 0000.0001) // Field hFacC at iteration          1
(PID.TID 0000.0001) // CMIN =          1.000000000000000E+00
(PID.TID 0000.0001) // CMAX =          1.000000000000000E+00
(PID.TID 0000.0001) // CINT =          0.000000000000000E+00
(PID.TID 0000.0001) // SYMBOLS (CMIN->CMAX): -abcdefghijklmnopqrstuvwxyz+
(PID.TID 0000.0001) //                  0.0: .
(PID.TID 0000.0001) // RANGE I (Lo:Hi:Step):(  -1:   7:   1)
(PID.TID 0000.0001) // RANGE J (Lo:Hi:Step):(   7:  -1:  -1)
(PID.TID 0000.0001) // RANGE K (Lo:Hi:Step):(   1:   1:   1)
(PID.TID 0000.0001) // =======================================================
(PID.TID 0000.0001) // =======================================================
(PID.TID 0000.0001) // END OF FIELD                                          =
(PID.TID 0000.0001) // =======================================================
(PID.TID 0000.0001) 
(PID.TID 0000.0001) // =======================================================
(PID.TID 0000.0001) // Field hFacW at iteration          1
(PID.TID 0000.0001) // CMIN =          1.000000000000000E+00
(PID.TID 0000.0001) // CMAX =          1.000000000000000E+00
(PID.TID 0000.0001) // CINT =          0.000000000000000E+00
(PID.TID 0000.0001) // SYMBOLS (CMIN->CMAX): -abcdefghijklmnopqrstuvwxyz+
(PID.TID 0000.0001) //                  0.0: .
(PID.TID 0000.0001) // RANGE I (Lo:Hi:Step):(  -1:   7:   1)
(PID.TID 0000.0001) // RANGE J (Lo:Hi:Step):(   7:  -1:  -1)
(PID.TID 0000.0001) // RANGE K (Lo:Hi:Step):(   1:   1:   1)
(PID.TID 0000.0001) // =======================================================
(PID.TID 0000.0001) // =======================================================
(PID.TID 0000.0001) // END OF FIELD                                          =
(PID.TID 0000.0001) // =======================================================
(PID.TID 0000.0001) 
(PID.TID 0000.0001) // =======================================================
(PID.TID 0000.0001) // Field hFacS at iteration          1
(PID.TID 0000.0001) // CMIN =          1.000000000000000E+00
(PID.TID 0000.0001) // CMAX =          1.000000000000000E+00
(PID.TID 0000.0001) // CINT =          0.000000000000000E+00
(PID.TID 0000.0001) // SYMBOLS (CMIN->CMAX): -abcdefghijklmnopqrstuvwxyz+
(PID.TID 0000.0001) //                  0.0: .
(PID.TID 0000.0001) // RANGE I (Lo:Hi:Step):(  -1:   7:   1)
(PID.TID 0000.0001) // RANGE J (Lo:Hi:Step):(   7:  -1:  -1)
(PID.TID 0000.0001) // RANGE K (Lo:Hi:Step):(   1:   1:   1)
(PID.TID 0000.0001) // =======================================================
(PID.TID 0000.0001) // =======================================================
(PID.TID 0000.0001) // END OF FIELD                                          =
(PID.TID 0000.0001) // =======================================================
(PID.TID 0000.0001) 
(PID.TID 0000.0001) // =======================================================
(PID.TID 0000.0001) // Field Initial Temperature at iteration          1
(PID.TID 0000.0001) // CMIN =          4.000000000000000E+00
(PID.TID 0000.0001) // CMAX =          4.000000000000000E+00
(PID.TID 0000.0001) // CINT =          0.000000000000000E+00
(PID.TID 0000.0001) // SYMBOLS (CMIN->CMAX): -abcdefghijklmnopqrstuvwxyz+
(PID.TID 0000.0001) //                  0.0: .
(PID.TID 0000.0001) // RANGE I (Lo:Hi:Step):(   1:   5:   1)
(PID.TID 0000.0001) // RANGE J (Lo:Hi:Step):(   5:   1:  -1)
(PID.TID 0000.0001) // RANGE K (Lo:Hi:Step):(   1:   1:   1)
(PID.TID 0000.0001) // =======================================================
(PID.TID 0000.0001) // =======================================================
(PID.TID 0000.0001) // END OF FIELD                                          =
(PID.TID 0000.0001) // =======================================================
(PID.TID 0000.0001) 
(PID.TID 0000.0001) // =======================================================
(PID.TID 0000.0001) // Field Initial Salinity at iteration          1
(PID.TID 0000.0001) // CMIN =          3.500000000000000E+01
(PID.TID 0000.0001) // CMAX =          3.500000000000000E+01
(PID.TID 0000.0001) // CINT =          0.000000000000000E+00
(PID.TID 0000.0001) // SYMBOLS (CMIN->CMAX): -abcdefghijklmnopqrstuvwxyz+
(PID.TID 0000.0001) //                  0.0: .
(PID.TID 0000.0001) // RANGE I (Lo:Hi:Step):(   1:   5:   1)
(PID.TID 0000.0001) // RANGE J (Lo:Hi:Step):(   5:   1:  -1)
(PID.TID 0000.0001) // RANGE K (Lo:Hi:Step):(   1:   1:   1)
(PID.TID 0000.0001) // =======================================================
(PID.TID 0000.0001) // =======================================================
(PID.TID 0000.0001) // END OF FIELD                                          =
(PID.TID 0000.0001) // =======================================================
(PID.TID 0000.0001) 
(PID.TID 0000.0001) Start initial hydrostatic pressure computation
(PID.TID 0000.0001) Pressure is predetermined for buoyancyRelation OCEANIC
(PID.TID 0000.0001) 
(PID.TID 0000.0001)  MDS_READ_FIELD: opening global file: windx.sin_y
(PID.TID 0000.0001) // =======================================================
(PID.TID 0000.0001) // Model current state
(PID.TID 0000.0001) // =======================================================
(PID.TID 0000.0001) 
 cg2d: Sum(rhs),rhsMax =   0.00000000000000E+00  0.00000000000000E+00
 cg2d: Sum(rhs),rhsMax =  -2.49999999999996E+01  6.03492218443698E-05
 cg2d: Sum(rhs),rhsMax =  -1.81034404639062E+01  2.18766023587219E-04
 cg2d: Sum(rhs),rhsMax =  -1.54955562832106E+01  4.32479836297561E-04
 cg2d: Sum(rhs),rhsMax =  -1.41111452315305E+01  6.49958988389281E-04
 cg2d: Sum(rhs),rhsMax =  -1.31144322329293E+01  8.30737102851036E-04
 cg2d: Sum(rhs),rhsMax =  -1.21209090337119E+01  9.52510661876187E-04
 cg2d: Sum(rhs),rhsMax =  -1.07124742372678E+01  1.02806631163046E-03
 cg2d: Sum(rhs),rhsMax =  -7.41375934231719E+00  1.27086596751737E-03
 cg2d: Sum(rhs),rhsMax =  -4.70217531809480E+00  1.51019014622103E-03
 cg2d: Sum(rhs),rhsMax =  -2.72440685012630E+00  1.65833738863324E-03
 cg2d: Sum(rhs),rhsMax =  -1.27958668676803E+00  1.70565509302813E-03
 cg2d: Sum(rhs),rhsMax =  -3.29564698325690E-01  1.66071960914525E-03
 cg2d: Sum(rhs),rhsMax =   5.21320409983613E-02  1.54812756211712E-03
 cg2d: Sum(rhs),rhsMax =  -2.86625374417911E-01  1.40338815864977E-03
 cg2d: Sum(rhs),rhsMax =  -1.30315843341967E+00  1.44268599666801E-03
 cg2d: Sum(rhs),rhsMax =  -2.68067690332966E+00  1.50836886590780E-03
 cg2d: Sum(rhs),rhsMax =  -4.07407453500556E+00  1.58424366851037E-03
 cg2d: Sum(rhs),rhsMax =  -5.18272348255265E+00  1.66593592783504E-03
 cg2d: Sum(rhs),rhsMax =  -5.80990598703962E+00  1.74846175251294E-03
 cg2d: Sum(rhs),rhsMax =  -5.87740628119145E+00  1.82725971052737E-03
 cg2d: Sum(rhs),rhsMax =  -5.41358312012456E+00  1.89900434505976E-03
 cg2d: Sum(rhs),rhsMax =  -4.53080677448594E+00  1.96213934333541E-03
 cg2d: Sum(rhs),rhsMax =  -3.22587898550756E+00  2.12611203097015E-03
 cg2d: Sum(rhs),rhsMax =  -2.04447211683545E+00  2.24837954363204E-03
 cg2d: Sum(rhs),rhsMax =  -1.10818137356710E+00  2.30404049750119E-03
 cg2d: Sum(rhs),rhsMax =  -4.90484883352867E-01  2.29576532836949E-03
 cg2d: Sum(rhs),rhsMax =  -2.61247067942701E-01  2.23814842312964E-03
 cg2d: Sum(rhs),rhsMax =  -4.50921973774775E-01  2.26266906581184E-03
 cg2d: Sum(rhs),rhsMax =  -1.00469611250891E+00  2.31946122629287E-03
 cg2d: Sum(rhs),rhsMax =  -1.78565332209894E+00  2.37599941120485E-03
 cg2d: Sum(rhs),rhsMax =  -2.62429309848605E+00  2.42805542887221E-03
 cg2d: Sum(rhs),rhsMax =  -3.35748487974302E+00  2.47123044437578E-03
 cg2d: Sum(rhs),rhsMax =  -3.85508919372973E+00  2.50195597655606E-03
 cg2d: Sum(rhs),rhsMax =  -4.03589979940480E+00  2.51830321776084E-03
 cg2d: Sum(rhs),rhsMax =  -3.87512850005386E+00  2.52047518248585E-03
 cg2d: Sum(rhs),rhsMax =  -3.40600370637480E+00  2.51092920842986E-03
 cg2d: Sum(rhs),rhsMax =  -2.61682442156567E+00  2.58874089186773E-03
 cg2d: Sum(rhs),rhsMax =  -1.83238711657900E+00  2.61669731783471E-03
 cg2d: Sum(rhs),rhsMax =  -1.17513338150201E+00  2.56005948010675E-03
 cg2d: Sum(rhs),rhsMax =  -7.11994626485313E-01  2.47855830357984E-03
 cg2d: Sum(rhs),rhsMax =  -5.26422163573643E-01  2.47042091311617E-03
 cg2d: Sum(rhs),rhsMax =  -6.78930228676774E-01  2.49676869023019E-03
 cg2d: Sum(rhs),rhsMax =  -1.12673723805908E+00  2.53652610071201E-03
 cg2d: Sum(rhs),rhsMax =  -1.75981627677009E+00  2.58504762382080E-03
 cg2d: Sum(rhs),rhsMax =  -2.43940638666419E+00  2.63568088696636E-03
 cg2d: Sum(rhs),rhsMax =  -3.03203012839314E+00  2.68092812148891E-03
 cg2d: Sum(rhs),rhsMax =  -3.40991313121662E+00  2.73286304034046E-03
 cg2d: Sum(rhs),rhsMax =  -3.48046024501692E+00  2.80943922502728E-03
 cg2d: Sum(rhs),rhsMax =  -3.32063074340380E+00  2.84054008794394E-03
 cg2d: Sum(rhs),rhsMax =  -2.96079448824929E+00  2.82589057735057E-03
 cg2d: Sum(rhs),rhsMax =  -2.32992809681013E+00  2.92147978146831E-03
 cg2d: Sum(rhs),rhsMax =  -1.72242455339962E+00  2.94384966310463E-03
 cg2d: Sum(rhs),rhsMax =  -1.21221903262962E+00  2.89157783295875E-03
 cg2d: Sum(rhs),rhsMax =  -8.69698393674032E-01  2.78046460917123E-03
 cg2d: Sum(rhs),rhsMax =  -7.64867804856957E-01  2.63730953544457E-03
 cg2d: Sum(rhs),rhsMax =  -9.31747858826405E-01  2.54529702763405E-03
 cg2d: Sum(rhs),rhsMax =  -1.31074339849762E+00  2.59464767983642E-03
 cg2d: Sum(rhs),rhsMax =  -1.82960844203448E+00  2.67470087609067E-03
 cg2d: Sum(rhs),rhsMax =  -2.36415410308244E+00  2.77096211628767E-03
 cg2d: Sum(rhs),rhsMax =  -2.80794780591277E+00  2.86583705540464E-03
 cg2d: Sum(rhs),rhsMax =  -3.09076539040601E+00  2.94225353621843E-03
 cg2d: Sum(rhs),rhsMax =  -3.17911024881814E+00  2.98708406473816E-03
 cg2d: Sum(rhs),rhsMax =  -3.06968981644990E+00  2.99369701323035E-03
 cg2d: Sum(rhs),rhsMax =  -2.74200027867544E+00  3.00868119838051E-03
 cg2d: Sum(rhs),rhsMax =  -2.22987016180063E+00  3.08320500354123E-03
 cg2d: Sum(rhs),rhsMax =  -1.72892382517836E+00  3.09216606464934E-03
 cg2d: Sum(rhs),rhsMax =  -1.30661124822458E+00  3.03707928105642E-03
 cg2d: Sum(rhs),rhsMax =  -1.02724586455431E+00  2.93201258795001E-03
 cg2d: Sum(rhs),rhsMax =  -9.49612070575097E-01  2.80059572624324E-03
 cg2d: Sum(rhs),rhsMax =  -1.10546681693692E+00  2.68802011297945E-03
 cg2d: Sum(rhs),rhsMax =  -1.41911845987821E+00  2.73183503264039E-03
 cg2d: Sum(rhs),rhsMax =  -1.85263652480072E+00  2.80075123413311E-03
 cg2d: Sum(rhs),rhsMax =  -2.30607105478163E+00  2.88121983736698E-03
 cg2d: Sum(rhs),rhsMax =  -2.69038333246876E+00  2.95745897990310E-03
 cg2d: Sum(rhs),rhsMax =  -2.94313285191088E+00  3.01465309028118E-03
 cg2d: Sum(rhs),rhsMax =  -3.03123923939005E+00  3.04190025243199E-03
 cg2d: Sum(rhs),rhsMax =  -2.94785322122891E+00  3.03433139498491E-03
 cg2d: Sum(rhs),rhsMax =  -2.61356651023018E+00  3.10365982323667E-03
 cg2d: Sum(rhs),rhsMax =  -2.18161313560612E+00  3.16115509232707E-03
 cg2d: Sum(rhs),rhsMax =  -1.75526120159981E+00  3.15966317702626E-03
 cg2d: Sum(rhs),rhsMax =  -1.39603739855229E+00  3.10114916476641E-03
 cg2d: Sum(rhs),rhsMax =  -1.16177136393185E+00  2.99876549757150E-03
 cg2d: Sum(rhs),rhsMax =  -1.10293743174527E+00  2.87411087600817E-03
 cg2d: Sum(rhs),rhsMax =  -1.24975129509822E+00  2.75286358900207E-03
 cg2d: Sum(rhs),rhsMax =  -1.53840866875880E+00  2.75098215071968E-03
 cg2d: Sum(rhs),rhsMax =  -1.91301870515484E+00  2.81271667561237E-03
 cg2d: Sum(rhs),rhsMax =  -2.30705938917249E+00  2.88449379600973E-03
 cg2d: Sum(rhs),rhsMax =  -2.64297551934746E+00  2.95188724006014E-03
 cg2d: Sum(rhs),rhsMax =  -2.86495128317742E+00  3.00154117059474E-03
 cg2d: Sum(rhs),rhsMax =  -2.94238807446312E+00  3.02377924641933E-03
 cg2d: Sum(rhs),rhsMax =  -2.84207305181572E+00  3.04217211491026E-03
 cg2d: Sum(rhs),rhsMax =  -2.51902168224453E+00  3.13830809853341E-03
 cg2d: Sum(rhs),rhsMax =  -2.14123723005920E+00  3.18959328411111E-03
 cg2d: Sum(rhs),rhsMax =  -1.76835911988212E+00  3.18714937421972E-03
 cg2d: Sum(rhs),rhsMax =  -1.45590342661478E+00  3.13272234391525E-03
 cg2d: Sum(rhs),rhsMax =  -1.25508063597321E+00  3.03818422570133E-03
 cg2d: Sum(rhs),rhsMax =  -1.20874896145529E+00  2.92305997488896E-03
 cg2d: Sum(rhs),rhsMax =  -1.34034302035229E+00  2.81059311854048E-03
 cg2d: Sum(rhs),rhsMax =  -1.62624324938356E+00  2.74190571396353E-03
(PID.TID 0000.0001) %CHECKPOINT       100 ckptA
 --> objf_test(bi,bj)   =  0.509071983328862E-01
 --> objf_tracer(bi,bj) =  0.000000000000000E+00
 --> objf_atl(bi,bj)    =  0.000000000000000E+00
  local fc =  0.509071983328862E-01
 global fc =  0.509071983328862E-01
 ph-check fcpertplus =   0.0509071983
(PID.TID 0000.0001)  MDS_READ_FIELD: opening file: xx_depth.0000000000.001.001.data
 ph-check fcpertminus =   0.0509071982
(PID.TID 0000.0001)  MDS_READ_FIELD: opening file: xx_depth.0000000000.001.001.data
(PID.TID 0000.0001)  MDS_READ_FIELD: opening global file: noWalls.bigRidge
(PID.TID 0000.0001) // =======================================================
(PID.TID 0000.0001) // Field Model R_low (ini_masks_etc) at iteration          1
(PID.TID 0000.0001) // CMIN =         -5.000000000000000E+03
(PID.TID 0000.0001) // CMAX =         -2.000000000000000E+03
(PID.TID 0000.0001) // CINT =          1.111111111111111E+02
(PID.TID 0000.0001) // SYMBOLS (CMIN->CMAX): -abcdefghijklmnopqrstuvwxyz+
(PID.TID 0000.0001) //                  0.0: .
(PID.TID 0000.0001) // RANGE I (Lo:Hi:Step):(  -1:   7:   1)
(PID.TID 0000.0001) // RANGE J (Lo:Hi:Step):(   7:  -1:  -1)
(PID.TID 0000.0001) // RANGE K (Lo:Hi:Step):(   1:   1:   1)
(PID.TID 0000.0001) // =======================================================
(PID.TID 0000.0001) K =   1
(PID.TID 0000.0001) //
(PID.TID 0000.0001) // |--J--|101234567
(PID.TID 0000.0001) //      7 ----+----
(PID.TID 0000.0001) //      6 ----+----
(PID.TID 0000.0001) //      5 ----+----
(PID.TID 0000.0001) //      4 ----+----
(PID.TID 0000.0001) //      3 ----+----
(PID.TID 0000.0001) //      2 ----+----
(PID.TID 0000.0001) //      1 ----+----
(PID.TID 0000.0001) //      0 ----+----
(PID.TID 0000.0001) //     -1 ----+----
(PID.TID 0000.0001) // =======================================================
(PID.TID 0000.0001) // END OF FIELD                                          =
(PID.TID 0000.0001) // =======================================================
(PID.TID 0000.0001) 
(PID.TID 0000.0001) // =======================================================
(PID.TID 0000.0001) // Field Model Ro_surf (ini_masks_etc) at iteration          1
(PID.TID 0000.0001) // CMIN =          1.000000000000000E+32
(PID.TID 0000.0001) // CMAX =         -1.000000000000000E+32
(PID.TID 0000.0001) // CINT =          0.000000000000000E+00
(PID.TID 0000.0001) // SYMBOLS (CMIN->CMAX): -abcdefghijklmnopqrstuvwxyz+
(PID.TID 0000.0001) //                  0.0: .
(PID.TID 0000.0001) // RANGE I (Lo:Hi:Step):(  -1:   7:   1)
(PID.TID 0000.0001) // RANGE J (Lo:Hi:Step):(   7:  -1:  -1)
(PID.TID 0000.0001) // RANGE K (Lo:Hi:Step):(   1:   1:   1)
(PID.TID 0000.0001) // =======================================================
(PID.TID 0000.0001) // =======================================================
(PID.TID 0000.0001) // END OF FIELD                                          =
(PID.TID 0000.0001) // =======================================================
(PID.TID 0000.0001) 
(PID.TID 0000.0001) // =======================================================
(PID.TID 0000.0001) // Field hFacC at iteration          1
(PID.TID 0000.0001) // CMIN =          1.000000000000000E+00
(PID.TID 0000.0001) // CMAX =          1.000000000000000E+00
(PID.TID 0000.0001) // CINT =          0.000000000000000E+00
(PID.TID 0000.0001) // SYMBOLS (CMIN->CMAX): -abcdefghijklmnopqrstuvwxyz+
(PID.TID 0000.0001) //                  0.0: .
(PID.TID 0000.0001) // RANGE I (Lo:Hi:Step):(  -1:   7:   1)
(PID.TID 0000.0001) // RANGE J (Lo:Hi:Step):(   7:  -1:  -1)
(PID.TID 0000.0001) // RANGE K (Lo:Hi:Step):(   1:   1:   1)
(PID.TID 0000.0001) // =======================================================
(PID.TID 0000.0001) // =======================================================
(PID.TID 0000.0001) // END OF FIELD                                          =
(PID.TID 0000.0001) // =======================================================
(PID.TID 0000.0001) 
(PID.TID 0000.0001) // =======================================================
(PID.TID 0000.0001) // Field hFacW at iteration          1
(PID.TID 0000.0001) // CMIN =          1.000000000000000E+00
(PID.TID 0000.0001) // CMAX =          1.000000000000000E+00
(PID.TID 0000.0001) // CINT =          0.000000000000000E+00
(PID.TID 0000.0001) // SYMBOLS (CMIN->CMAX): -abcdefghijklmnopqrstuvwxyz+
(PID.TID 0000.0001) //                  0.0: .
(PID.TID 0000.0001) // RANGE I (Lo:Hi:Step):(  -1:   7:   1)
(PID.TID 0000.0001) // RANGE J (Lo:Hi:Step):(   7:  -1:  -1)
(PID.TID 0000.0001) // RANGE K (Lo:Hi:Step):(   1:   1:   1)
(PID.TID 0000.0001) // =======================================================
(PID.TID 0000.0001) // =======================================================
(PID.TID 0000.0001) // END OF FIELD                                          =
(PID.TID 0000.0001) // =======================================================
(PID.TID 0000.0001) 
(PID.TID 0000.0001) // =======================================================
(PID.TID 0000.0001) // Field hFacS at iteration          1
(PID.TID 0000.0001) // CMIN =          1.000000000000000E+00
(PID.TID 0000.0001) // CMAX =          1.000000000000000E+00
(PID.TID 0000.0001) // CINT =          0.000000000000000E+00
(PID.TID 0000.0001) // SYMBOLS (CMIN->CMAX): -abcdefghijklmnopqrstuvwxyz+
(PID.TID 0000.0001) //                  0.0: .
(PID.TID 0000.0001) // RANGE I (Lo:Hi:Step):(  -1:   7:   1)
(PID.TID 0000.0001) // RANGE J (Lo:Hi:Step):(   7:  -1:  -1)
(PID.TID 0000.0001) // RANGE K (Lo:Hi:Step):(   1:   1:   1)
(PID.TID 0000.0001) // =======================================================
(PID.TID 0000.0001) // =======================================================
(PID.TID 0000.0001) // END OF FIELD                                          =
(PID.TID 0000.0001) // =======================================================
(PID.TID 0000.0001) 
(PID.TID 0000.0001) %MON surfExpanfCori_max           =  -1.0735540000000E-04
(PID.TID 0000.0001) %MON surfExpanfCori_min           =  -1.1783060000000E-04
(PID.TID 0000.0001) %MON surfExpanfCori_mean          =  -1.1259300000000E-04
(PID.TID 0000.0001) %MON surfExpanfCori_sd            =   3.7035424771427E-06
(PID.TID 0000.0001) %MON surfExpanfCoriG_max          =  -1.0866480000000E-04
(PID.TID 0000.0001) %MON surfExpanfCoriG_min          =  -1.1914000000000E-04
(PID.TID 0000.0001) %MON surfExpanfCoriG_mean         =  -1.1390240000000E-04
(PID.TID 0000.0001) %MON surfExpanfCoriG_sd           =   3.7035424771427E-06
(PID.TID 0000.0001) %MON surfExpanfCoriCos_max        =   0.0000000000000E+00
(PID.TID 0000.0001) %MON surfExpanfCoriCos_min        =   0.0000000000000E+00
(PID.TID 0000.0001) %MON surfExpanfCoriCos_mean       =   0.0000000000000E+00
(PID.TID 0000.0001) %MON surfExpanfCoriCos_sd         =   0.0000000000000E+00
(PID.TID 0000.0001) INI_CG2D: CG2D normalisation factor =  1.9999999999999996E-04
(PID.TID 0000.0001) 
                     ctrl_depth_ini: ctrl update R_low,
                                     adding the control vector.
(PID.TID 0000.0001)  MDS_READ_FIELD: opening file: xx_depth.0000000000.001.001.data
(PID.TID 0000.0001) // =======================================================
(PID.TID 0000.0001) // Field Model Ro_surf (update_masks_etc) at iteration          1
(PID.TID 0000.0001) // CMIN =          1.000000000000000E+32
(PID.TID 0000.0001) // CMAX =         -1.000000000000000E+32
(PID.TID 0000.0001) // CINT =          0.000000000000000E+00
(PID.TID 0000.0001) // SYMBOLS (CMIN->CMAX): -abcdefghijklmnopqrstuvwxyz+
(PID.TID 0000.0001) //                  0.0: .
(PID.TID 0000.0001) // RANGE I (Lo:Hi:Step):(  -1:   7:   1)
(PID.TID 0000.0001) // RANGE J (Lo:Hi:Step):(   7:  -1:  -1)
(PID.TID 0000.0001) // RANGE K (Lo:Hi:Step):(   1:   1:   1)
(PID.TID 0000.0001) // =======================================================
(PID.TID 0000.0001) // =======================================================
(PID.TID 0000.0001) // END OF FIELD                                          =
(PID.TID 0000.0001) // =======================================================
(PID.TID 0000.0001) 
(PID.TID 0000.0001) // =======================================================
(PID.TID 0000.0001) // Field hFacC at iteration          1
(PID.TID 0000.0001) // CMIN =          1.000000000000000E+00
(PID.TID 0000.0001) // CMAX =          1.000000000000000E+00
(PID.TID 0000.0001) // CINT =          0.000000000000000E+00
(PID.TID 0000.0001) // SYMBOLS (CMIN->CMAX): -abcdefghijklmnopqrstuvwxyz+
(PID.TID 0000.0001) //                  0.0: .
(PID.TID 0000.0001) // RANGE I (Lo:Hi:Step):(  -1:   7:   1)
(PID.TID 0000.0001) // RANGE J (Lo:Hi:Step):(   7:  -1:  -1)
(PID.TID 0000.0001) // RANGE K (Lo:Hi:Step):(   1:   1:   1)
(PID.TID 0000.0001) // =======================================================
(PID.TID 0000.0001) // =======================================================
(PID.TID 0000.0001) // END OF FIELD                                          =
(PID.TID 0000.0001) // =======================================================
(PID.TID 0000.0001) 
(PID.TID 0000.0001) // =======================================================
(PID.TID 0000.0001) // Field hFacW at iteration          1
(PID.TID 0000.0001) // CMIN =          1.000000000000000E+00
(PID.TID 0000.0001) // CMAX =          1.000000000000000E+00
(PID.TID 0000.0001) // CINT =          0.000000000000000E+00
(PID.TID 0000.0001) // SYMBOLS (CMIN->CMAX): -abcdefghijklmnopqrstuvwxyz+
(PID.TID 0000.0001) //                  0.0: .
(PID.TID 0000.0001) // RANGE I (Lo:Hi:Step):(  -1:   7:   1)
(PID.TID 0000.0001) // RANGE J (Lo:Hi:Step):(   7:  -1:  -1)
(PID.TID 0000.0001) // RANGE K (Lo:Hi:Step):(   1:   1:   1)
(PID.TID 0000.0001) // =======================================================
(PID.TID 0000.0001) // =======================================================
(PID.TID 0000.0001) // END OF FIELD                                          =
(PID.TID 0000.0001) // =======================================================
(PID.TID 0000.0001) 
(PID.TID 0000.0001) // =======================================================
(PID.TID 0000.0001) // Field hFacS at iteration          1
(PID.TID 0000.0001) // CMIN =          1.000000000000000E+00
(PID.TID 0000.0001) // CMAX =          1.000000000000000E+00
(PID.TID 0000.0001) // CINT =          0.000000000000000E+00
(PID.TID 0000.0001) // SYMBOLS (CMIN->CMAX): -abcdefghijklmnopqrstuvwxyz+
(PID.TID 0000.0001) //                  0.0: .
(PID.TID 0000.0001) // RANGE I (Lo:Hi:Step):(  -1:   7:   1)
(PID.TID 0000.0001) // RANGE J (Lo:Hi:Step):(   7:  -1:  -1)
(PID.TID 0000.0001) // RANGE K (Lo:Hi:Step):(   1:   1:   1)
(PID.TID 0000.0001) // =======================================================
(PID.TID 0000.0001) // =======================================================
(PID.TID 0000.0001) // END OF FIELD                                          =
(PID.TID 0000.0001) // =======================================================
(PID.TID 0000.0001) 
(PID.TID 0000.0001) // =======================================================
(PID.TID 0000.0001) // Field Initial Temperature at iteration          1
(PID.TID 0000.0001) // CMIN =          4.000000000000000E+00
(PID.TID 0000.0001) // CMAX =          4.000000000000000E+00
(PID.TID 0000.0001) // CINT =          0.000000000000000E+00
(PID.TID 0000.0001) // SYMBOLS (CMIN->CMAX): -abcdefghijklmnopqrstuvwxyz+
(PID.TID 0000.0001) //                  0.0: .
(PID.TID 0000.0001) // RANGE I (Lo:Hi:Step):(   1:   5:   1)
(PID.TID 0000.0001) // RANGE J (Lo:Hi:Step):(   5:   1:  -1)
(PID.TID 0000.0001) // RANGE K (Lo:Hi:Step):(   1:   1:   1)
(PID.TID 0000.0001) // =======================================================
(PID.TID 0000.0001) // =======================================================
(PID.TID 0000.0001) // END OF FIELD                                          =
(PID.TID 0000.0001) // =======================================================
(PID.TID 0000.0001) 
(PID.TID 0000.0001) // =======================================================
(PID.TID 0000.0001) // Field Initial Salinity at iteration          1
(PID.TID 0000.0001) // CMIN =          3.500000000000000E+01
(PID.TID 0000.0001) // CMAX =          3.500000000000000E+01
(PID.TID 0000.0001) // CINT =          0.000000000000000E+00
(PID.TID 0000.0001) // SYMBOLS (CMIN->CMAX): -abcdefghijklmnopqrstuvwxyz+
(PID.TID 0000.0001) //                  0.0: .
(PID.TID 0000.0001) // RANGE I (Lo:Hi:Step):(   1:   5:   1)
(PID.TID 0000.0001) // RANGE J (Lo:Hi:Step):(   5:   1:  -1)
(PID.TID 0000.0001) // RANGE K (Lo:Hi:Step):(   1:   1:   1)
(PID.TID 0000.0001) // =======================================================
(PID.TID 0000.0001) // =======================================================
(PID.TID 0000.0001) // END OF FIELD                                          =
(PID.TID 0000.0001) // =======================================================
(PID.TID 0000.0001) 
(PID.TID 0000.0001) Start initial hydrostatic pressure computation
(PID.TID 0000.0001) Pressure is predetermined for buoyancyRelation OCEANIC
(PID.TID 0000.0001) 
(PID.TID 0000.0001)  MDS_READ_FIELD: opening global file: windx.sin_y
(PID.TID 0000.0001) // =======================================================
(PID.TID 0000.0001) // Model current state
(PID.TID 0000.0001) // =======================================================
(PID.TID 0000.0001) 
 cg2d: Sum(rhs),rhsMax =   0.00000000000000E+00  0.00000000000000E+00
 cg2d: Sum(rhs),rhsMax =  -2.49999999999996E+01  6.03492218443698E-05
 cg2d: Sum(rhs),rhsMax =  -1.81034404639062E+01  2.18766023587219E-04
 cg2d: Sum(rhs),rhsMax =  -1.54955562832187E+01  4.32479836297335E-04
 cg2d: Sum(rhs),rhsMax =  -1.41111452343688E+01  6.49958988257547E-04
 cg2d: Sum(rhs),rhsMax =  -1.31144322335932E+01  8.30737102805737E-04
 cg2d: Sum(rhs),rhsMax =  -1.21209090313656E+01  9.52510662054401E-04
 cg2d: Sum(rhs),rhsMax =  -1.07124742371459E+01  1.02806631163368E-03
 cg2d: Sum(rhs),rhsMax =  -7.41375939099699E+00  1.27086595916404E-03
 cg2d: Sum(rhs),rhsMax =  -4.70217535101334E+00  1.51019013565513E-03
 cg2d: Sum(rhs),rhsMax =  -2.72440686843208E+00  1.65833737756697E-03
 cg2d: Sum(rhs),rhsMax =  -1.27958669417804E+00  1.70565508351455E-03
 cg2d: Sum(rhs),rhsMax =  -3.29564699979331E-01  1.66071960316255E-03
 cg2d: Sum(rhs),rhsMax =   5.21320403325412E-02  1.54812756115550E-03
 cg2d: Sum(rhs),rhsMax =  -2.86625374383092E-01  1.40338816338133E-03
 cg2d: Sum(rhs),rhsMax =  -1.30315843398396E+00  1.44268599708935E-03
 cg2d: Sum(rhs),rhsMax =  -2.68067690265878E+00  1.50836886671731E-03
 cg2d: Sum(rhs),rhsMax =  -4.07407453202526E+00  1.58424366982100E-03
 cg2d: Sum(rhs),rhsMax =  -5.18272347642591E+00  1.66593592974660E-03
 cg2d: Sum(rhs),rhsMax =  -5.80990597752180E+00  1.74846175510262E-03
 cg2d: Sum(rhs),rhsMax =  -5.87740626875975E+00  1.82725971384377E-03
 cg2d: Sum(rhs),rhsMax =  -5.41358310586114E+00  1.89900434912179E-03
 cg2d: Sum(rhs),rhsMax =  -4.53080675978504E+00  1.96213934813643E-03
 cg2d: Sum(rhs),rhsMax =  -3.22587899266212E+00  2.12611202343903E-03
 cg2d: Sum(rhs),rhsMax =  -2.04447212082928E+00  2.24837953388569E-03
 cg2d: Sum(rhs),rhsMax =  -1.10818137255136E+00  2.30404048824838E-03
 cg2d: Sum(rhs),rhsMax =  -4.90484878539776E-01  2.29576532238443E-03
 cg2d: Sum(rhs),rhsMax =  -2.61247061224226E-01  2.23814842274952E-03
 cg2d: Sum(rhs),rhsMax =  -4.50921964868332E-01  2.26266907475838E-03
 cg2d: Sum(rhs),rhsMax =  -1.00469610093177E+00  2.31946123605486E-03
 cg2d: Sum(rhs),rhsMax =  -1.78565330647618E+00  2.37599942188288E-03
 cg2d: Sum(rhs),rhsMax =  -2.62429307789710E+00  2.42805544057762E-03
 cg2d: Sum(rhs),rhsMax =  -3.35748485387374E+00  2.47123045721915E-03
 cg2d: Sum(rhs),rhsMax =  -3.85508916295881E+00  2.50195599063626E-03
 cg2d: Sum(rhs),rhsMax =  -4.03589976482113E+00  2.51830323315649E-03
 cg2d: Sum(rhs),rhsMax =  -3.87512846337703E+00  2.52047519925077E-03
 cg2d: Sum(rhs),rhsMax =  -3.40600366973722E+00  2.51092922659260E-03
 cg2d: Sum(rhs),rhsMax =  -2.61682444470415E+00  2.58874085646083E-03
 cg2d: Sum(rhs),rhsMax =  -1.83238712743234E+00  2.61669728314285E-03
 cg2d: Sum(rhs),rhsMax =  -1.17513338269605E+00  2.56005944582698E-03
 cg2d: Sum(rhs),rhsMax =  -7.11994611505423E-01  2.47855830119675E-03
 cg2d: Sum(rhs),rhsMax =  -5.26422142065188E-01  2.47042093820165E-03
 cg2d: Sum(rhs),rhsMax =  -6.78930205232079E-01  2.49676871668859E-03
 cg2d: Sum(rhs),rhsMax =  -1.12673720958356E+00  2.53652612856174E-03
 cg2d: Sum(rhs),rhsMax =  -1.75981624102475E+00  2.58504765308937E-03
 cg2d: Sum(rhs),rhsMax =  -2.43940634272912E+00  2.63568091768606E-03
 cg2d: Sum(rhs),rhsMax =  -3.03203007672613E+00  2.68092815369162E-03
 cg2d: Sum(rhs),rhsMax =  -3.40991310586126E+00  2.73286304862914E-03
 cg2d: Sum(rhs),rhsMax =  -3.48046021969934E+00  2.80943923358417E-03
 cg2d: Sum(rhs),rhsMax =  -3.32063071835555E+00  2.84054009678713E-03
 cg2d: Sum(rhs),rhsMax =  -2.96079446371781E+00  2.82589058649657E-03
 cg2d: Sum(rhs),rhsMax =  -2.32992812529280E+00  2.92147972748050E-03
 cg2d: Sum(rhs),rhsMax =  -1.72242457051771E+00  2.94384960910162E-03
 cg2d: Sum(rhs),rhsMax =  -1.21221904066537E+00  2.89157777894546E-03
 cg2d: Sum(rhs),rhsMax =  -8.69698395770899E-01  2.78046455495128E-03
 cg2d: Sum(rhs),rhsMax =  -7.64867805635443E-01  2.63730948067830E-03
 cg2d: Sum(rhs),rhsMax =  -9.31747840013766E-01  2.54529703845777E-03
 cg2d: Sum(rhs),rhsMax =  -1.31074337933364E+00  2.59464769084116E-03
 cg2d: Sum(rhs),rhsMax =  -1.82960842226629E+00  2.67470088724546E-03
 cg2d: Sum(rhs),rhsMax =  -2.36415408283361E+00  2.77096212756890E-03
 cg2d: Sum(rhs),rhsMax =  -2.80794778555686E+00  2.86583706679759E-03
 cg2d: Sum(rhs),rhsMax =  -3.09076537041684E+00  2.94225354771683E-03
 cg2d: Sum(rhs),rhsMax =  -3.17911022968915E+00  2.98708407634196E-03
 cg2d: Sum(rhs),rhsMax =  -3.06968979868368E+00  2.99369702494222E-03
 cg2d: Sum(rhs),rhsMax =  -2.74200033409222E+00  3.00868113242000E-03
 cg2d: Sum(rhs),rhsMax =  -2.22987020621891E+00  3.08320493727791E-03
 cg2d: Sum(rhs),rhsMax =  -1.72892386005659E+00  3.09216599815411E-03
 cg2d: Sum(rhs),rhsMax =  -1.30661127599863E+00  3.03707921425676E-03
 cg2d: Sum(rhs),rhsMax =  -1.02724588875752E+00  2.93201252065411E-03
 cg2d: Sum(rhs),rhsMax =  -9.49612096219887E-01  2.80059565818962E-03
 cg2d: Sum(rhs),rhsMax =  -1.10546681683741E+00  2.68802012507948E-03
 cg2d: Sum(rhs),rhsMax =  -1.41911846075594E+00  2.73183504466907E-03
 cg2d: Sum(rhs),rhsMax =  -1.85263652624226E+00  2.80075124605904E-03
 cg2d: Sum(rhs),rhsMax =  -2.30607105677313E+00  2.88121984916690E-03
 cg2d: Sum(rhs),rhsMax =  -2.69038333531659E+00  2.95745899156284E-03
 cg2d: Sum(rhs),rhsMax =  -2.94313285612072E+00  3.01465310179468E-03
 cg2d: Sum(rhs),rhsMax =  -3.03123924558187E+00  3.04190026379866E-03
 cg2d: Sum(rhs),rhsMax =  -2.94785323009624E+00  3.03433140620582E-03
 cg2d: Sum(rhs),rhsMax =  -2.61356659503150E+00  3.10365974808170E-03
 cg2d: Sum(rhs),rhsMax =  -2.18161321062016E+00  3.16115501746174E-03
 cg2d: Sum(rhs),rhsMax =  -1.75526126875673E+00  3.15966310241848E-03
 cg2d: Sum(rhs),rhsMax =  -1.39603746087157E+00  3.10114909022896E-03
 cg2d: Sum(rhs),rhsMax =  -1.16177142550955E+00  2.99876542279668E-03
 cg2d: Sum(rhs),rhsMax =  -1.10293749789897E+00  2.87411080062684E-03
 cg2d: Sum(rhs),rhsMax =  -1.24975137217221E+00  2.75286351265558E-03
 cg2d: Sum(rhs),rhsMax =  -1.53840870965283E+00  2.75098216012185E-03
 cg2d: Sum(rhs),rhsMax =  -1.91301874787497E+00  2.81271668464291E-03
 cg2d: Sum(rhs),rhsMax =  -2.30705943357104E+00  2.88449380465033E-03
 cg2d: Sum(rhs),rhsMax =  -2.64297556566593E+00  2.95188724830313E-03
 cg2d: Sum(rhs),rhsMax =  -2.86495133194953E+00  3.00154117844178E-03
 cg2d: Sum(rhs),rhsMax =  -2.94238812642152E+00  3.02377925387832E-03
 cg2d: Sum(rhs),rhsMax =  -2.84207319125436E+00  3.04217203219770E-03
 cg2d: Sum(rhs),rhsMax =  -2.51902181183301E+00  3.13830801615743E-03
 cg2d: Sum(rhs),rhsMax =  -2.14123735064679E+00  3.18959320227779E-03
 cg2d: Sum(rhs),rhsMax =  -1.76835923397693E+00  3.18714929296525E-03
 cg2d: Sum(rhs),rhsMax =  -1.45590353790302E+00  3.13272226310051E-03
 cg2d: Sum(rhs),rhsMax =  -1.25508074913673E+00  3.03818414503876E-03
 cg2d: Sum(rhs),rhsMax =  -1.20874908206145E+00  2.92305989399627E-03
 cg2d: Sum(rhs),rhsMax =  -1.34034315439997E+00  2.81059303701137E-03
 cg2d: Sum(rhs),rhsMax =  -1.62624334953177E+00  2.74190571765156E-03
(PID.TID 0000.0001) %CHECKPOINT       100 ckptB
 --> objf_test(bi,bj)   =  0.509071980794168E-01
 --> objf_tracer(bi,bj) =  0.000000000000000E+00
 --> objf_atl(bi,bj)    =  0.000000000000000E+00
  local fc =  0.509071980794168E-01
 global fc =  0.509071980794168E-01
(PID.TID 0000.0001)  MDS_READ_FIELD: opening file: xx_depth.0000000000.001.001.data
grad-res -------------------------------
 grad-res     0   17    2    4    1    1    1    1   0.509071982062E-01 0.509071983329E-01 0.509071980794E-01
 grad-res     0   17   17   17   25    1    1    1   0.126704929452E-05 0.126734719941E-05 -.235117047716E-03
(PID.TID 0000.0001)   ADM  precision_derivative_cost =    5.09071982061515E-02
(PID.TID 0000.0001)   ADM  precision_derivative_grad =    1.26704929451792E-06
 ph-grd  ierr ---------------------------
 ph-grd  ierr =  0, icomp =  17, ichknum =  17
 ph-grd -->hit<--  3 4 1 1
(PID.TID 0000.0001)  MDS_READ_FIELD: opening file: adxx_depth.0000000000.001.001.data
(PID.TID 0000.0001)  MDS_READ_FIELD: opening file: xx_depth.0000000000.001.001.data
(PID.TID 0000.0001)  MDS_READ_FIELD: opening global file: noWalls.bigRidge
(PID.TID 0000.0001) // =======================================================
(PID.TID 0000.0001) // Field Model R_low (ini_masks_etc) at iteration          1
(PID.TID 0000.0001) // CMIN =         -5.000000000000000E+03
(PID.TID 0000.0001) // CMAX =         -2.000000000000000E+03
(PID.TID 0000.0001) // CINT =          1.111111111111111E+02
(PID.TID 0000.0001) // SYMBOLS (CMIN->CMAX): -abcdefghijklmnopqrstuvwxyz+
(PID.TID 0000.0001) //                  0.0: .
(PID.TID 0000.0001) // RANGE I (Lo:Hi:Step):(  -1:   7:   1)
(PID.TID 0000.0001) // RANGE J (Lo:Hi:Step):(   7:  -1:  -1)
(PID.TID 0000.0001) // RANGE K (Lo:Hi:Step):(   1:   1:   1)
(PID.TID 0000.0001) // =======================================================
(PID.TID 0000.0001) K =   1
(PID.TID 0000.0001) //
(PID.TID 0000.0001) // |--J--|101234567
(PID.TID 0000.0001) //      7 ----+----
(PID.TID 0000.0001) //      6 ----+----
(PID.TID 0000.0001) //      5 ----+----
(PID.TID 0000.0001) //      4 ----+----
(PID.TID 0000.0001) //      3 ----+----
(PID.TID 0000.0001) //      2 ----+----
(PID.TID 0000.0001) //      1 ----+----
(PID.TID 0000.0001) //      0 ----+----
(PID.TID 0000.0001) //     -1 ----+----
(PID.TID 0000.0001) // =======================================================
(PID.TID 0000.0001) // END OF FIELD                                          =
(PID.TID 0000.0001) // =======================================================
(PID.TID 0000.0001) 
(PID.TID 0000.0001) // =======================================================
(PID.TID 0000.0001) // Field Model Ro_surf (ini_masks_etc) at iteration          1
(PID.TID 0000.0001) // CMIN =          1.000000000000000E+32
(PID.TID 0000.0001) // CMAX =         -1.000000000000000E+32
(PID.TID 0000.0001) // CINT =          0.000000000000000E+00
(PID.TID 0000.0001) // SYMBOLS (CMIN->CMAX): -abcdefghijklmnopqrstuvwxyz+
(PID.TID 0000.0001) //                  0.0: .
(PID.TID 0000.0001) // RANGE I (Lo:Hi:Step):(  -1:   7:   1)
(PID.TID 0000.0001) // RANGE J (Lo:Hi:Step):(   7:  -1:  -1)
(PID.TID 0000.0001) // RANGE K (Lo:Hi:Step):(   1:   1:   1)
(PID.TID 0000.0001) // =======================================================
(PID.TID 0000.0001) // =======================================================
(PID.TID 0000.0001) // END OF FIELD                                          =
(PID.TID 0000.0001) // =======================================================
(PID.TID 0000.0001) 
(PID.TID 0000.0001) // =======================================================
(PID.TID 0000.0001) // Field hFacC at iteration          1
(PID.TID 0000.0001) // CMIN =          1.000000000000000E+00
(PID.TID 0000.0001) // CMAX =          1.000000000000000E+00
(PID.TID 0000.0001) // CINT =          0.000000000000000E+00
(PID.TID 0000.0001) // SYMBOLS (CMIN->CMAX): -abcdefghijklmnopqrstuvwxyz+
(PID.TID 0000.0001) //                  0.0: .
(PID.TID 0000.0001) // RANGE I (Lo:Hi:Step):(  -1:   7:   1)
(PID.TID 0000.0001) // RANGE J (Lo:Hi:Step):(   7:  -1:  -1)
(PID.TID 0000.0001) // RANGE K (Lo:Hi:Step):(   1:   1:   1)
(PID.TID 0000.0001) // =======================================================
(PID.TID 0000.0001) // =======================================================
(PID.TID 0000.0001) // END OF FIELD                                          =
(PID.TID 0000.0001) // =======================================================
(PID.TID 0000.0001) 
(PID.TID 0000.0001) // =======================================================
(PID.TID 0000.0001) // Field hFacW at iteration          1
(PID.TID 0000.0001) // CMIN =          1.000000000000000E+00
(PID.TID 0000.0001) // CMAX =          1.000000000000000E+00
(PID.TID 0000.0001) // CINT =          0.000000000000000E+00
(PID.TID 0000.0001) // SYMBOLS (CMIN->CMAX): -abcdefghijklmnopqrstuvwxyz+
(PID.TID 0000.0001) //                  0.0: .
(PID.TID 0000.0001) // RANGE I (Lo:Hi:Step):(  -1:   7:   1)
(PID.TID 0000.0001) // RANGE J (Lo:Hi:Step):(   7:  -1:  -1)
(PID.TID 0000.0001) // RANGE K (Lo:Hi:Step):(   1:   1:   1)
(PID.TID 0000.0001) // =======================================================
(PID.TID 0000.0001) // =======================================================
(PID.TID 0000.0001) // END OF FIELD                                          =
(PID.TID 0000.0001) // =======================================================
(PID.TID 0000.0001) 
(PID.TID 0000.0001) // =======================================================
(PID.TID 0000.0001) // Field hFacS at iteration          1
(PID.TID 0000.0001) // CMIN =          1.000000000000000E+00
(PID.TID 0000.0001) // CMAX =          1.000000000000000E+00
(PID.TID 0000.0001) // CINT =          0.000000000000000E+00
(PID.TID 0000.0001) // SYMBOLS (CMIN->CMAX): -abcdefghijklmnopqrstuvwxyz+
(PID.TID 0000.0001) //                  0.0: .
(PID.TID 0000.0001) // RANGE I (Lo:Hi:Step):(  -1:   7:   1)
(PID.TID 0000.0001) // RANGE J (Lo:Hi:Step):(   7:  -1:  -1)
(PID.TID 0000.0001) // RANGE K (Lo:Hi:Step):(   1:   1:   1)
(PID.TID 0000.0001) // =======================================================
(PID.TID 0000.0001) // =======================================================
(PID.TID 0000.0001) // END OF FIELD                                          =
(PID.TID 0000.0001) // =======================================================
(PID.TID 0000.0001) 
(PID.TID 0000.0001) %MON surfExpanfCori_max           =  -1.0735540000000E-04
(PID.TID 0000.0001) %MON surfExpanfCori_min           =  -1.1783060000000E-04
(PID.TID 0000.0001) %MON surfExpanfCori_mean          =  -1.1259300000000E-04
(PID.TID 0000.0001) %MON surfExpanfCori_sd            =   3.7035424771427E-06
(PID.TID 0000.0001) %MON surfExpanfCoriG_max          =  -1.0866480000000E-04
(PID.TID 0000.0001) %MON surfExpanfCoriG_min          =  -1.1914000000000E-04
(PID.TID 0000.0001) %MON surfExpanfCoriG_mean         =  -1.1390240000000E-04
(PID.TID 0000.0001) %MON surfExpanfCoriG_sd           =   3.7035424771427E-06
(PID.TID 0000.0001) %MON surfExpanfCoriCos_max        =   0.0000000000000E+00
(PID.TID 0000.0001) %MON surfExpanfCoriCos_min        =   0.0000000000000E+00
(PID.TID 0000.0001) %MON surfExpanfCoriCos_mean       =   0.0000000000000E+00
(PID.TID 0000.0001) %MON surfExpanfCoriCos_sd         =   0.0000000000000E+00
(PID.TID 0000.0001) INI_CG2D: CG2D normalisation factor =  1.9999999999999996E-04
(PID.TID 0000.0001) 
                     ctrl_depth_ini: ctrl update R_low,
                                     adding the control vector.
(PID.TID 0000.0001)  MDS_READ_FIELD: opening file: xx_depth.0000000000.001.001.data
(PID.TID 0000.0001) // =======================================================
(PID.TID 0000.0001) // Field Model Ro_surf (update_masks_etc) at iteration          1
(PID.TID 0000.0001) // CMIN =          1.000000000000000E+32
(PID.TID 0000.0001) // CMAX =         -1.000000000000000E+32
(PID.TID 0000.0001) // CINT =          0.000000000000000E+00
(PID.TID 0000.0001) // SYMBOLS (CMIN->CMAX): -abcdefghijklmnopqrstuvwxyz+
(PID.TID 0000.0001) //                  0.0: .
(PID.TID 0000.0001) // RANGE I (Lo:Hi:Step):(  -1:   7:   1)
(PID.TID 0000.0001) // RANGE J (Lo:Hi:Step):(   7:  -1:  -1)
(PID.TID 0000.0001) // RANGE K (Lo:Hi:Step):(   1:   1:   1)
(PID.TID 0000.0001) // =======================================================
(PID.TID 0000.0001) // =======================================================
(PID.TID 0000.0001) // END OF FIELD                                          =
(PID.TID 0000.0001) // =======================================================
(PID.TID 0000.0001) 
(PID.TID 0000.0001) // =======================================================
(PID.TID 0000.0001) // Field hFacC at iteration          1
(PID.TID 0000.0001) // CMIN =          1.000000000000000E+00
(PID.TID 0000.0001) // CMAX =          1.000000000000000E+00
(PID.TID 0000.0001) // CINT =          0.000000000000000E+00
(PID.TID 0000.0001) // SYMBOLS (CMIN->CMAX): -abcdefghijklmnopqrstuvwxyz+
(PID.TID 0000.0001) //                  0.0: .
(PID.TID 0000.0001) // RANGE I (Lo:Hi:Step):(  -1:   7:   1)
(PID.TID 0000.0001) // RANGE J (Lo:Hi:Step):(   7:  -1:  -1)
(PID.TID 0000.0001) // RANGE K (Lo:Hi:Step):(   1:   1:   1)
(PID.TID 0000.0001) // =======================================================
(PID.TID 0000.0001) // =======================================================
(PID.TID 0000.0001) // END OF FIELD                                          =
(PID.TID 0000.0001) // =======================================================
(PID.TID 0000.0001) 
(PID.TID 0000.0001) // =======================================================
(PID.TID 0000.0001) // Field hFacW at iteration          1
(PID.TID 0000.0001) // CMIN =          1.000000000000000E+00
(PID.TID 0000.0001) // CMAX =          1.000000000000000E+00
(PID.TID 0000.0001) // CINT =          0.000000000000000E+00
(PID.TID 0000.0001) // SYMBOLS (CMIN->CMAX): -abcdefghijklmnopqrstuvwxyz+
(PID.TID 0000.0001) //                  0.0: .
(PID.TID 0000.0001) // RANGE I (Lo:Hi:Step):(  -1:   7:   1)
(PID.TID 0000.0001) // RANGE J (Lo:Hi:Step):(   7:  -1:  -1)
(PID.TID 0000.0001) // RANGE K (Lo:Hi:Step):(   1:   1:   1)
(PID.TID 0000.0001) // =======================================================
(PID.TID 0000.0001) // =======================================================
(PID.TID 0000.0001) // END OF FIELD                                          =
(PID.TID 0000.0001) // =======================================================
(PID.TID 0000.0001) 
(PID.TID 0000.0001) // =======================================================
(PID.TID 0000.0001) // Field hFacS at iteration          1
(PID.TID 0000.0001) // CMIN =          1.000000000000000E+00
(PID.TID 0000.0001) // CMAX =          1.000000000000000E+00
(PID.TID 0000.0001) // CINT =          0.000000000000000E+00
(PID.TID 0000.0001) // SYMBOLS (CMIN->CMAX): -abcdefghijklmnopqrstuvwxyz+
(PID.TID 0000.0001) //                  0.0: .
(PID.TID 0000.0001) // RANGE I (Lo:Hi:Step):(  -1:   7:   1)
(PID.TID 0000.0001) // RANGE J (Lo:Hi:Step):(   7:  -1:  -1)
(PID.TID 0000.0001) // RANGE K (Lo:Hi:Step):(   1:   1:   1)
(PID.TID 0000.0001) // =======================================================
(PID.TID 0000.0001) // =======================================================
(PID.TID 0000.0001) // END OF FIELD                                          =
(PID.TID 0000.0001) // =======================================================
(PID.TID 0000.0001) 
(PID.TID 0000.0001) // =======================================================
(PID.TID 0000.0001) // Field Initial Temperature at iteration          1
(PID.TID 0000.0001) // CMIN =          4.000000000000000E+00
(PID.TID 0000.0001) // CMAX =          4.000000000000000E+00
(PID.TID 0000.0001) // CINT =          0.000000000000000E+00
(PID.TID 0000.0001) // SYMBOLS (CMIN->CMAX): -abcdefghijklmnopqrstuvwxyz+
(PID.TID 0000.0001) //                  0.0: .
(PID.TID 0000.0001) // RANGE I (Lo:Hi:Step):(   1:   5:   1)
(PID.TID 0000.0001) // RANGE J (Lo:Hi:Step):(   5:   1:  -1)
(PID.TID 0000.0001) // RANGE K (Lo:Hi:Step):(   1:   1:   1)
(PID.TID 0000.0001) // =======================================================
(PID.TID 0000.0001) // =======================================================
(PID.TID 0000.0001) // END OF FIELD                                          =
(PID.TID 0000.0001) // =======================================================
(PID.TID 0000.0001) 
(PID.TID 0000.0001) // =======================================================
(PID.TID 0000.0001) // Field Initial Salinity at iteration          1
(PID.TID 0000.0001) // CMIN =          3.500000000000000E+01
(PID.TID 0000.0001) // CMAX =          3.500000000000000E+01
(PID.TID 0000.0001) // CINT =          0.000000000000000E+00
(PID.TID 0000.0001) // SYMBOLS (CMIN->CMAX): -abcdefghijklmnopqrstuvwxyz+
(PID.TID 0000.0001) //                  0.0: .
(PID.TID 0000.0001) // RANGE I (Lo:Hi:Step):(   1:   5:   1)
(PID.TID 0000.0001) // RANGE J (Lo:Hi:Step):(   5:   1:  -1)
(PID.TID 0000.0001) // RANGE K (Lo:Hi:Step):(   1:   1:   1)
(PID.TID 0000.0001) // =======================================================
(PID.TID 0000.0001) // =======================================================
(PID.TID 0000.0001) // END OF FIELD                                          =
(PID.TID 0000.0001) // =======================================================
(PID.TID 0000.0001) 
(PID.TID 0000.0001) Start initial hydrostatic pressure computation
(PID.TID 0000.0001) Pressure is predetermined for buoyancyRelation OCEANIC
(PID.TID 0000.0001) 
(PID.TID 0000.0001)  MDS_READ_FIELD: opening global file: windx.sin_y
(PID.TID 0000.0001) // =======================================================
(PID.TID 0000.0001) // Model current state
(PID.TID 0000.0001) // =======================================================
(PID.TID 0000.0001) 
 cg2d: Sum(rhs),rhsMax =   0.00000000000000E+00  0.00000000000000E+00
 cg2d: Sum(rhs),rhsMax =  -2.49999999999996E+01  6.03492218443698E-05
 cg2d: Sum(rhs),rhsMax =  -1.81034404639062E+01  2.18766023587219E-04
 cg2d: Sum(rhs),rhsMax =  -1.54955562832147E+01  4.32479836297446E-04
 cg2d: Sum(rhs),rhsMax =  -1.41111452325340E+01  6.49958988342837E-04
 cg2d: Sum(rhs),rhsMax =  -1.31144322330128E+01  8.30737102845817E-04
 cg2d: Sum(rhs),rhsMax =  -1.21209090332519E+01  9.52510661913700E-04
 cg2d: Sum(rhs),rhsMax =  -1.07124742394242E+01  1.02806631142716E-03
 cg2d: Sum(rhs),rhsMax =  -7.41375936696104E+00  1.27086596330053E-03
 cg2d: Sum(rhs),rhsMax =  -4.70217533306062E+00  1.51019014142487E-03
 cg2d: Sum(rhs),rhsMax =  -2.72440685725404E+00  1.65833738429254E-03
 cg2d: Sum(rhs),rhsMax =  -1.27958668875942E+00  1.70565509027666E-03
 cg2d: Sum(rhs),rhsMax =  -3.29564698172919E-01  1.66071960897253E-03
 cg2d: Sum(rhs),rhsMax =   5.21320412515563E-02  1.54812756514099E-03
 cg2d: Sum(rhs),rhsMax =  -2.86625372558574E-01  1.40338816495113E-03
 cg2d: Sum(rhs),rhsMax =  -1.30315843093892E+00  1.44268599863648E-03
 cg2d: Sum(rhs),rhsMax =  -2.68067690016348E+00  1.50836886727477E-03
 cg2d: Sum(rhs),rhsMax =  -4.07407453306037E+00  1.58424366901468E-03
 cg2d: Sum(rhs),rhsMax =  -5.18272348373860E+00  1.66593592731736E-03
 cg2d: Sum(rhs),rhsMax =  -5.80990599217050E+00  1.74846175094684E-03
 cg2d: Sum(rhs),rhsMax =  -5.87740628961602E+00  1.82725970802676E-03
 cg2d: Sum(rhs),rhsMax =  -5.41358313014537E+00  1.89900434186043E-03
 cg2d: Sum(rhs),rhsMax =  -4.53080678419430E+00  1.96213933975329E-03
 cg2d: Sum(rhs),rhsMax =  -3.22587899966548E+00  2.12611202285155E-03
 cg2d: Sum(rhs),rhsMax =  -2.04447212765171E+00  2.24837953412018E-03
 cg2d: Sum(rhs),rhsMax =  -1.10818138038271E+00  2.30404048839095E-03
 cg2d: Sum(rhs),rhsMax =  -4.90484887482793E-01  2.29576532140627E-03
 cg2d: Sum(rhs),rhsMax =  -2.61247071136428E-01  2.23814841969780E-03
 cg2d: Sum(rhs),rhsMax =  -4.50921976894660E-01  2.26266906396726E-03
 cg2d: Sum(rhs),rhsMax =  -1.00469611601689E+00  2.31946122427472E-03
 cg2d: Sum(rhs),rhsMax =  -1.78565332658066E+00  2.37599940862581E-03
 cg2d: Sum(rhs),rhsMax =  -2.62429310482204E+00  2.42805542536626E-03
 cg2d: Sum(rhs),rhsMax =  -3.35748488884351E+00  2.47123043966065E-03
 cg2d: Sum(rhs),rhsMax =  -3.85508920610717E+00  2.50195597048046E-03
 cg2d: Sum(rhs),rhsMax =  -4.03589981483263E+00  2.51830321032796E-03
 cg2d: Sum(rhs),rhsMax =  -3.87512851750367E+00  2.52047517384931E-03
 cg2d: Sum(rhs),rhsMax =  -3.40600372428743E+00  2.51092919886315E-03
 cg2d: Sum(rhs),rhsMax =  -2.61682443173684E+00  2.58874088727470E-03
 cg2d: Sum(rhs),rhsMax =  -1.83238712559050E+00  2.61669731374020E-03
 cg2d: Sum(rhs),rhsMax =  -1.17513339010036E+00  2.56005947628714E-03
 cg2d: Sum(rhs),rhsMax =  -7.11994637125081E-01  2.47855829257774E-03
 cg2d: Sum(rhs),rhsMax =  -5.26422173379640E-01  2.47042090335742E-03
 cg2d: Sum(rhs),rhsMax =  -6.78930238962079E-01  2.49676868072875E-03
 cg2d: Sum(rhs),rhsMax =  -1.12673724977068E+00  2.53652609129663E-03
 cg2d: Sum(rhs),rhsMax =  -1.75981629058803E+00  2.58504761425517E-03
 cg2d: Sum(rhs),rhsMax =  -2.43940640302131E+00  2.63568087700241E-03
 cg2d: Sum(rhs),rhsMax =  -3.03203014745150E+00  2.68092811092037E-03
 cg2d: Sum(rhs),rhsMax =  -3.40991315111685E+00  2.73286303018442E-03
 cg2d: Sum(rhs),rhsMax =  -3.48046026538559E+00  2.80943921460989E-03
 cg2d: Sum(rhs),rhsMax =  -3.32063076388357E+00  2.84054007724517E-03
 cg2d: Sum(rhs),rhsMax =  -2.96079450850163E+00  2.82589056634966E-03
 cg2d: Sum(rhs),rhsMax =  -2.32992811359242E+00  2.92147977193103E-03
 cg2d: Sum(rhs),rhsMax =  -1.72242456861778E+00  2.94384965385550E-03
 cg2d: Sum(rhs),rhsMax =  -1.21221904701236E+00  2.89157782392382E-03
 cg2d: Sum(rhs),rhsMax =  -8.69698407978896E-01  2.78046460018782E-03
 cg2d: Sum(rhs),rhsMax =  -7.64867819940123E-01  2.63730952629610E-03
 cg2d: Sum(rhs),rhsMax =  -9.31747876496181E-01  2.54529701492801E-03
 cg2d: Sum(rhs),rhsMax =  -1.31074341777831E+00  2.59464766696623E-03
 cg2d: Sum(rhs),rhsMax =  -1.82960846327750E+00  2.67470086309759E-03
 cg2d: Sum(rhs),rhsMax =  -2.36415412616803E+00  2.77096210320352E-03
 cg2d: Sum(rhs),rhsMax =  -2.80794783043798E+00  2.86583704224867E-03
 cg2d: Sum(rhs),rhsMax =  -3.09076541589474E+00  2.94225352299697E-03
 cg2d: Sum(rhs),rhsMax =  -3.17911027483695E+00  2.98708405144676E-03
 cg2d: Sum(rhs),rhsMax =  -3.06968984262739E+00  2.99369699985832E-03
 cg2d: Sum(rhs),rhsMax =  -2.74200030398541E+00  3.00868118503759E-03
 cg2d: Sum(rhs),rhsMax =  -2.22987018499052E+00  3.08320499031064E-03
 cg2d: Sum(rhs),rhsMax =  -1.72892384685038E+00  3.09216605156226E-03
 cg2d: Sum(rhs),rhsMax =  -1.30661126913023E+00  3.03707926806337E-03
 cg2d: Sum(rhs),rhsMax =  -1.02724588556036E+00  2.93201257493530E-03
 cg2d: Sum(rhs),rhsMax =  -9.49612092698348E-01  2.80059571305269E-03
 cg2d: Sum(rhs),rhsMax =  -1.10546684126067E+00  2.68802009923095E-03
 cg2d: Sum(rhs),rhsMax =  -1.41911848550445E+00  2.73183501897168E-03
 cg2d: Sum(rhs),rhsMax =  -1.85263655194399E+00  2.80075122058025E-03
 cg2d: Sum(rhs),rhsMax =  -2.30607108333357E+00  2.88121982395454E-03
 cg2d: Sum(rhs),rhsMax =  -2.69038336214781E+00  2.95745896664196E-03
 cg2d: Sum(rhs),rhsMax =  -2.94313288241399E+00  3.01465307716903E-03
 cg2d: Sum(rhs),rhsMax =  -3.03123927047036E+00  3.04190023945669E-03
 cg2d: Sum(rhs),rhsMax =  -2.94785325270090E+00  3.03433138212971E-03
 cg2d: Sum(rhs),rhsMax =  -2.61356654269969E+00  3.10365980778772E-03
 cg2d: Sum(rhs),rhsMax =  -2.18161316610947E+00  3.16115507718448E-03
 cg2d: Sum(rhs),rhsMax =  -1.75526123084290E+00  3.15966316217912E-03
 cg2d: Sum(rhs),rhsMax =  -1.39603742739795E+00  3.10114915012275E-03
 cg2d: Sum(rhs),rhsMax =  -1.16177139334486E+00  2.99876548297602E-03
 cg2d: Sum(rhs),rhsMax =  -1.10293746278849E+00  2.87411086127302E-03
 cg2d: Sum(rhs),rhsMax =  -1.24975132889520E+00  2.75286357394454E-03
 cg2d: Sum(rhs),rhsMax =  -1.53840870253817E+00  2.75098213915727E-03
 cg2d: Sum(rhs),rhsMax =  -1.91301873980653E+00  2.81271666436100E-03
 cg2d: Sum(rhs),rhsMax =  -2.30705942456097E+00  2.88449378508645E-03
 cg2d: Sum(rhs),rhsMax =  -2.64297555531769E+00  2.95188722946581E-03
 cg2d: Sum(rhs),rhsMax =  -2.86495131964841E+00  3.00154116031508E-03
 cg2d: Sum(rhs),rhsMax =  -2.94238811145755E+00  3.02377923642906E-03
 cg2d: Sum(rhs),rhsMax =  -2.84207309580945E+00  3.04217209789890E-03
 cg2d: Sum(rhs),rhsMax =  -2.51902172394536E+00  3.13830808188768E-03
 cg2d: Sum(rhs),rhsMax =  -2.14123726995555E+00  3.18959326792639E-03
 cg2d: Sum(rhs),rhsMax =  -1.76835915879187E+00  3.18714935849892E-03
 cg2d: Sum(rhs),rhsMax =  -1.45590346552215E+00  3.13272232856772E-03
 cg2d: Sum(rhs),rhsMax =  -1.25508067593753E+00  3.03818421055931E-03
 cg2d: Sum(rhs),rhsMax =  -1.20874900355755E+00  2.92305995973856E-03
 cg2d: Sum(rhs),rhsMax =  -1.34034306561386E+00  2.81059310316152E-03
 cg2d: Sum(rhs),rhsMax =  -1.62624329337253E+00  2.74190570626386E-03
(PID.TID 0000.0001) %CHECKPOINT       100 ckptA
 --> objf_test(bi,bj)   =  0.509071987346090E-01
 --> objf_tracer(bi,bj) =  0.000000000000000E+00
 --> objf_atl(bi,bj)    =  0.000000000000000E+00
  local fc =  0.509071987346090E-01
 global fc =  0.509071987346090E-01
 ph-check fcpertplus =   0.0509071987
(PID.TID 0000.0001)  MDS_READ_FIELD: opening file: xx_depth.0000000000.001.001.data
 ph-check fcpertminus =   0.0509071982
(PID.TID 0000.0001)  MDS_READ_FIELD: opening file: xx_depth.0000000000.001.001.data
(PID.TID 0000.0001)  MDS_READ_FIELD: opening global file: noWalls.bigRidge
(PID.TID 0000.0001) // =======================================================
(PID.TID 0000.0001) // Field Model R_low (ini_masks_etc) at iteration          1
(PID.TID 0000.0001) // CMIN =         -5.000000000000000E+03
(PID.TID 0000.0001) // CMAX =         -2.000000000000000E+03
(PID.TID 0000.0001) // CINT =          1.111111111111111E+02
(PID.TID 0000.0001) // SYMBOLS (CMIN->CMAX): -abcdefghijklmnopqrstuvwxyz+
(PID.TID 0000.0001) //                  0.0: .
(PID.TID 0000.0001) // RANGE I (Lo:Hi:Step):(  -1:   7:   1)
(PID.TID 0000.0001) // RANGE J (Lo:Hi:Step):(   7:  -1:  -1)
(PID.TID 0000.0001) // RANGE K (Lo:Hi:Step):(   1:   1:   1)
(PID.TID 0000.0001) // =======================================================
(PID.TID 0000.0001) K =   1
(PID.TID 0000.0001) //
(PID.TID 0000.0001) // |--J--|101234567
(PID.TID 0000.0001) //      7 ----+----
(PID.TID 0000.0001) //      6 ----+----
(PID.TID 0000.0001) //      5 ----+----
(PID.TID 0000.0001) //      4 ----+----
(PID.TID 0000.0001) //      3 ----+----
(PID.TID 0000.0001) //      2 ----+----
(PID.TID 0000.0001) //      1 ----+----
(PID.TID 0000.0001) //      0 ----+----
(PID.TID 0000.0001) //     -1 ----+----
(PID.TID 0000.0001) // =======================================================
(PID.TID 0000.0001) // END OF FIELD                                          =
(PID.TID 0000.0001) // =======================================================
(PID.TID 0000.0001) 
(PID.TID 0000.0001) // =======================================================
(PID.TID 0000.0001) // Field Model Ro_surf (ini_masks_etc) at iteration          1
(PID.TID 0000.0001) // CMIN =          1.000000000000000E+32
(PID.TID 0000.0001) // CMAX =         -1.000000000000000E+32
(PID.TID 0000.0001) // CINT =          0.000000000000000E+00
(PID.TID 0000.0001) // SYMBOLS (CMIN->CMAX): -abcdefghijklmnopqrstuvwxyz+
(PID.TID 0000.0001) //                  0.0: .
(PID.TID 0000.0001) // RANGE I (Lo:Hi:Step):(  -1:   7:   1)
(PID.TID 0000.0001) // RANGE J (Lo:Hi:Step):(   7:  -1:  -1)
(PID.TID 0000.0001) // RANGE K (Lo:Hi:Step):(   1:   1:   1)
(PID.TID 0000.0001) // =======================================================
(PID.TID 0000.0001) // =======================================================
(PID.TID 0000.0001) // END OF FIELD                                          =
(PID.TID 0000.0001) // =======================================================
(PID.TID 0000.0001) 
(PID.TID 0000.0001) // =======================================================
(PID.TID 0000.0001) // Field hFacC at iteration          1
(PID.TID 0000.0001) // CMIN =          1.000000000000000E+00
(PID.TID 0000.0001) // CMAX =          1.000000000000000E+00
(PID.TID 0000.0001) // CINT =          0.000000000000000E+00
(PID.TID 0000.0001) // SYMBOLS (CMIN->CMAX): -abcdefghijklmnopqrstuvwxyz+
(PID.TID 0000.0001) //                  0.0: .
(PID.TID 0000.0001) // RANGE I (Lo:Hi:Step):(  -1:   7:   1)
(PID.TID 0000.0001) // RANGE J (Lo:Hi:Step):(   7:  -1:  -1)
(PID.TID 0000.0001) // RANGE K (Lo:Hi:Step):(   1:   1:   1)
(PID.TID 0000.0001) // =======================================================
(PID.TID 0000.0001) // =======================================================
(PID.TID 0000.0001) // END OF FIELD                                          =
(PID.TID 0000.0001) // =======================================================
(PID.TID 0000.0001) 
(PID.TID 0000.0001) // =======================================================
(PID.TID 0000.0001) // Field hFacW at iteration          1
(PID.TID 0000.0001) // CMIN =          1.000000000000000E+00
(PID.TID 0000.0001) // CMAX =          1.000000000000000E+00
(PID.TID 0000.0001) // CINT =          0.000000000000000E+00
(PID.TID 0000.0001) // SYMBOLS (CMIN->CMAX): -abcdefghijklmnopqrstuvwxyz+
(PID.TID 0000.0001) //                  0.0: .
(PID.TID 0000.0001) // RANGE I (Lo:Hi:Step):(  -1:   7:   1)
(PID.TID 0000.0001) // RANGE J (Lo:Hi:Step):(   7:  -1:  -1)
(PID.TID 0000.0001) // RANGE K (Lo:Hi:Step):(   1:   1:   1)
(PID.TID 0000.0001) // =======================================================
(PID.TID 0000.0001) // =======================================================
(PID.TID 0000.0001) // END OF FIELD                                          =
(PID.TID 0000.0001) // =======================================================
(PID.TID 0000.0001) 
(PID.TID 0000.0001) // =======================================================
(PID.TID 0000.0001) // Field hFacS at iteration          1
(PID.TID 0000.0001) // CMIN =          1.000000000000000E+00
(PID.TID 0000.0001) // CMAX =          1.000000000000000E+00
(PID.TID 0000.0001) // CINT =          0.000000000000000E+00
(PID.TID 0000.0001) // SYMBOLS (CMIN->CMAX): -abcdefghijklmnopqrstuvwxyz+
(PID.TID 0000.0001) //                  0.0: .
(PID.TID 0000.0001) // RANGE I (Lo:Hi:Step):(  -1:   7:   1)
(PID.TID 0000.0001) // RANGE J (Lo:Hi:Step):(   7:  -1:  -1)
(PID.TID 0000.0001) // RANGE K (Lo:Hi:Step):(   1:   1:   1)
(PID.TID 0000.0001) // =======================================================
(PID.TID 0000.0001) // =======================================================
(PID.TID 0000.0001) // END OF FIELD                                          =
(PID.TID 0000.0001) // =======================================================
(PID.TID 0000.0001) 
(PID.TID 0000.0001) %MON surfExpanfCori_max           =  -1.0735540000000E-04
(PID.TID 0000.0001) %MON surfExpanfCori_min           =  -1.1783060000000E-04
(PID.TID 0000.0001) %MON surfExpanfCori_mean          =  -1.1259300000000E-04
(PID.TID 0000.0001) %MON surfExpanfCori_sd            =   3.7035424771427E-06
(PID.TID 0000.0001) %MON surfExpanfCoriG_max          =  -1.0866480000000E-04
(PID.TID 0000.0001) %MON surfExpanfCoriG_min          =  -1.1914000000000E-04
(PID.TID 0000.0001) %MON surfExpanfCoriG_mean         =  -1.1390240000000E-04
(PID.TID 0000.0001) %MON surfExpanfCoriG_sd           =   3.7035424771427E-06
(PID.TID 0000.0001) %MON surfExpanfCoriCos_max        =   0.0000000000000E+00
(PID.TID 0000.0001) %MON surfExpanfCoriCos_min        =   0.0000000000000E+00
(PID.TID 0000.0001) %MON surfExpanfCoriCos_mean       =   0.0000000000000E+00
(PID.TID 0000.0001) %MON surfExpanfCoriCos_sd         =   0.0000000000000E+00
(PID.TID 0000.0001) INI_CG2D: CG2D normalisation factor =  1.9999999999999996E-04
(PID.TID 0000.0001) 
                     ctrl_depth_ini: ctrl update R_low,
                                     adding the control vector.
(PID.TID 0000.0001)  MDS_READ_FIELD: opening file: xx_depth.0000000000.001.001.data
(PID.TID 0000.0001) // =======================================================
(PID.TID 0000.0001) // Field Model Ro_surf (update_masks_etc) at iteration          1
(PID.TID 0000.0001) // CMIN =          1.000000000000000E+32
(PID.TID 0000.0001) // CMAX =         -1.000000000000000E+32
(PID.TID 0000.0001) // CINT =          0.000000000000000E+00
(PID.TID 0000.0001) // SYMBOLS (CMIN->CMAX): -abcdefghijklmnopqrstuvwxyz+
(PID.TID 0000.0001) //                  0.0: .
(PID.TID 0000.0001) // RANGE I (Lo:Hi:Step):(  -1:   7:   1)
(PID.TID 0000.0001) // RANGE J (Lo:Hi:Step):(   7:  -1:  -1)
(PID.TID 0000.0001) // RANGE K (Lo:Hi:Step):(   1:   1:   1)
(PID.TID 0000.0001) // =======================================================
(PID.TID 0000.0001) // =======================================================
(PID.TID 0000.0001) // END OF FIELD                                          =
(PID.TID 0000.0001) // =======================================================
(PID.TID 0000.0001) 
(PID.TID 0000.0001) // =======================================================
(PID.TID 0000.0001) // Field hFacC at iteration          1
(PID.TID 0000.0001) // CMIN =          1.000000000000000E+00
(PID.TID 0000.0001) // CMAX =          1.000000000000000E+00
(PID.TID 0000.0001) // CINT =          0.000000000000000E+00
(PID.TID 0000.0001) // SYMBOLS (CMIN->CMAX): -abcdefghijklmnopqrstuvwxyz+
(PID.TID 0000.0001) //                  0.0: .
(PID.TID 0000.0001) // RANGE I (Lo:Hi:Step):(  -1:   7:   1)
(PID.TID 0000.0001) // RANGE J (Lo:Hi:Step):(   7:  -1:  -1)
(PID.TID 0000.0001) // RANGE K (Lo:Hi:Step):(   1:   1:   1)
(PID.TID 0000.0001) // =======================================================
(PID.TID 0000.0001) // =======================================================
(PID.TID 0000.0001) // END OF FIELD                                          =
(PID.TID 0000.0001) // =======================================================
(PID.TID 0000.0001) 
(PID.TID 0000.0001) // =======================================================
(PID.TID 0000.0001) // Field hFacW at iteration          1
(PID.TID 0000.0001) // CMIN =          1.000000000000000E+00
(PID.TID 0000.0001) // CMAX =          1.000000000000000E+00
(PID.TID 0000.0001) // CINT =          0.000000000000000E+00
(PID.TID 0000.0001) // SYMBOLS (CMIN->CMAX): -abcdefghijklmnopqrstuvwxyz+
(PID.TID 0000.0001) //                  0.0: .
(PID.TID 0000.0001) // RANGE I (Lo:Hi:Step):(  -1:   7:   1)
(PID.TID 0000.0001) // RANGE J (Lo:Hi:Step):(   7:  -1:  -1)
(PID.TID 0000.0001) // RANGE K (Lo:Hi:Step):(   1:   1:   1)
(PID.TID 0000.0001) // =======================================================
(PID.TID 0000.0001) // =======================================================
(PID.TID 0000.0001) // END OF FIELD                                          =
(PID.TID 0000.0001) // =======================================================
(PID.TID 0000.0001) 
(PID.TID 0000.0001) // =======================================================
(PID.TID 0000.0001) // Field hFacS at iteration          1
(PID.TID 0000.0001) // CMIN =          1.000000000000000E+00
(PID.TID 0000.0001) // CMAX =          1.000000000000000E+00
(PID.TID 0000.0001) // CINT =          0.000000000000000E+00
(PID.TID 0000.0001) // SYMBOLS (CMIN->CMAX): -abcdefghijklmnopqrstuvwxyz+
(PID.TID 0000.0001) //                  0.0: .
(PID.TID 0000.0001) // RANGE I (Lo:Hi:Step):(  -1:   7:   1)
(PID.TID 0000.0001) // RANGE J (Lo:Hi:Step):(   7:  -1:  -1)
(PID.TID 0000.0001) // RANGE K (Lo:Hi:Step):(   1:   1:   1)
(PID.TID 0000.0001) // =======================================================
(PID.TID 0000.0001) // =======================================================
(PID.TID 0000.0001) // END OF FIELD                                          =
(PID.TID 0000.0001) // =======================================================
(PID.TID 0000.0001) 
(PID.TID 0000.0001) // =======================================================
(PID.TID 0000.0001) // Field Initial Temperature at iteration          1
(PID.TID 0000.0001) // CMIN =          4.000000000000000E+00
(PID.TID 0000.0001) // CMAX =          4.000000000000000E+00
(PID.TID 0000.0001) // CINT =          0.000000000000000E+00
(PID.TID 0000.0001) // SYMBOLS (CMIN->CMAX): -abcdefghijklmnopqrstuvwxyz+
(PID.TID 0000.0001) //                  0.0: .
(PID.TID 0000.0001) // RANGE I (Lo:Hi:Step):(   1:   5:   1)
(PID.TID 0000.0001) // RANGE J (Lo:Hi:Step):(   5:   1:  -1)
(PID.TID 0000.0001) // RANGE K (Lo:Hi:Step):(   1:   1:   1)
(PID.TID 0000.0001) // =======================================================
(PID.TID 0000.0001) // =======================================================
(PID.TID 0000.0001) // END OF FIELD                                          =
(PID.TID 0000.0001) // =======================================================
(PID.TID 0000.0001) 
(PID.TID 0000.0001) // =======================================================
(PID.TID 0000.0001) // Field Initial Salinity at iteration          1
(PID.TID 0000.0001) // CMIN =          3.500000000000000E+01
(PID.TID 0000.0001) // CMAX =          3.500000000000000E+01
(PID.TID 0000.0001) // CINT =          0.000000000000000E+00
(PID.TID 0000.0001) // SYMBOLS (CMIN->CMAX): -abcdefghijklmnopqrstuvwxyz+
(PID.TID 0000.0001) //                  0.0: .
(PID.TID 0000.0001) // RANGE I (Lo:Hi:Step):(   1:   5:   1)
(PID.TID 0000.0001) // RANGE J (Lo:Hi:Step):(   5:   1:  -1)
(PID.TID 0000.0001) // RANGE K (Lo:Hi:Step):(   1:   1:   1)
(PID.TID 0000.0001) // =======================================================
(PID.TID 0000.0001) // =======================================================
(PID.TID 0000.0001) // END OF FIELD                                          =
(PID.TID 0000.0001) // =======================================================
(PID.TID 0000.0001) 
(PID.TID 0000.0001) Start initial hydrostatic pressure computation
(PID.TID 0000.0001) Pressure is predetermined for buoyancyRelation OCEANIC
(PID.TID 0000.0001) 
(PID.TID 0000.0001)  MDS_READ_FIELD: opening global file: windx.sin_y
(PID.TID 0000.0001) // =======================================================
(PID.TID 0000.0001) // Model current state
(PID.TID 0000.0001) // =======================================================
(PID.TID 0000.0001) 
 cg2d: Sum(rhs),rhsMax =   0.00000000000000E+00  0.00000000000000E+00
 cg2d: Sum(rhs),rhsMax =  -2.49999999999996E+01  6.03492218443698E-05
 cg2d: Sum(rhs),rhsMax =  -1.81034404639062E+01  2.18766023587219E-04
 cg2d: Sum(rhs),rhsMax =  -1.54955562832148E+01  4.32479836297446E-04
 cg2d: Sum(rhs),rhsMax =  -1.41111452333651E+01  6.49958988304000E-04
 cg2d: Sum(rhs),rhsMax =  -1.31144322335095E+01  8.30737102810967E-04
 cg2d: Sum(rhs),rhsMax =  -1.21209090318257E+01  9.52510662016883E-04
 cg2d: Sum(rhs),rhsMax =  -1.07124742349898E+01  1.02806631183696E-03
 cg2d: Sum(rhs),rhsMax =  -7.41375936635302E+00  1.27086596338091E-03
 cg2d: Sum(rhs),rhsMax =  -4.70217533604756E+00  1.51019014045127E-03
 cg2d: Sum(rhs),rhsMax =  -2.72440686130436E+00  1.65833738190766E-03
 cg2d: Sum(rhs),rhsMax =  -1.27958669218665E+00  1.70565508626603E-03
 cg2d: Sum(rhs),rhsMax =  -3.29564700132097E-01  1.66071960333526E-03
 cg2d: Sum(rhs),rhsMax =   5.21320400793597E-02  1.54812755813164E-03
 cg2d: Sum(rhs),rhsMax =  -2.86625376242413E-01  1.40338815707997E-03
 cg2d: Sum(rhs),rhsMax =  -1.30315843646469E+00  1.44268599512088E-03
 cg2d: Sum(rhs),rhsMax =  -2.68067690582495E+00  1.50836886535032E-03
 cg2d: Sum(rhs),rhsMax =  -4.07407453397041E+00  1.58424366931670E-03
 cg2d: Sum(rhs),rhsMax =  -5.18272347523999E+00  1.66593593026426E-03
 cg2d: Sum(rhs),rhsMax =  -5.80990597239093E+00  1.74846175666871E-03
 cg2d: Sum(rhs),rhsMax =  -5.87740626033521E+00  1.82725971634438E-03
 cg2d: Sum(rhs),rhsMax =  -5.41358309584034E+00  1.89900435232112E-03
 cg2d: Sum(rhs),rhsMax =  -4.53080675007674E+00  1.96213935171852E-03
 cg2d: Sum(rhs),rhsMax =  -3.22587897850422E+00  2.12611203155762E-03
 cg2d: Sum(rhs),rhsMax =  -2.04447211001298E+00  2.24837954339758E-03
 cg2d: Sum(rhs),rhsMax =  -1.10818136573574E+00  2.30404049735862E-03
 cg2d: Sum(rhs),rhsMax =  -4.90484874409831E-01  2.29576532934765E-03
 cg2d: Sum(rhs),rhsMax =  -2.61247058030480E-01  2.23814842618138E-03
 cg2d: Sum(rhs),rhsMax =  -4.50921961748429E-01  2.26266907660295E-03
 cg2d: Sum(rhs),rhsMax =  -1.00469609742378E+00  2.31946123807301E-03
 cg2d: Sum(rhs),rhsMax =  -1.78565330199443E+00  2.37599942446192E-03
 cg2d: Sum(rhs),rhsMax =  -2.62429307156110E+00  2.42805544408357E-03
 cg2d: Sum(rhs),rhsMax =  -3.35748484477325E+00  2.47123046193427E-03
 cg2d: Sum(rhs),rhsMax =  -3.85508915058138E+00  2.50195599671185E-03
 cg2d: Sum(rhs),rhsMax =  -4.03589974939330E+00  2.51830324058938E-03
 cg2d: Sum(rhs),rhsMax =  -3.87512844592723E+00  2.52047520788730E-03
 cg2d: Sum(rhs),rhsMax =  -3.40600365182457E+00  2.51092923615932E-03
 cg2d: Sum(rhs),rhsMax =  -2.61682443453296E+00  2.58874086105386E-03
 cg2d: Sum(rhs),rhsMax =  -1.83238711842083E+00  2.61669728723737E-03
 cg2d: Sum(rhs),rhsMax =  -1.17513337409771E+00  2.56005944964657E-03
 cg2d: Sum(rhs),rhsMax =  -7.11994600865658E-01  2.47855831219885E-03
 cg2d: Sum(rhs),rhsMax =  -5.26422132259187E-01  2.47042094796041E-03
 cg2d: Sum(rhs),rhsMax =  -6.78930194946766E-01  2.49676872619004E-03
 cg2d: Sum(rhs),rhsMax =  -1.12673719787195E+00  2.53652613797711E-03
 cg2d: Sum(rhs),rhsMax =  -1.75981622720679E+00  2.58504766265501E-03
 cg2d: Sum(rhs),rhsMax =  -2.43940632637198E+00  2.63568092765001E-03
 cg2d: Sum(rhs),rhsMax =  -3.03203005766776E+00  2.68092816426017E-03
 cg2d: Sum(rhs),rhsMax =  -3.40991308596102E+00  2.73286305878519E-03
 cg2d: Sum(rhs),rhsMax =  -3.48046019933066E+00  2.80943924400155E-03
 cg2d: Sum(rhs),rhsMax =  -3.32063069787576E+00  2.84054010748590E-03
 cg2d: Sum(rhs),rhsMax =  -2.96079444346543E+00  2.82589059749749E-03
 cg2d: Sum(rhs),rhsMax =  -2.32992810851048E+00  2.92147973701779E-03
 cg2d: Sum(rhs),rhsMax =  -1.72242455529951E+00  2.94384961835076E-03
 cg2d: Sum(rhs),rhsMax =  -1.21221902628258E+00  2.89157778798038E-03
 cg2d: Sum(rhs),rhsMax =  -8.69698381465993E-01  2.78046456393469E-03
 cg2d: Sum(rhs),rhsMax =  -7.64867790552235E-01  2.63730948982678E-03
 cg2d: Sum(rhs),rhsMax =  -9.31747822343947E-01  2.54529705116381E-03
 cg2d: Sum(rhs),rhsMax =  -1.31074336005292E+00  2.59464770371133E-03
 cg2d: Sum(rhs),rhsMax =  -1.82960840102322E+00  2.67470090023855E-03
 cg2d: Sum(rhs),rhsMax =  -2.36415405974799E+00  2.77096214065307E-03
 cg2d: Sum(rhs),rhsMax =  -2.80794776103162E+00  2.86583707995354E-03
 cg2d: Sum(rhs),rhsMax =  -3.09076534492808E+00  2.94225356093828E-03
 cg2d: Sum(rhs),rhsMax =  -3.17911020367030E+00  2.98708408963337E-03
 cg2d: Sum(rhs),rhsMax =  -3.06968977250613E+00  2.99369703831426E-03
 cg2d: Sum(rhs),rhsMax =  -2.74200030878221E+00  3.00868114576291E-03
 cg2d: Sum(rhs),rhsMax =  -2.22987018302898E+00  3.08320495050847E-03
 cg2d: Sum(rhs),rhsMax =  -1.72892383838451E+00  3.09216601124119E-03
 cg2d: Sum(rhs),rhsMax =  -1.30661125509290E+00  3.03707922724981E-03
 cg2d: Sum(rhs),rhsMax =  -1.02724586775138E+00  2.93201253366882E-03
 cg2d: Sum(rhs),rhsMax =  -9.49612074096550E-01  2.80059567138017E-03
 cg2d: Sum(rhs),rhsMax =  -1.10546679251358E+00  2.68802013882796E-03
 cg2d: Sum(rhs),rhsMax =  -1.41911843512961E+00  2.73183505833779E-03
 cg2d: Sum(rhs),rhsMax =  -1.85263649909890E+00  2.80075125961190E-03
 cg2d: Sum(rhs),rhsMax =  -2.30607102822112E+00  2.88121986257932E-03
 cg2d: Sum(rhs),rhsMax =  -2.69038330563745E+00  2.95745900482398E-03
 cg2d: Sum(rhs),rhsMax =  -2.94313282561754E+00  3.01465311490681E-03
 cg2d: Sum(rhs),rhsMax =  -3.03123921450149E+00  3.04190027677397E-03
 cg2d: Sum(rhs),rhsMax =  -2.94785319862416E+00  3.03433141906103E-03
 cg2d: Sum(rhs),rhsMax =  -2.61356656256191E+00  3.10365976353066E-03
 cg2d: Sum(rhs),rhsMax =  -2.18161318011674E+00  3.16115503260433E-03
 cg2d: Sum(rhs),rhsMax =  -1.75526123951358E+00  3.15966311726561E-03
 cg2d: Sum(rhs),rhsMax =  -1.39603743202583E+00  3.10114910487264E-03
 cg2d: Sum(rhs),rhsMax =  -1.16177139609646E+00  2.99876543739215E-03
 cg2d: Sum(rhs),rhsMax =  -1.10293746685569E+00  2.87411081536198E-03
 cg2d: Sum(rhs),rhsMax =  -1.24975133837515E+00  2.75286352771311E-03
 cg2d: Sum(rhs),rhsMax =  -1.53840867587337E+00  2.75098217168425E-03
 cg2d: Sum(rhs),rhsMax =  -1.91301871322320E+00  2.81271669589428E-03
 cg2d: Sum(rhs),rhsMax =  -2.30705939818247E+00  2.88449381557360E-03
 cg2d: Sum(rhs),rhsMax =  -2.64297552969561E+00  2.95188725889746E-03
 cg2d: Sum(rhs),rhsMax =  -2.86495129547846E+00  3.00154118872142E-03
 cg2d: Sum(rhs),rhsMax =  -2.94238808942700E+00  3.02377926386858E-03
 cg2d: Sum(rhs),rhsMax =  -2.84207314726054E+00  3.04217204920903E-03
 cg2d: Sum(rhs),rhsMax =  -2.51902177013208E+00  3.13830803280315E-03
 cg2d: Sum(rhs),rhsMax =  -2.14123731075033E+00  3.18959321846251E-03
 cg2d: Sum(rhs),rhsMax =  -1.76835919506707E+00  3.18714930868605E-03
 cg2d: Sum(rhs),rhsMax =  -1.45590349899554E+00  3.13272227844802E-03
 cg2d: Sum(rhs),rhsMax =  -1.25508070917229E+00  3.03818416018077E-03
 cg2d: Sum(rhs),rhsMax =  -1.20874903995908E+00  2.92305990914665E-03
 cg2d: Sum(rhs),rhsMax =  -1.34034310913829E+00  2.81059305239032E-03
 cg2d: Sum(rhs),rhsMax =  -1.62624330554267E+00  2.74190572535122E-03
(PID.TID 0000.0001) %CHECKPOINT       100 ckptB
 --> objf_test(bi,bj)   =  0.509071976776941E-01
 --> objf_tracer(bi,bj) =  0.000000000000000E+00
 --> objf_atl(bi,bj)    =  0.000000000000000E+00
  local fc =  0.509071976776941E-01
 global fc =  0.509071976776941E-01
(PID.TID 0000.0001)  MDS_READ_FIELD: opening file: xx_depth.0000000000.001.001.data
grad-res -------------------------------
 grad-res     0   18    3    4    1    1    1    1   0.509071982062E-01 0.509071987346E-01 0.509071976777E-01
 grad-res     0   18   18   18   25    1    1    1   0.528181668837E-05 0.528457447940E-05 -.522129258280E-03
(PID.TID 0000.0001)   ADM  precision_derivative_cost =    5.09071982061515E-02
(PID.TID 0000.0001)   ADM  precision_derivative_grad =    5.28181668837291E-06
 ph-grd  ierr ---------------------------
 ph-grd  ierr =  0, icomp =  18, ichknum =  18
 ph-grd -->hit<--  4 4 1 1
(PID.TID 0000.0001)  MDS_READ_FIELD: opening file: adxx_depth.0000000000.001.001.data
(PID.TID 0000.0001)  MDS_READ_FIELD: opening file: xx_depth.0000000000.001.001.data
(PID.TID 0000.0001)  MDS_READ_FIELD: opening global file: noWalls.bigRidge
(PID.TID 0000.0001) // =======================================================
(PID.TID 0000.0001) // Field Model R_low (ini_masks_etc) at iteration          1
(PID.TID 0000.0001) // CMIN =         -5.000000000000000E+03
(PID.TID 0000.0001) // CMAX =         -2.000000000000000E+03
(PID.TID 0000.0001) // CINT =          1.111111111111111E+02
(PID.TID 0000.0001) // SYMBOLS (CMIN->CMAX): -abcdefghijklmnopqrstuvwxyz+
(PID.TID 0000.0001) //                  0.0: .
(PID.TID 0000.0001) // RANGE I (Lo:Hi:Step):(  -1:   7:   1)
(PID.TID 0000.0001) // RANGE J (Lo:Hi:Step):(   7:  -1:  -1)
(PID.TID 0000.0001) // RANGE K (Lo:Hi:Step):(   1:   1:   1)
(PID.TID 0000.0001) // =======================================================
(PID.TID 0000.0001) K =   1
(PID.TID 0000.0001) //
(PID.TID 0000.0001) // |--J--|101234567
(PID.TID 0000.0001) //      7 ----+----
(PID.TID 0000.0001) //      6 ----+----
(PID.TID 0000.0001) //      5 ----+----
(PID.TID 0000.0001) //      4 ----+----
(PID.TID 0000.0001) //      3 ----+----
(PID.TID 0000.0001) //      2 ----+----
(PID.TID 0000.0001) //      1 ----+----
(PID.TID 0000.0001) //      0 ----+----
(PID.TID 0000.0001) //     -1 ----+----
(PID.TID 0000.0001) // =======================================================
(PID.TID 0000.0001) // END OF FIELD                                          =
(PID.TID 0000.0001) // =======================================================
(PID.TID 0000.0001) 
(PID.TID 0000.0001) // =======================================================
(PID.TID 0000.0001) // Field Model Ro_surf (ini_masks_etc) at iteration          1
(PID.TID 0000.0001) // CMIN =          1.000000000000000E+32
(PID.TID 0000.0001) // CMAX =         -1.000000000000000E+32
(PID.TID 0000.0001) // CINT =          0.000000000000000E+00
(PID.TID 0000.0001) // SYMBOLS (CMIN->CMAX): -abcdefghijklmnopqrstuvwxyz+
(PID.TID 0000.0001) //                  0.0: .
(PID.TID 0000.0001) // RANGE I (Lo:Hi:Step):(  -1:   7:   1)
(PID.TID 0000.0001) // RANGE J (Lo:Hi:Step):(   7:  -1:  -1)
(PID.TID 0000.0001) // RANGE K (Lo:Hi:Step):(   1:   1:   1)
(PID.TID 0000.0001) // =======================================================
(PID.TID 0000.0001) // =======================================================
(PID.TID 0000.0001) // END OF FIELD                                          =
(PID.TID 0000.0001) // =======================================================
(PID.TID 0000.0001) 
(PID.TID 0000.0001) // =======================================================
(PID.TID 0000.0001) // Field hFacC at iteration          1
(PID.TID 0000.0001) // CMIN =          1.000000000000000E+00
(PID.TID 0000.0001) // CMAX =          1.000000000000000E+00
(PID.TID 0000.0001) // CINT =          0.000000000000000E+00
(PID.TID 0000.0001) // SYMBOLS (CMIN->CMAX): -abcdefghijklmnopqrstuvwxyz+
(PID.TID 0000.0001) //                  0.0: .
(PID.TID 0000.0001) // RANGE I (Lo:Hi:Step):(  -1:   7:   1)
(PID.TID 0000.0001) // RANGE J (Lo:Hi:Step):(   7:  -1:  -1)
(PID.TID 0000.0001) // RANGE K (Lo:Hi:Step):(   1:   1:   1)
(PID.TID 0000.0001) // =======================================================
(PID.TID 0000.0001) // =======================================================
(PID.TID 0000.0001) // END OF FIELD                                          =
(PID.TID 0000.0001) // =======================================================
(PID.TID 0000.0001) 
(PID.TID 0000.0001) // =======================================================
(PID.TID 0000.0001) // Field hFacW at iteration          1
(PID.TID 0000.0001) // CMIN =          1.000000000000000E+00
(PID.TID 0000.0001) // CMAX =          1.000000000000000E+00
(PID.TID 0000.0001) // CINT =          0.000000000000000E+00
(PID.TID 0000.0001) // SYMBOLS (CMIN->CMAX): -abcdefghijklmnopqrstuvwxyz+
(PID.TID 0000.0001) //                  0.0: .
(PID.TID 0000.0001) // RANGE I (Lo:Hi:Step):(  -1:   7:   1)
(PID.TID 0000.0001) // RANGE J (Lo:Hi:Step):(   7:  -1:  -1)
(PID.TID 0000.0001) // RANGE K (Lo:Hi:Step):(   1:   1:   1)
(PID.TID 0000.0001) // =======================================================
(PID.TID 0000.0001) // =======================================================
(PID.TID 0000.0001) // END OF FIELD                                          =
(PID.TID 0000.0001) // =======================================================
(PID.TID 0000.0001) 
(PID.TID 0000.0001) // =======================================================
(PID.TID 0000.0001) // Field hFacS at iteration          1
(PID.TID 0000.0001) // CMIN =          1.000000000000000E+00
(PID.TID 0000.0001) // CMAX =          1.000000000000000E+00
(PID.TID 0000.0001) // CINT =          0.000000000000000E+00
(PID.TID 0000.0001) // SYMBOLS (CMIN->CMAX): -abcdefghijklmnopqrstuvwxyz+
(PID.TID 0000.0001) //                  0.0: .
(PID.TID 0000.0001) // RANGE I (Lo:Hi:Step):(  -1:   7:   1)
(PID.TID 0000.0001) // RANGE J (Lo:Hi:Step):(   7:  -1:  -1)
(PID.TID 0000.0001) // RANGE K (Lo:Hi:Step):(   1:   1:   1)
(PID.TID 0000.0001) // =======================================================
(PID.TID 0000.0001) // =======================================================
(PID.TID 0000.0001) // END OF FIELD                                          =
(PID.TID 0000.0001) // =======================================================
(PID.TID 0000.0001) 
(PID.TID 0000.0001) %MON surfExpanfCori_max           =  -1.0735540000000E-04
(PID.TID 0000.0001) %MON surfExpanfCori_min           =  -1.1783060000000E-04
(PID.TID 0000.0001) %MON surfExpanfCori_mean          =  -1.1259300000000E-04
(PID.TID 0000.0001) %MON surfExpanfCori_sd            =   3.7035424771427E-06
(PID.TID 0000.0001) %MON surfExpanfCoriG_max          =  -1.0866480000000E-04
(PID.TID 0000.0001) %MON surfExpanfCoriG_min          =  -1.1914000000000E-04
(PID.TID 0000.0001) %MON surfExpanfCoriG_mean         =  -1.1390240000000E-04
(PID.TID 0000.0001) %MON surfExpanfCoriG_sd           =   3.7035424771427E-06
(PID.TID 0000.0001) %MON surfExpanfCoriCos_max        =   0.0000000000000E+00
(PID.TID 0000.0001) %MON surfExpanfCoriCos_min        =   0.0000000000000E+00
(PID.TID 0000.0001) %MON surfExpanfCoriCos_mean       =   0.0000000000000E+00
(PID.TID 0000.0001) %MON surfExpanfCoriCos_sd         =   0.0000000000000E+00
(PID.TID 0000.0001) INI_CG2D: CG2D normalisation factor =  1.9999999999999996E-04
(PID.TID 0000.0001) 
                     ctrl_depth_ini: ctrl update R_low,
                                     adding the control vector.
(PID.TID 0000.0001)  MDS_READ_FIELD: opening file: xx_depth.0000000000.001.001.data
(PID.TID 0000.0001) // =======================================================
(PID.TID 0000.0001) // Field Model Ro_surf (update_masks_etc) at iteration          1
(PID.TID 0000.0001) // CMIN =          1.000000000000000E+32
(PID.TID 0000.0001) // CMAX =         -1.000000000000000E+32
(PID.TID 0000.0001) // CINT =          0.000000000000000E+00
(PID.TID 0000.0001) // SYMBOLS (CMIN->CMAX): -abcdefghijklmnopqrstuvwxyz+
(PID.TID 0000.0001) //                  0.0: .
(PID.TID 0000.0001) // RANGE I (Lo:Hi:Step):(  -1:   7:   1)
(PID.TID 0000.0001) // RANGE J (Lo:Hi:Step):(   7:  -1:  -1)
(PID.TID 0000.0001) // RANGE K (Lo:Hi:Step):(   1:   1:   1)
(PID.TID 0000.0001) // =======================================================
(PID.TID 0000.0001) // =======================================================
(PID.TID 0000.0001) // END OF FIELD                                          =
(PID.TID 0000.0001) // =======================================================
(PID.TID 0000.0001) 
(PID.TID 0000.0001) // =======================================================
(PID.TID 0000.0001) // Field hFacC at iteration          1
(PID.TID 0000.0001) // CMIN =          1.000000000000000E+00
(PID.TID 0000.0001) // CMAX =          1.000000000000000E+00
(PID.TID 0000.0001) // CINT =          0.000000000000000E+00
(PID.TID 0000.0001) // SYMBOLS (CMIN->CMAX): -abcdefghijklmnopqrstuvwxyz+
(PID.TID 0000.0001) //                  0.0: .
(PID.TID 0000.0001) // RANGE I (Lo:Hi:Step):(  -1:   7:   1)
(PID.TID 0000.0001) // RANGE J (Lo:Hi:Step):(   7:  -1:  -1)
(PID.TID 0000.0001) // RANGE K (Lo:Hi:Step):(   1:   1:   1)
(PID.TID 0000.0001) // =======================================================
(PID.TID 0000.0001) // =======================================================
(PID.TID 0000.0001) // END OF FIELD                                          =
(PID.TID 0000.0001) // =======================================================
(PID.TID 0000.0001) 
(PID.TID 0000.0001) // =======================================================
(PID.TID 0000.0001) // Field hFacW at iteration          1
(PID.TID 0000.0001) // CMIN =          1.000000000000000E+00
(PID.TID 0000.0001) // CMAX =          1.000000000000000E+00
(PID.TID 0000.0001) // CINT =          0.000000000000000E+00
(PID.TID 0000.0001) // SYMBOLS (CMIN->CMAX): -abcdefghijklmnopqrstuvwxyz+
(PID.TID 0000.0001) //                  0.0: .
(PID.TID 0000.0001) // RANGE I (Lo:Hi:Step):(  -1:   7:   1)
(PID.TID 0000.0001) // RANGE J (Lo:Hi:Step):(   7:  -1:  -1)
(PID.TID 0000.0001) // RANGE K (Lo:Hi:Step):(   1:   1:   1)
(PID.TID 0000.0001) // =======================================================
(PID.TID 0000.0001) // =======================================================
(PID.TID 0000.0001) // END OF FIELD                                          =
(PID.TID 0000.0001) // =======================================================
(PID.TID 0000.0001) 
(PID.TID 0000.0001) // =======================================================
(PID.TID 0000.0001) // Field hFacS at iteration          1
(PID.TID 0000.0001) // CMIN =          1.000000000000000E+00
(PID.TID 0000.0001) // CMAX =          1.000000000000000E+00
(PID.TID 0000.0001) // CINT =          0.000000000000000E+00
(PID.TID 0000.0001) // SYMBOLS (CMIN->CMAX): -abcdefghijklmnopqrstuvwxyz+
(PID.TID 0000.0001) //                  0.0: .
(PID.TID 0000.0001) // RANGE I (Lo:Hi:Step):(  -1:   7:   1)
(PID.TID 0000.0001) // RANGE J (Lo:Hi:Step):(   7:  -1:  -1)
(PID.TID 0000.0001) // RANGE K (Lo:Hi:Step):(   1:   1:   1)
(PID.TID 0000.0001) // =======================================================
(PID.TID 0000.0001) // =======================================================
(PID.TID 0000.0001) // END OF FIELD                                          =
(PID.TID 0000.0001) // =======================================================
(PID.TID 0000.0001) 
(PID.TID 0000.0001) // =======================================================
(PID.TID 0000.0001) // Field Initial Temperature at iteration          1
(PID.TID 0000.0001) // CMIN =          4.000000000000000E+00
(PID.TID 0000.0001) // CMAX =          4.000000000000000E+00
(PID.TID 0000.0001) // CINT =          0.000000000000000E+00
(PID.TID 0000.0001) // SYMBOLS (CMIN->CMAX): -abcdefghijklmnopqrstuvwxyz+
(PID.TID 0000.0001) //                  0.0: .
(PID.TID 0000.0001) // RANGE I (Lo:Hi:Step):(   1:   5:   1)
(PID.TID 0000.0001) // RANGE J (Lo:Hi:Step):(   5:   1:  -1)
(PID.TID 0000.0001) // RANGE K (Lo:Hi:Step):(   1:   1:   1)
(PID.TID 0000.0001) // =======================================================
(PID.TID 0000.0001) // =======================================================
(PID.TID 0000.0001) // END OF FIELD                                          =
(PID.TID 0000.0001) // =======================================================
(PID.TID 0000.0001) 
(PID.TID 0000.0001) // =======================================================
(PID.TID 0000.0001) // Field Initial Salinity at iteration          1
(PID.TID 0000.0001) // CMIN =          3.500000000000000E+01
(PID.TID 0000.0001) // CMAX =          3.500000000000000E+01
(PID.TID 0000.0001) // CINT =          0.000000000000000E+00
(PID.TID 0000.0001) // SYMBOLS (CMIN->CMAX): -abcdefghijklmnopqrstuvwxyz+
(PID.TID 0000.0001) //                  0.0: .
(PID.TID 0000.0001) // RANGE I (Lo:Hi:Step):(   1:   5:   1)
(PID.TID 0000.0001) // RANGE J (Lo:Hi:Step):(   5:   1:  -1)
(PID.TID 0000.0001) // RANGE K (Lo:Hi:Step):(   1:   1:   1)
(PID.TID 0000.0001) // =======================================================
(PID.TID 0000.0001) // =======================================================
(PID.TID 0000.0001) // END OF FIELD                                          =
(PID.TID 0000.0001) // =======================================================
(PID.TID 0000.0001) 
(PID.TID 0000.0001) Start initial hydrostatic pressure computation
(PID.TID 0000.0001) Pressure is predetermined for buoyancyRelation OCEANIC
(PID.TID 0000.0001) 
(PID.TID 0000.0001)  MDS_READ_FIELD: opening global file: windx.sin_y
(PID.TID 0000.0001) // =======================================================
(PID.TID 0000.0001) // Model current state
(PID.TID 0000.0001) // =======================================================
(PID.TID 0000.0001) 
 cg2d: Sum(rhs),rhsMax =   0.00000000000000E+00  0.00000000000000E+00
 cg2d: Sum(rhs),rhsMax =  -2.49999999999996E+01  6.03492218443698E-05
 cg2d: Sum(rhs),rhsMax =  -1.81034404639062E+01  2.18766023587219E-04
 cg2d: Sum(rhs),rhsMax =  -1.54955562832148E+01  4.32479836297446E-04
 cg2d: Sum(rhs),rhsMax =  -1.41111452330415E+01  6.49958988318882E-04
 cg2d: Sum(rhs),rhsMax =  -1.31144322331344E+01  8.30737102836093E-04
 cg2d: Sum(rhs),rhsMax =  -1.21209090323672E+01  9.52510661979096E-04
 cg2d: Sum(rhs),rhsMax =  -1.07124742393710E+01  1.02806631142607E-03
 cg2d: Sum(rhs),rhsMax =  -7.41375936712849E+00  1.27086596326402E-03
 cg2d: Sum(rhs),rhsMax =  -4.70217533469535E+00  1.51019014089894E-03
 cg2d: Sum(rhs),rhsMax =  -2.72440685918112E+00  1.65833738315982E-03
 cg2d: Sum(rhs),rhsMax =  -1.27958669025125E+00  1.70565508851263E-03
 cg2d: Sum(rhs),rhsMax =  -3.29564698938812E-01  1.66071960666994E-03
 cg2d: Sum(rhs),rhsMax =   5.21320408557809E-02  1.54812756251637E-03
 cg2d: Sum(rhs),rhsMax =  -2.86625373763133E-01  1.40338816232697E-03
 cg2d: Sum(rhs),rhsMax =  -1.30315843104339E+00  1.44268599929336E-03
 cg2d: Sum(rhs),rhsMax =  -2.68067689818108E+00  1.50836886871831E-03
 cg2d: Sum(rhs),rhsMax =  -4.07407452740589E+00  1.58424367133455E-03
 cg2d: Sum(rhs),rhsMax =  -5.18272347364679E+00  1.66593593052499E-03
 cg2d: Sum(rhs),rhsMax =  -5.80990597811388E+00  1.74846175497725E-03
 cg2d: Sum(rhs),rhsMax =  -5.87740627310528E+00  1.82725971275534E-03
 cg2d: Sum(rhs),rhsMax =  -5.41358311314456E+00  1.89900434713209E-03
 cg2d: Sum(rhs),rhsMax =  -4.53080676849066E+00  1.96213934541872E-03
 cg2d: Sum(rhs),rhsMax =  -3.22587898757639E+00  2.12611202882431E-03
 cg2d: Sum(rhs),rhsMax =  -2.04447211905850E+00  2.24837953990346E-03
 cg2d: Sum(rhs),rhsMax =  -1.10818137429409E+00  2.30404049361426E-03
 cg2d: Sum(rhs),rhsMax =  -4.90484882775959E-01  2.29576532584144E-03
 cg2d: Sum(rhs),rhsMax =  -2.61247066829372E-01  2.23814842329820E-03
 cg2d: Sum(rhs),rhsMax =  -4.50921971423270E-01  2.26266907248016E-03
 cg2d: Sum(rhs),rhsMax =  -1.00469610825063E+00  2.31946123394181E-03
 cg2d: Sum(rhs),rhsMax =  -1.78565331486340E+00  2.37599941965391E-03
 cg2d: Sum(rhs),rhsMax =  -2.62429308789482E+00  2.42805543788614E-03
 cg2d: Sum(rhs),rhsMax =  -3.35748486623438E+00  2.47123045370628E-03
 cg2d: Sum(rhs),rhsMax =  -3.85508917837283E+00  2.50195598598582E-03
 cg2d: Sum(rhs),rhsMax =  -4.03589978354832E+00  2.51830322714206E-03
 cg2d: Sum(rhs),rhsMax =  -3.87512848498497E+00  2.52047519176674E-03
 cg2d: Sum(rhs),rhsMax =  -3.40600369310512E+00  2.51092921766428E-03
 cg2d: Sum(rhs),rhsMax =  -2.61682444910322E+00  2.58874086402021E-03
 cg2d: Sum(rhs),rhsMax =  -1.83238713542416E+00  2.61669729030028E-03
 cg2d: Sum(rhs),rhsMax =  -1.17513339384151E+00  2.56005945277856E-03
 cg2d: Sum(rhs),rhsMax =  -7.11994626874577E-01  2.47855830259889E-03
 cg2d: Sum(rhs),rhsMax =  -5.26422161484355E-01  2.47042092523169E-03
 cg2d: Sum(rhs),rhsMax =  -6.78930225990013E-01  2.49676870350089E-03
 cg2d: Sum(rhs),rhsMax =  -1.12673723301611E+00  2.53652611516517E-03
 cg2d: Sum(rhs),rhsMax =  -1.75981626801377E+00  2.58504763939026E-03
 cg2d: Sum(rhs),rhsMax =  -2.43940637366399E+00  2.63568090351020E-03
 cg2d: Sum(rhs),rhsMax =  -3.03203011157900E+00  2.68092813881980E-03
 cg2d: Sum(rhs),rhsMax =  -3.40991313610448E+00  2.73286303903292E-03
 cg2d: Sum(rhs),rhsMax =  -3.48046025064732E+00  2.80943922346911E-03
 cg2d: Sum(rhs),rhsMax =  -3.32063074982459E+00  2.84054008606012E-03
 cg2d: Sum(rhs),rhsMax =  -2.96079449544732E+00  2.82589057510547E-03
 cg2d: Sum(rhs),rhsMax =  -2.32992813491696E+00  2.92147974036364E-03
 cg2d: Sum(rhs),rhsMax =  -1.72242458350587E+00  2.94384962186745E-03
 cg2d: Sum(rhs),rhsMax =  -1.21221905680795E+00  2.89157779165093E-03
 cg2d: Sum(rhs),rhsMax =  -8.69698414653238E-01  2.78046456771837E-03
 cg2d: Sum(rhs),rhsMax =  -7.64867826422133E-01  2.63730949366506E-03
 cg2d: Sum(rhs),rhsMax =  -9.31747870945295E-01  2.54529702429857E-03
 cg2d: Sum(rhs),rhsMax =  -1.31074341200284E+00  2.59464767654022E-03
 cg2d: Sum(rhs),rhsMax =  -1.82960845691558E+00  2.67470087283433E-03
 cg2d: Sum(rhs),rhsMax =  -2.36415411923892E+00  2.77096211304050E-03
 cg2d: Sum(rhs),rhsMax =  -2.80794782325303E+00  2.86583705211336E-03
 cg2d: Sum(rhs),rhsMax =  -3.09076540890476E+00  2.94225353281999E-03
 cg2d: Sum(rhs),rhsMax =  -3.17911026851818E+00  2.98708406117380E-03
 cg2d: Sum(rhs),rhsMax =  -3.06968983743282E+00  2.99369700945809E-03
 cg2d: Sum(rhs),rhsMax =  -2.74200034178242E+00  3.00868114923459E-03
 cg2d: Sum(rhs),rhsMax =  -2.22987021666857E+00  3.08320495420419E-03
 cg2d: Sum(rhs),rhsMax =  -1.72892387331992E+00  3.09216601520783E-03
 cg2d: Sum(rhs),rhsMax =  -1.30661129186807E+00  3.03707923150124E-03
 cg2d: Sum(rhs),rhsMax =  -1.02724590668538E+00  2.93201253818447E-03
 cg2d: Sum(rhs),rhsMax =  -9.49612115137751E-01  2.80059567611024E-03
 cg2d: Sum(rhs),rhsMax =  -1.10546684937955E+00  2.68802010840153E-03
 cg2d: Sum(rhs),rhsMax =  -1.41911849418023E+00  2.73183502808240E-03
 cg2d: Sum(rhs),rhsMax =  -1.85263656082805E+00  2.80075122957309E-03
 cg2d: Sum(rhs),rhsMax =  -2.30607109240565E+00  2.88121983276015E-03
 cg2d: Sum(rhs),rhsMax =  -2.69038337165100E+00  2.95745897519089E-03
 cg2d: Sum(rhs),rhsMax =  -2.94313289273805E+00  3.01465308540344E-03
 cg2d: Sum(rhs),rhsMax =  -3.03123928205708E+00  3.04190024733957E-03
 cg2d: Sum(rhs),rhsMax =  -2.94785326599258E+00  3.03433138965018E-03
 cg2d: Sum(rhs),rhsMax =  -2.61356659653354E+00  3.10365976895537E-03
 cg2d: Sum(rhs),rhsMax =  -2.18161321462061E+00  3.16115503835346E-03
 cg2d: Sum(rhs),rhsMax =  -1.75526127514475E+00  3.15966312338849E-03
 cg2d: Sum(rhs),rhsMax =  -1.39603746920968E+00  3.10114911138348E-03
 cg2d: Sum(rhs),rhsMax =  -1.16177143497546E+00  2.99876544426811E-03
 cg2d: Sum(rhs),rhsMax =  -1.10293750715714E+00  2.87411082254832E-03
 cg2d: Sum(rhs),rhsMax =  -1.24975137933024E+00  2.75286353513487E-03
 cg2d: Sum(rhs),rhsMax =  -1.53840873439398E+00  2.75098214478350E-03
 cg2d: Sum(rhs),rhsMax =  -1.91301877258917E+00  2.81271666970092E-03
 cg2d: Sum(rhs),rhsMax =  -2.30705945818308E+00  2.88449379006537E-03
 cg2d: Sum(rhs),rhsMax =  -2.64297558993106E+00  2.95188723400918E-03
 cg2d: Sum(rhs),rhsMax =  -2.86495135556351E+00  3.00154116436076E-03
 cg2d: Sum(rhs),rhsMax =  -2.94238814906154E+00  3.02377923993731E-03
 cg2d: Sum(rhs),rhsMax =  -2.84207317578083E+00  3.04217205738671E-03
 cg2d: Sum(rhs),rhsMax =  -2.51902179857235E+00  3.13830804127992E-03
 cg2d: Sum(rhs),rhsMax =  -2.14123733972320E+00  3.18959322730690E-03
 cg2d: Sum(rhs),rhsMax =  -1.76835922501858E+00  3.18714931793707E-03
 cg2d: Sum(rhs),rhsMax =  -1.45590353014243E+00  3.13272228810625E-03
 cg2d: Sum(rhs),rhsMax =  -1.25508074141030E+00  3.03818417020681E-03
 cg2d: Sum(rhs),rhsMax =  -1.20874907277106E+00  2.92305991946766E-03
 cg2d: Sum(rhs),rhsMax =  -1.34034314158063E+00  2.81059306291310E-03
 cg2d: Sum(rhs),rhsMax =  -1.62624335388457E+00  2.74190570624227E-03
(PID.TID 0000.0001) %CHECKPOINT       100 ckptA
 --> objf_test(bi,bj)   =  0.509071981790236E-01
 --> objf_tracer(bi,bj) =  0.000000000000000E+00
 --> objf_atl(bi,bj)    =  0.000000000000000E+00
  local fc =  0.509071981790236E-01
 global fc =  0.509071981790236E-01
 ph-check fcpertplus =   0.0509071982
(PID.TID 0000.0001)  MDS_READ_FIELD: opening file: xx_depth.0000000000.001.001.data
 ph-check fcpertminus =   0.0509071982
(PID.TID 0000.0001)  MDS_READ_FIELD: opening file: xx_depth.0000000000.001.001.data
(PID.TID 0000.0001)  MDS_READ_FIELD: opening global file: noWalls.bigRidge
(PID.TID 0000.0001) // =======================================================
(PID.TID 0000.0001) // Field Model R_low (ini_masks_etc) at iteration          1
(PID.TID 0000.0001) // CMIN =         -5.000000000000000E+03
(PID.TID 0000.0001) // CMAX =         -2.000000000000000E+03
(PID.TID 0000.0001) // CINT =          1.111111111111111E+02
(PID.TID 0000.0001) // SYMBOLS (CMIN->CMAX): -abcdefghijklmnopqrstuvwxyz+
(PID.TID 0000.0001) //                  0.0: .
(PID.TID 0000.0001) // RANGE I (Lo:Hi:Step):(  -1:   7:   1)
(PID.TID 0000.0001) // RANGE J (Lo:Hi:Step):(   7:  -1:  -1)
(PID.TID 0000.0001) // RANGE K (Lo:Hi:Step):(   1:   1:   1)
(PID.TID 0000.0001) // =======================================================
(PID.TID 0000.0001) K =   1
(PID.TID 0000.0001) //
(PID.TID 0000.0001) // |--J--|101234567
(PID.TID 0000.0001) //      7 ----+----
(PID.TID 0000.0001) //      6 ----+----
(PID.TID 0000.0001) //      5 ----+----
(PID.TID 0000.0001) //      4 ----+----
(PID.TID 0000.0001) //      3 ----+----
(PID.TID 0000.0001) //      2 ----+----
(PID.TID 0000.0001) //      1 ----+----
(PID.TID 0000.0001) //      0 ----+----
(PID.TID 0000.0001) //     -1 ----+----
(PID.TID 0000.0001) // =======================================================
(PID.TID 0000.0001) // END OF FIELD                                          =
(PID.TID 0000.0001) // =======================================================
(PID.TID 0000.0001) 
(PID.TID 0000.0001) // =======================================================
(PID.TID 0000.0001) // Field Model Ro_surf (ini_masks_etc) at iteration          1
(PID.TID 0000.0001) // CMIN =          1.000000000000000E+32
(PID.TID 0000.0001) // CMAX =         -1.000000000000000E+32
(PID.TID 0000.0001) // CINT =          0.000000000000000E+00
(PID.TID 0000.0001) // SYMBOLS (CMIN->CMAX): -abcdefghijklmnopqrstuvwxyz+
(PID.TID 0000.0001) //                  0.0: .
(PID.TID 0000.0001) // RANGE I (Lo:Hi:Step):(  -1:   7:   1)
(PID.TID 0000.0001) // RANGE J (Lo:Hi:Step):(   7:  -1:  -1)
(PID.TID 0000.0001) // RANGE K (Lo:Hi:Step):(   1:   1:   1)
(PID.TID 0000.0001) // =======================================================
(PID.TID 0000.0001) // =======================================================
(PID.TID 0000.0001) // END OF FIELD                                          =
(PID.TID 0000.0001) // =======================================================
(PID.TID 0000.0001) 
(PID.TID 0000.0001) // =======================================================
(PID.TID 0000.0001) // Field hFacC at iteration          1
(PID.TID 0000.0001) // CMIN =          1.000000000000000E+00
(PID.TID 0000.0001) // CMAX =          1.000000000000000E+00
(PID.TID 0000.0001) // CINT =          0.000000000000000E+00
(PID.TID 0000.0001) // SYMBOLS (CMIN->CMAX): -abcdefghijklmnopqrstuvwxyz+
(PID.TID 0000.0001) //                  0.0: .
(PID.TID 0000.0001) // RANGE I (Lo:Hi:Step):(  -1:   7:   1)
(PID.TID 0000.0001) // RANGE J (Lo:Hi:Step):(   7:  -1:  -1)
(PID.TID 0000.0001) // RANGE K (Lo:Hi:Step):(   1:   1:   1)
(PID.TID 0000.0001) // =======================================================
(PID.TID 0000.0001) // =======================================================
(PID.TID 0000.0001) // END OF FIELD                                          =
(PID.TID 0000.0001) // =======================================================
(PID.TID 0000.0001) 
(PID.TID 0000.0001) // =======================================================
(PID.TID 0000.0001) // Field hFacW at iteration          1
(PID.TID 0000.0001) // CMIN =          1.000000000000000E+00
(PID.TID 0000.0001) // CMAX =          1.000000000000000E+00
(PID.TID 0000.0001) // CINT =          0.000000000000000E+00
(PID.TID 0000.0001) // SYMBOLS (CMIN->CMAX): -abcdefghijklmnopqrstuvwxyz+
(PID.TID 0000.0001) //                  0.0: .
(PID.TID 0000.0001) // RANGE I (Lo:Hi:Step):(  -1:   7:   1)
(PID.TID 0000.0001) // RANGE J (Lo:Hi:Step):(   7:  -1:  -1)
(PID.TID 0000.0001) // RANGE K (Lo:Hi:Step):(   1:   1:   1)
(PID.TID 0000.0001) // =======================================================
(PID.TID 0000.0001) // =======================================================
(PID.TID 0000.0001) // END OF FIELD                                          =
(PID.TID 0000.0001) // =======================================================
(PID.TID 0000.0001) 
(PID.TID 0000.0001) // =======================================================
(PID.TID 0000.0001) // Field hFacS at iteration          1
(PID.TID 0000.0001) // CMIN =          1.000000000000000E+00
(PID.TID 0000.0001) // CMAX =          1.000000000000000E+00
(PID.TID 0000.0001) // CINT =          0.000000000000000E+00
(PID.TID 0000.0001) // SYMBOLS (CMIN->CMAX): -abcdefghijklmnopqrstuvwxyz+
(PID.TID 0000.0001) //                  0.0: .
(PID.TID 0000.0001) // RANGE I (Lo:Hi:Step):(  -1:   7:   1)
(PID.TID 0000.0001) // RANGE J (Lo:Hi:Step):(   7:  -1:  -1)
(PID.TID 0000.0001) // RANGE K (Lo:Hi:Step):(   1:   1:   1)
(PID.TID 0000.0001) // =======================================================
(PID.TID 0000.0001) // =======================================================
(PID.TID 0000.0001) // END OF FIELD                                          =
(PID.TID 0000.0001) // =======================================================
(PID.TID 0000.0001) 
(PID.TID 0000.0001) %MON surfExpanfCori_max           =  -1.0735540000000E-04
(PID.TID 0000.0001) %MON surfExpanfCori_min           =  -1.1783060000000E-04
(PID.TID 0000.0001) %MON surfExpanfCori_mean          =  -1.1259300000000E-04
(PID.TID 0000.0001) %MON surfExpanfCori_sd            =   3.7035424771427E-06
(PID.TID 0000.0001) %MON surfExpanfCoriG_max          =  -1.0866480000000E-04
(PID.TID 0000.0001) %MON surfExpanfCoriG_min          =  -1.1914000000000E-04
(PID.TID 0000.0001) %MON surfExpanfCoriG_mean         =  -1.1390240000000E-04
(PID.TID 0000.0001) %MON surfExpanfCoriG_sd           =   3.7035424771427E-06
(PID.TID 0000.0001) %MON surfExpanfCoriCos_max        =   0.0000000000000E+00
(PID.TID 0000.0001) %MON surfExpanfCoriCos_min        =   0.0000000000000E+00
(PID.TID 0000.0001) %MON surfExpanfCoriCos_mean       =   0.0000000000000E+00
(PID.TID 0000.0001) %MON surfExpanfCoriCos_sd         =   0.0000000000000E+00
(PID.TID 0000.0001) INI_CG2D: CG2D normalisation factor =  1.9999999999999996E-04
(PID.TID 0000.0001) 
                     ctrl_depth_ini: ctrl update R_low,
                                     adding the control vector.
(PID.TID 0000.0001)  MDS_READ_FIELD: opening file: xx_depth.0000000000.001.001.data
(PID.TID 0000.0001) // =======================================================
(PID.TID 0000.0001) // Field Model Ro_surf (update_masks_etc) at iteration          1
(PID.TID 0000.0001) // CMIN =          1.000000000000000E+32
(PID.TID 0000.0001) // CMAX =         -1.000000000000000E+32
(PID.TID 0000.0001) // CINT =          0.000000000000000E+00
(PID.TID 0000.0001) // SYMBOLS (CMIN->CMAX): -abcdefghijklmnopqrstuvwxyz+
(PID.TID 0000.0001) //                  0.0: .
(PID.TID 0000.0001) // RANGE I (Lo:Hi:Step):(  -1:   7:   1)
(PID.TID 0000.0001) // RANGE J (Lo:Hi:Step):(   7:  -1:  -1)
(PID.TID 0000.0001) // RANGE K (Lo:Hi:Step):(   1:   1:   1)
(PID.TID 0000.0001) // =======================================================
(PID.TID 0000.0001) // =======================================================
(PID.TID 0000.0001) // END OF FIELD                                          =
(PID.TID 0000.0001) // =======================================================
(PID.TID 0000.0001) 
(PID.TID 0000.0001) // =======================================================
(PID.TID 0000.0001) // Field hFacC at iteration          1
(PID.TID 0000.0001) // CMIN =          1.000000000000000E+00
(PID.TID 0000.0001) // CMAX =          1.000000000000000E+00
(PID.TID 0000.0001) // CINT =          0.000000000000000E+00
(PID.TID 0000.0001) // SYMBOLS (CMIN->CMAX): -abcdefghijklmnopqrstuvwxyz+
(PID.TID 0000.0001) //                  0.0: .
(PID.TID 0000.0001) // RANGE I (Lo:Hi:Step):(  -1:   7:   1)
(PID.TID 0000.0001) // RANGE J (Lo:Hi:Step):(   7:  -1:  -1)
(PID.TID 0000.0001) // RANGE K (Lo:Hi:Step):(   1:   1:   1)
(PID.TID 0000.0001) // =======================================================
(PID.TID 0000.0001) // =======================================================
(PID.TID 0000.0001) // END OF FIELD                                          =
(PID.TID 0000.0001) // =======================================================
(PID.TID 0000.0001) 
(PID.TID 0000.0001) // =======================================================
(PID.TID 0000.0001) // Field hFacW at iteration          1
(PID.TID 0000.0001) // CMIN =          1.000000000000000E+00
(PID.TID 0000.0001) // CMAX =          1.000000000000000E+00
(PID.TID 0000.0001) // CINT =          0.000000000000000E+00
(PID.TID 0000.0001) // SYMBOLS (CMIN->CMAX): -abcdefghijklmnopqrstuvwxyz+
(PID.TID 0000.0001) //                  0.0: .
(PID.TID 0000.0001) // RANGE I (Lo:Hi:Step):(  -1:   7:   1)
(PID.TID 0000.0001) // RANGE J (Lo:Hi:Step):(   7:  -1:  -1)
(PID.TID 0000.0001) // RANGE K (Lo:Hi:Step):(   1:   1:   1)
(PID.TID 0000.0001) // =======================================================
(PID.TID 0000.0001) // =======================================================
(PID.TID 0000.0001) // END OF FIELD                                          =
(PID.TID 0000.0001) // =======================================================
(PID.TID 0000.0001) 
(PID.TID 0000.0001) // =======================================================
(PID.TID 0000.0001) // Field hFacS at iteration          1
(PID.TID 0000.0001) // CMIN =          1.000000000000000E+00
(PID.TID 0000.0001) // CMAX =          1.000000000000000E+00
(PID.TID 0000.0001) // CINT =          0.000000000000000E+00
(PID.TID 0000.0001) // SYMBOLS (CMIN->CMAX): -abcdefghijklmnopqrstuvwxyz+
(PID.TID 0000.0001) //                  0.0: .
(PID.TID 0000.0001) // RANGE I (Lo:Hi:Step):(  -1:   7:   1)
(PID.TID 0000.0001) // RANGE J (Lo:Hi:Step):(   7:  -1:  -1)
(PID.TID 0000.0001) // RANGE K (Lo:Hi:Step):(   1:   1:   1)
(PID.TID 0000.0001) // =======================================================
(PID.TID 0000.0001) // =======================================================
(PID.TID 0000.0001) // END OF FIELD                                          =
(PID.TID 0000.0001) // =======================================================
(PID.TID 0000.0001) 
(PID.TID 0000.0001) // =======================================================
(PID.TID 0000.0001) // Field Initial Temperature at iteration          1
(PID.TID 0000.0001) // CMIN =          4.000000000000000E+00
(PID.TID 0000.0001) // CMAX =          4.000000000000000E+00
(PID.TID 0000.0001) // CINT =          0.000000000000000E+00
(PID.TID 0000.0001) // SYMBOLS (CMIN->CMAX): -abcdefghijklmnopqrstuvwxyz+
(PID.TID 0000.0001) //                  0.0: .
(PID.TID 0000.0001) // RANGE I (Lo:Hi:Step):(   1:   5:   1)
(PID.TID 0000.0001) // RANGE J (Lo:Hi:Step):(   5:   1:  -1)
(PID.TID 0000.0001) // RANGE K (Lo:Hi:Step):(   1:   1:   1)
(PID.TID 0000.0001) // =======================================================
(PID.TID 0000.0001) // =======================================================
(PID.TID 0000.0001) // END OF FIELD                                          =
(PID.TID 0000.0001) // =======================================================
(PID.TID 0000.0001) 
(PID.TID 0000.0001) // =======================================================
(PID.TID 0000.0001) // Field Initial Salinity at iteration          1
(PID.TID 0000.0001) // CMIN =          3.500000000000000E+01
(PID.TID 0000.0001) // CMAX =          3.500000000000000E+01
(PID.TID 0000.0001) // CINT =          0.000000000000000E+00
(PID.TID 0000.0001) // SYMBOLS (CMIN->CMAX): -abcdefghijklmnopqrstuvwxyz+
(PID.TID 0000.0001) //                  0.0: .
(PID.TID 0000.0001) // RANGE I (Lo:Hi:Step):(   1:   5:   1)
(PID.TID 0000.0001) // RANGE J (Lo:Hi:Step):(   5:   1:  -1)
(PID.TID 0000.0001) // RANGE K (Lo:Hi:Step):(   1:   1:   1)
(PID.TID 0000.0001) // =======================================================
(PID.TID 0000.0001) // =======================================================
(PID.TID 0000.0001) // END OF FIELD                                          =
(PID.TID 0000.0001) // =======================================================
(PID.TID 0000.0001) 
(PID.TID 0000.0001) Start initial hydrostatic pressure computation
(PID.TID 0000.0001) Pressure is predetermined for buoyancyRelation OCEANIC
(PID.TID 0000.0001) 
(PID.TID 0000.0001)  MDS_READ_FIELD: opening global file: windx.sin_y
(PID.TID 0000.0001) // =======================================================
(PID.TID 0000.0001) // Model current state
(PID.TID 0000.0001) // =======================================================
(PID.TID 0000.0001) 
 cg2d: Sum(rhs),rhsMax =   0.00000000000000E+00  0.00000000000000E+00
 cg2d: Sum(rhs),rhsMax =  -2.49999999999996E+01  6.03492218443698E-05
 cg2d: Sum(rhs),rhsMax =  -1.81034404639062E+01  2.18766023587219E-04
 cg2d: Sum(rhs),rhsMax =  -1.54955562832147E+01  4.32479836297446E-04
 cg2d: Sum(rhs),rhsMax =  -1.41111452328576E+01  6.49958988327954E-04
 cg2d: Sum(rhs),rhsMax =  -1.31144322333884E+01  8.30737102820660E-04
 cg2d: Sum(rhs),rhsMax =  -1.21209090327102E+01  9.52510661951501E-04
 cg2d: Sum(rhs),rhsMax =  -1.07124742350429E+01  1.02806631183806E-03
 cg2d: Sum(rhs),rhsMax =  -7.41375936618566E+00  1.27086596341740E-03
 cg2d: Sum(rhs),rhsMax =  -4.70217533441269E+00  1.51019014097724E-03
 cg2d: Sum(rhs),rhsMax =  -2.72440685937726E+00  1.65833738304038E-03
 cg2d: Sum(rhs),rhsMax =  -1.27958669069478E+00  1.70565508803007E-03
 cg2d: Sum(rhs),rhsMax =  -3.29564699366173E-01  1.66071960563785E-03
 cg2d: Sum(rhs),rhsMax =   5.21320404751738E-02  1.54812756075626E-03
 cg2d: Sum(rhs),rhsMax =  -2.86625375037814E-01  1.40338815970413E-03
 cg2d: Sum(rhs),rhsMax =  -1.30315843636020E+00  1.44268599446398E-03
 cg2d: Sum(rhs),rhsMax =  -2.68067690780731E+00  1.50836886390679E-03
 cg2d: Sum(rhs),rhsMax =  -4.07407453962488E+00  1.58424366699682E-03
 cg2d: Sum(rhs),rhsMax =  -5.18272348533175E+00  1.66593592705663E-03
 cg2d: Sum(rhs),rhsMax =  -5.80990598644752E+00  1.74846175263829E-03
 cg2d: Sum(rhs),rhsMax =  -5.87740627684587E+00  1.82725971161581E-03
 cg2d: Sum(rhs),rhsMax =  -5.41358311284111E+00  1.89900434704945E-03
 cg2d: Sum(rhs),rhsMax =  -4.53080676578031E+00  1.96213934605309E-03
 cg2d: Sum(rhs),rhsMax =  -3.22587899059324E+00  2.12611202558486E-03
 cg2d: Sum(rhs),rhsMax =  -2.04447211860615E+00  2.24837953761427E-03
 cg2d: Sum(rhs),rhsMax =  -1.10818137182430E+00  2.30404049213532E-03
 cg2d: Sum(rhs),rhsMax =  -4.90484879116613E-01  2.29576532491248E-03
 cg2d: Sum(rhs),rhsMax =  -2.61247062337479E-01  2.23814842258096E-03
 cg2d: Sum(rhs),rhsMax =  -4.50921967219765E-01  2.26266906809005E-03
 cg2d: Sum(rhs),rhsMax =  -1.00469610518999E+00  2.31946122840591E-03
 cg2d: Sum(rhs),rhsMax =  -1.78565331371164E+00  2.37599941343381E-03
 cg2d: Sum(rhs),rhsMax =  -2.62429308848825E+00  2.42805543156368E-03
 cg2d: Sum(rhs),rhsMax =  -3.35748486738233E+00  2.47123044788862E-03
 cg2d: Sum(rhs),rhsMax =  -3.85508917831563E+00  2.50195598120649E-03
 cg2d: Sum(rhs),rhsMax =  -4.03589978067759E+00  2.51830322377525E-03
 cg2d: Sum(rhs),rhsMax =  -3.87512847844588E+00  2.52047518996985E-03
 cg2d: Sum(rhs),rhsMax =  -3.40600368300684E+00  2.51092921735817E-03
 cg2d: Sum(rhs),rhsMax =  -2.61682441716654E+00  2.58874088430832E-03
 cg2d: Sum(rhs),rhsMax =  -1.83238710858712E+00  2.61669731067727E-03
 cg2d: Sum(rhs),rhsMax =  -1.17513337035650E+00  2.56005947315515E-03
 cg2d: Sum(rhs),rhsMax =  -7.11994611116097E-01  2.47855830217770E-03
 cg2d: Sum(rhs),rhsMax =  -5.26422144154411E-01  2.47042092608613E-03
 cg2d: Sum(rhs),rhsMax =  -6.78930207918776E-01  2.49676870341789E-03
 cg2d: Sum(rhs),rhsMax =  -1.12673721462647E+00  2.53652611410857E-03
 cg2d: Sum(rhs),rhsMax =  -1.75981624978102E+00  2.58504763751990E-03
 cg2d: Sum(rhs),rhsMax =  -2.43940635572926E+00  2.63568090114221E-03
 cg2d: Sum(rhs),rhsMax =  -3.03203009354022E+00  2.68092813636074E-03
 cg2d: Sum(rhs),rhsMax =  -3.40991310097336E+00  2.73286304993667E-03
 cg2d: Sum(rhs),rhsMax =  -3.48046021406890E+00  2.80943923514232E-03
 cg2d: Sum(rhs),rhsMax =  -3.32063071193469E+00  2.84054009867096E-03
 cg2d: Sum(rhs),rhsMax =  -2.96079445651971E+00  2.82589058874167E-03
 cg2d: Sum(rhs),rhsMax =  -2.32992808718588E+00  2.92147976858519E-03
 cg2d: Sum(rhs),rhsMax =  -1.72242454041139E+00  2.94384965033879E-03
 cg2d: Sum(rhs),rhsMax =  -1.21221901648696E+00  2.89157782025328E-03
 cg2d: Sum(rhs),rhsMax =  -8.69698374791619E-01  2.78046459640413E-03
 cg2d: Sum(rhs),rhsMax =  -7.64867784070191E-01  2.63730952245781E-03
 cg2d: Sum(rhs),rhsMax =  -9.31747827894798E-01  2.54529704179326E-03
 cg2d: Sum(rhs),rhsMax =  -1.31074336582835E+00  2.59464769413735E-03
 cg2d: Sum(rhs),rhsMax =  -1.82960840738512E+00  2.67470089050180E-03
 cg2d: Sum(rhs),rhsMax =  -2.36415406667707E+00  2.77096213081608E-03
 cg2d: Sum(rhs),rhsMax =  -2.80794776821653E+00  2.86583707008887E-03
 cg2d: Sum(rhs),rhsMax =  -3.09076535191804E+00  2.94225355111525E-03
 cg2d: Sum(rhs),rhsMax =  -3.17911020998902E+00  2.98708407990634E-03
 cg2d: Sum(rhs),rhsMax =  -3.06968977770066E+00  2.99369702871450E-03
 cg2d: Sum(rhs),rhsMax =  -2.74200027098518E+00  3.00868118156590E-03
 cg2d: Sum(rhs),rhsMax =  -2.22987015135091E+00  3.08320498661492E-03
 cg2d: Sum(rhs),rhsMax =  -1.72892381191495E+00  3.09216604759562E-03
 cg2d: Sum(rhs),rhsMax =  -1.30661123235505E+00  3.03707926381194E-03
 cg2d: Sum(rhs),rhsMax =  -1.02724584662636E+00  2.93201257041965E-03
 cg2d: Sum(rhs),rhsMax =  -9.49612051657135E-01  2.80059570832262E-03
 cg2d: Sum(rhs),rhsMax =  -1.10546678439469E+00  2.68802012965738E-03
 cg2d: Sum(rhs),rhsMax =  -1.41911842645382E+00  2.73183504922706E-03
 cg2d: Sum(rhs),rhsMax =  -1.85263649021483E+00  2.80075125061904E-03
 cg2d: Sum(rhs),rhsMax =  -2.30607101914900E+00  2.88121985377373E-03
 cg2d: Sum(rhs),rhsMax =  -2.69038329613425E+00  2.95745899627503E-03
 cg2d: Sum(rhs),rhsMax =  -2.94313281529346E+00  3.01465310667240E-03
 cg2d: Sum(rhs),rhsMax =  -3.03123920291475E+00  3.04190026889108E-03
 cg2d: Sum(rhs),rhsMax =  -2.94785318533248E+00  3.03433141154054E-03
 cg2d: Sum(rhs),rhsMax =  -2.61356650872806E+00  3.10365980236300E-03
 cg2d: Sum(rhs),rhsMax =  -2.18161313160560E+00  3.16115507143532E-03
 cg2d: Sum(rhs),rhsMax =  -1.75526119521171E+00  3.15966315605624E-03
 cg2d: Sum(rhs),rhsMax =  -1.39603739021410E+00  3.10114914361190E-03
 cg2d: Sum(rhs),rhsMax =  -1.16177135446586E+00  2.99876547610007E-03
 cg2d: Sum(rhs),rhsMax =  -1.10293742248702E+00  2.87411085408669E-03
 cg2d: Sum(rhs),rhsMax =  -1.24975128794011E+00  2.75286356652277E-03
 cg2d: Sum(rhs),rhsMax =  -1.53840864401756E+00  2.75098216605803E-03
 cg2d: Sum(rhs),rhsMax =  -1.91301868044056E+00  2.81271669055436E-03
 cg2d: Sum(rhs),rhsMax =  -2.30705936456037E+00  2.88449381059467E-03
 cg2d: Sum(rhs),rhsMax =  -2.64297549508224E+00  2.95188725435409E-03
 cg2d: Sum(rhs),rhsMax =  -2.86495125956338E+00  3.00154118467573E-03
 cg2d: Sum(rhs),rhsMax =  -2.94238805182301E+00  3.02377926036033E-03
 cg2d: Sum(rhs),rhsMax =  -2.84207306728919E+00  3.04217208972121E-03
 cg2d: Sum(rhs),rhsMax =  -2.51902169550510E+00  3.13830807341092E-03
 cg2d: Sum(rhs),rhsMax =  -2.14123724098270E+00  3.18959325908201E-03
 cg2d: Sum(rhs),rhsMax =  -1.76835912884038E+00  3.18714934924791E-03
 cg2d: Sum(rhs),rhsMax =  -1.45590343437527E+00  3.13272231890951E-03
 cg2d: Sum(rhs),rhsMax =  -1.25508064369954E+00  3.03818420053327E-03
 cg2d: Sum(rhs),rhsMax =  -1.20874897074558E+00  2.92305994941757E-03
 cg2d: Sum(rhs),rhsMax =  -1.34034303317153E+00  2.81059309263875E-03
 cg2d: Sum(rhs),rhsMax =  -1.62624324503064E+00  2.74190572537281E-03
(PID.TID 0000.0001) %CHECKPOINT       100 ckptB
 --> objf_test(bi,bj)   =  0.509071982332796E-01
 --> objf_tracer(bi,bj) =  0.000000000000000E+00
 --> objf_atl(bi,bj)    =  0.000000000000000E+00
  local fc =  0.509071982332796E-01
 global fc =  0.509071982332796E-01
(PID.TID 0000.0001)  MDS_READ_FIELD: opening file: xx_depth.0000000000.001.001.data
grad-res -------------------------------
 grad-res     0   19    4    4    1    1    1    1   0.509071982062E-01 0.509071981790E-01 0.509071982333E-01
 grad-res     0   19   19   19   25    1    1    1   -.271513193836E-06 -.271280012343E-06 0.858821958140E-03
(PID.TID 0000.0001)   ADM  precision_derivative_cost =    5.09071982061515E-02
(PID.TID 0000.0001)   ADM  precision_derivative_grad =   -2.71513193835569E-07
 ph-grd  ierr ---------------------------
 ph-grd  ierr =  0, icomp =  19, ichknum =  19
 ph-grd -->hit<--  5 4 1 1
(PID.TID 0000.0001)  MDS_READ_FIELD: opening file: adxx_depth.0000000000.001.001.data
(PID.TID 0000.0001)  MDS_READ_FIELD: opening file: xx_depth.0000000000.001.001.data
(PID.TID 0000.0001)  MDS_READ_FIELD: opening global file: noWalls.bigRidge
(PID.TID 0000.0001) // =======================================================
(PID.TID 0000.0001) // Field Model R_low (ini_masks_etc) at iteration          1
(PID.TID 0000.0001) // CMIN =         -5.000000000000000E+03
(PID.TID 0000.0001) // CMAX =         -2.000000000000000E+03
(PID.TID 0000.0001) // CINT =          1.111111111111111E+02
(PID.TID 0000.0001) // SYMBOLS (CMIN->CMAX): -abcdefghijklmnopqrstuvwxyz+
(PID.TID 0000.0001) //                  0.0: .
(PID.TID 0000.0001) // RANGE I (Lo:Hi:Step):(  -1:   7:   1)
(PID.TID 0000.0001) // RANGE J (Lo:Hi:Step):(   7:  -1:  -1)
(PID.TID 0000.0001) // RANGE K (Lo:Hi:Step):(   1:   1:   1)
(PID.TID 0000.0001) // =======================================================
(PID.TID 0000.0001) K =   1
(PID.TID 0000.0001) //
(PID.TID 0000.0001) // |--J--|101234567
(PID.TID 0000.0001) //      7 ----+----
(PID.TID 0000.0001) //      6 ----+----
(PID.TID 0000.0001) //      5 ----+----
(PID.TID 0000.0001) //      4 ----+----
(PID.TID 0000.0001) //      3 ----+----
(PID.TID 0000.0001) //      2 ----+----
(PID.TID 0000.0001) //      1 ----+----
(PID.TID 0000.0001) //      0 ----+----
(PID.TID 0000.0001) //     -1 ----+----
(PID.TID 0000.0001) // =======================================================
(PID.TID 0000.0001) // END OF FIELD                                          =
(PID.TID 0000.0001) // =======================================================
(PID.TID 0000.0001) 
(PID.TID 0000.0001) // =======================================================
(PID.TID 0000.0001) // Field Model Ro_surf (ini_masks_etc) at iteration          1
(PID.TID 0000.0001) // CMIN =          1.000000000000000E+32
(PID.TID 0000.0001) // CMAX =         -1.000000000000000E+32
(PID.TID 0000.0001) // CINT =          0.000000000000000E+00
(PID.TID 0000.0001) // SYMBOLS (CMIN->CMAX): -abcdefghijklmnopqrstuvwxyz+
(PID.TID 0000.0001) //                  0.0: .
(PID.TID 0000.0001) // RANGE I (Lo:Hi:Step):(  -1:   7:   1)
(PID.TID 0000.0001) // RANGE J (Lo:Hi:Step):(   7:  -1:  -1)
(PID.TID 0000.0001) // RANGE K (Lo:Hi:Step):(   1:   1:   1)
(PID.TID 0000.0001) // =======================================================
(PID.TID 0000.0001) // =======================================================
(PID.TID 0000.0001) // END OF FIELD                                          =
(PID.TID 0000.0001) // =======================================================
(PID.TID 0000.0001) 
(PID.TID 0000.0001) // =======================================================
(PID.TID 0000.0001) // Field hFacC at iteration          1
(PID.TID 0000.0001) // CMIN =          1.000000000000000E+00
(PID.TID 0000.0001) // CMAX =          1.000000000000000E+00
(PID.TID 0000.0001) // CINT =          0.000000000000000E+00
(PID.TID 0000.0001) // SYMBOLS (CMIN->CMAX): -abcdefghijklmnopqrstuvwxyz+
(PID.TID 0000.0001) //                  0.0: .
(PID.TID 0000.0001) // RANGE I (Lo:Hi:Step):(  -1:   7:   1)
(PID.TID 0000.0001) // RANGE J (Lo:Hi:Step):(   7:  -1:  -1)
(PID.TID 0000.0001) // RANGE K (Lo:Hi:Step):(   1:   1:   1)
(PID.TID 0000.0001) // =======================================================
(PID.TID 0000.0001) // =======================================================
(PID.TID 0000.0001) // END OF FIELD                                          =
(PID.TID 0000.0001) // =======================================================
(PID.TID 0000.0001) 
(PID.TID 0000.0001) // =======================================================
(PID.TID 0000.0001) // Field hFacW at iteration          1
(PID.TID 0000.0001) // CMIN =          1.000000000000000E+00
(PID.TID 0000.0001) // CMAX =          1.000000000000000E+00
(PID.TID 0000.0001) // CINT =          0.000000000000000E+00
(PID.TID 0000.0001) // SYMBOLS (CMIN->CMAX): -abcdefghijklmnopqrstuvwxyz+
(PID.TID 0000.0001) //                  0.0: .
(PID.TID 0000.0001) // RANGE I (Lo:Hi:Step):(  -1:   7:   1)
(PID.TID 0000.0001) // RANGE J (Lo:Hi:Step):(   7:  -1:  -1)
(PID.TID 0000.0001) // RANGE K (Lo:Hi:Step):(   1:   1:   1)
(PID.TID 0000.0001) // =======================================================
(PID.TID 0000.0001) // =======================================================
(PID.TID 0000.0001) // END OF FIELD                                          =
(PID.TID 0000.0001) // =======================================================
(PID.TID 0000.0001) 
(PID.TID 0000.0001) // =======================================================
(PID.TID 0000.0001) // Field hFacS at iteration          1
(PID.TID 0000.0001) // CMIN =          1.000000000000000E+00
(PID.TID 0000.0001) // CMAX =          1.000000000000000E+00
(PID.TID 0000.0001) // CINT =          0.000000000000000E+00
(PID.TID 0000.0001) // SYMBOLS (CMIN->CMAX): -abcdefghijklmnopqrstuvwxyz+
(PID.TID 0000.0001) //                  0.0: .
(PID.TID 0000.0001) // RANGE I (Lo:Hi:Step):(  -1:   7:   1)
(PID.TID 0000.0001) // RANGE J (Lo:Hi:Step):(   7:  -1:  -1)
(PID.TID 0000.0001) // RANGE K (Lo:Hi:Step):(   1:   1:   1)
(PID.TID 0000.0001) // =======================================================
(PID.TID 0000.0001) // =======================================================
(PID.TID 0000.0001) // END OF FIELD                                          =
(PID.TID 0000.0001) // =======================================================
(PID.TID 0000.0001) 
(PID.TID 0000.0001) %MON surfExpanfCori_max           =  -1.0735540000000E-04
(PID.TID 0000.0001) %MON surfExpanfCori_min           =  -1.1783060000000E-04
(PID.TID 0000.0001) %MON surfExpanfCori_mean          =  -1.1259300000000E-04
(PID.TID 0000.0001) %MON surfExpanfCori_sd            =   3.7035424771427E-06
(PID.TID 0000.0001) %MON surfExpanfCoriG_max          =  -1.0866480000000E-04
(PID.TID 0000.0001) %MON surfExpanfCoriG_min          =  -1.1914000000000E-04
(PID.TID 0000.0001) %MON surfExpanfCoriG_mean         =  -1.1390240000000E-04
(PID.TID 0000.0001) %MON surfExpanfCoriG_sd           =   3.7035424771427E-06
(PID.TID 0000.0001) %MON surfExpanfCoriCos_max        =   0.0000000000000E+00
(PID.TID 0000.0001) %MON surfExpanfCoriCos_min        =   0.0000000000000E+00
(PID.TID 0000.0001) %MON surfExpanfCoriCos_mean       =   0.0000000000000E+00
(PID.TID 0000.0001) %MON surfExpanfCoriCos_sd         =   0.0000000000000E+00
(PID.TID 0000.0001) INI_CG2D: CG2D normalisation factor =  1.9999999999999996E-04
(PID.TID 0000.0001) 
                     ctrl_depth_ini: ctrl update R_low,
                                     adding the control vector.
(PID.TID 0000.0001)  MDS_READ_FIELD: opening file: xx_depth.0000000000.001.001.data
(PID.TID 0000.0001) // =======================================================
(PID.TID 0000.0001) // Field Model Ro_surf (update_masks_etc) at iteration          1
(PID.TID 0000.0001) // CMIN =          1.000000000000000E+32
(PID.TID 0000.0001) // CMAX =         -1.000000000000000E+32
(PID.TID 0000.0001) // CINT =          0.000000000000000E+00
(PID.TID 0000.0001) // SYMBOLS (CMIN->CMAX): -abcdefghijklmnopqrstuvwxyz+
(PID.TID 0000.0001) //                  0.0: .
(PID.TID 0000.0001) // RANGE I (Lo:Hi:Step):(  -1:   7:   1)
(PID.TID 0000.0001) // RANGE J (Lo:Hi:Step):(   7:  -1:  -1)
(PID.TID 0000.0001) // RANGE K (Lo:Hi:Step):(   1:   1:   1)
(PID.TID 0000.0001) // =======================================================
(PID.TID 0000.0001) // =======================================================
(PID.TID 0000.0001) // END OF FIELD                                          =
(PID.TID 0000.0001) // =======================================================
(PID.TID 0000.0001) 
(PID.TID 0000.0001) // =======================================================
(PID.TID 0000.0001) // Field hFacC at iteration          1
(PID.TID 0000.0001) // CMIN =          1.000000000000000E+00
(PID.TID 0000.0001) // CMAX =          1.000000000000000E+00
(PID.TID 0000.0001) // CINT =          0.000000000000000E+00
(PID.TID 0000.0001) // SYMBOLS (CMIN->CMAX): -abcdefghijklmnopqrstuvwxyz+
(PID.TID 0000.0001) //                  0.0: .
(PID.TID 0000.0001) // RANGE I (Lo:Hi:Step):(  -1:   7:   1)
(PID.TID 0000.0001) // RANGE J (Lo:Hi:Step):(   7:  -1:  -1)
(PID.TID 0000.0001) // RANGE K (Lo:Hi:Step):(   1:   1:   1)
(PID.TID 0000.0001) // =======================================================
(PID.TID 0000.0001) // =======================================================
(PID.TID 0000.0001) // END OF FIELD                                          =
(PID.TID 0000.0001) // =======================================================
(PID.TID 0000.0001) 
(PID.TID 0000.0001) // =======================================================
(PID.TID 0000.0001) // Field hFacW at iteration          1
(PID.TID 0000.0001) // CMIN =          1.000000000000000E+00
(PID.TID 0000.0001) // CMAX =          1.000000000000000E+00
(PID.TID 0000.0001) // CINT =          0.000000000000000E+00
(PID.TID 0000.0001) // SYMBOLS (CMIN->CMAX): -abcdefghijklmnopqrstuvwxyz+
(PID.TID 0000.0001) //                  0.0: .
(PID.TID 0000.0001) // RANGE I (Lo:Hi:Step):(  -1:   7:   1)
(PID.TID 0000.0001) // RANGE J (Lo:Hi:Step):(   7:  -1:  -1)
(PID.TID 0000.0001) // RANGE K (Lo:Hi:Step):(   1:   1:   1)
(PID.TID 0000.0001) // =======================================================
(PID.TID 0000.0001) // =======================================================
(PID.TID 0000.0001) // END OF FIELD                                          =
(PID.TID 0000.0001) // =======================================================
(PID.TID 0000.0001) 
(PID.TID 0000.0001) // =======================================================
(PID.TID 0000.0001) // Field hFacS at iteration          1
(PID.TID 0000.0001) // CMIN =          1.000000000000000E+00
(PID.TID 0000.0001) // CMAX =          1.000000000000000E+00
(PID.TID 0000.0001) // CINT =          0.000000000000000E+00
(PID.TID 0000.0001) // SYMBOLS (CMIN->CMAX): -abcdefghijklmnopqrstuvwxyz+
(PID.TID 0000.0001) //                  0.0: .
(PID.TID 0000.0001) // RANGE I (Lo:Hi:Step):(  -1:   7:   1)
(PID.TID 0000.0001) // RANGE J (Lo:Hi:Step):(   7:  -1:  -1)
(PID.TID 0000.0001) // RANGE K (Lo:Hi:Step):(   1:   1:   1)
(PID.TID 0000.0001) // =======================================================
(PID.TID 0000.0001) // =======================================================
(PID.TID 0000.0001) // END OF FIELD                                          =
(PID.TID 0000.0001) // =======================================================
(PID.TID 0000.0001) 
(PID.TID 0000.0001) // =======================================================
(PID.TID 0000.0001) // Field Initial Temperature at iteration          1
(PID.TID 0000.0001) // CMIN =          4.000000000000000E+00
(PID.TID 0000.0001) // CMAX =          4.000000000000000E+00
(PID.TID 0000.0001) // CINT =          0.000000000000000E+00
(PID.TID 0000.0001) // SYMBOLS (CMIN->CMAX): -abcdefghijklmnopqrstuvwxyz+
(PID.TID 0000.0001) //                  0.0: .
(PID.TID 0000.0001) // RANGE I (Lo:Hi:Step):(   1:   5:   1)
(PID.TID 0000.0001) // RANGE J (Lo:Hi:Step):(   5:   1:  -1)
(PID.TID 0000.0001) // RANGE K (Lo:Hi:Step):(   1:   1:   1)
(PID.TID 0000.0001) // =======================================================
(PID.TID 0000.0001) // =======================================================
(PID.TID 0000.0001) // END OF FIELD                                          =
(PID.TID 0000.0001) // =======================================================
(PID.TID 0000.0001) 
(PID.TID 0000.0001) // =======================================================
(PID.TID 0000.0001) // Field Initial Salinity at iteration          1
(PID.TID 0000.0001) // CMIN =          3.500000000000000E+01
(PID.TID 0000.0001) // CMAX =          3.500000000000000E+01
(PID.TID 0000.0001) // CINT =          0.000000000000000E+00
(PID.TID 0000.0001) // SYMBOLS (CMIN->CMAX): -abcdefghijklmnopqrstuvwxyz+
(PID.TID 0000.0001) //                  0.0: .
(PID.TID 0000.0001) // RANGE I (Lo:Hi:Step):(   1:   5:   1)
(PID.TID 0000.0001) // RANGE J (Lo:Hi:Step):(   5:   1:  -1)
(PID.TID 0000.0001) // RANGE K (Lo:Hi:Step):(   1:   1:   1)
(PID.TID 0000.0001) // =======================================================
(PID.TID 0000.0001) // =======================================================
(PID.TID 0000.0001) // END OF FIELD                                          =
(PID.TID 0000.0001) // =======================================================
(PID.TID 0000.0001) 
(PID.TID 0000.0001) Start initial hydrostatic pressure computation
(PID.TID 0000.0001) Pressure is predetermined for buoyancyRelation OCEANIC
(PID.TID 0000.0001) 
(PID.TID 0000.0001)  MDS_READ_FIELD: opening global file: windx.sin_y
(PID.TID 0000.0001) // =======================================================
(PID.TID 0000.0001) // Model current state
(PID.TID 0000.0001) // =======================================================
(PID.TID 0000.0001) 
 cg2d: Sum(rhs),rhsMax =   0.00000000000000E+00  0.00000000000000E+00
 cg2d: Sum(rhs),rhsMax =  -2.49999999999996E+01  6.03492218443698E-05
 cg2d: Sum(rhs),rhsMax =  -1.81034404639062E+01  2.18766023587219E-04
 cg2d: Sum(rhs),rhsMax =  -1.54955562832148E+01  4.32479836297446E-04
 cg2d: Sum(rhs),rhsMax =  -1.41111452330567E+01  6.49958988318259E-04
 cg2d: Sum(rhs),rhsMax =  -1.31144322333419E+01  8.30737102822854E-04
 cg2d: Sum(rhs),rhsMax =  -1.21209090326130E+01  9.52510661959038E-04
 cg2d: Sum(rhs),rhsMax =  -1.07124742383480E+01  1.02806631152229E-03
 cg2d: Sum(rhs),rhsMax =  -7.41375936628308E+00  1.27086596340463E-03
 cg2d: Sum(rhs),rhsMax =  -4.70217533423228E+00  1.51019014104044E-03
 cg2d: Sum(rhs),rhsMax =  -2.72440685906406E+00  1.65833738322502E-03
 cg2d: Sum(rhs),rhsMax =  -1.27958669036224E+00  1.70565508838871E-03
 cg2d: Sum(rhs),rhsMax =  -3.29564699096824E-01  1.66071960622249E-03
 cg2d: Sum(rhs),rhsMax =   5.21320407326680E-02  1.54812756160980E-03
 cg2d: Sum(rhs),rhsMax =  -2.86625374345303E-01  1.40338816085039E-03
 cg2d: Sum(rhs),rhsMax =  -1.30315843234964E+00  1.44268599828407E-03
 cg2d: Sum(rhs),rhsMax =  -2.68067690006940E+00  1.50836886793333E-03
 cg2d: Sum(rhs),rhsMax =  -4.07407452897534E+00  1.58424367094361E-03
 cg2d: Sum(rhs),rhsMax =  -5.18272347379007E+00  1.66593593067066E-03
 cg2d: Sum(rhs),rhsMax =  -5.80990597612686E+00  1.74846175575132E-03
 cg2d: Sum(rhs),rhsMax =  -5.87740626904273E+00  1.82725971418317E-03
 cg2d: Sum(rhs),rhsMax =  -5.41358310777621E+00  1.89900434916808E-03
 cg2d: Sum(rhs),rhsMax =  -4.53080676294575E+00  1.96213934795424E-03
 cg2d: Sum(rhs),rhsMax =  -3.22587899130420E+00  2.12611202646930E-03
 cg2d: Sum(rhs),rhsMax =  -2.04447212064871E+00  2.24837953816202E-03
 cg2d: Sum(rhs),rhsMax =  -1.10818137474516E+00  2.30404049240102E-03
 cg2d: Sum(rhs),rhsMax =  -4.90484882694854E-01  2.29576532498400E-03
 cg2d: Sum(rhs),rhsMax =  -2.61247066525527E-01  2.23814842256440E-03
 cg2d: Sum(rhs),rhsMax =  -4.50921970371081E-01  2.26266907533527E-03
 cg2d: Sum(rhs),rhsMax =  -1.00469610643582E+00  2.31946123686034E-03
 cg2d: Sum(rhs),rhsMax =  -1.78565331187731E+00  2.37599942282044E-03
 cg2d: Sum(rhs),rhsMax =  -2.62429308330489E+00  2.42805544151936E-03
 cg2d: Sum(rhs),rhsMax =  -3.35748485963053E+00  2.47123045802624E-03
 cg2d: Sum(rhs),rhsMax =  -3.85508916953462E+00  2.50195599118085E-03
 cg2d: Sum(rhs),rhsMax =  -4.03589977264382E+00  2.51830323334110E-03
 cg2d: Sum(rhs),rhsMax =  -3.87512847268149E+00  2.52047519902193E-03
 cg2d: Sum(rhs),rhsMax =  -3.40600368049873E+00  2.51092922594657E-03
 cg2d: Sum(rhs),rhsMax =  -2.61682444994126E+00  2.58874086163501E-03
 cg2d: Sum(rhs),rhsMax =  -1.83238713539394E+00  2.61669728774878E-03
 cg2d: Sum(rhs),rhsMax =  -1.17513339286853E+00  2.56005945025170E-03
 cg2d: Sum(rhs),rhsMax =  -7.11994624891243E-01  2.47855830085259E-03
 cg2d: Sum(rhs),rhsMax =  -5.26422156304617E-01  2.47042093657218E-03
 cg2d: Sum(rhs),rhsMax =  -6.78930219855171E-01  2.49676871509367E-03
 cg2d: Sum(rhs),rhsMax =  -1.12673722459116E+00  2.53652612701570E-03
 cg2d: Sum(rhs),rhsMax =  -1.75981625641525E+00  2.58504765156966E-03
 cg2d: Sum(rhs),rhsMax =  -2.43940635853667E+00  2.63568091614029E-03
 cg2d: Sum(rhs),rhsMax =  -3.03203009304411E+00  2.68092815204953E-03
 cg2d: Sum(rhs),rhsMax =  -3.40991310512304E+00  2.73286306089359E-03
 cg2d: Sum(rhs),rhsMax =  -3.48046021861716E+00  2.80943924624317E-03
 cg2d: Sum(rhs),rhsMax =  -3.32063071820816E+00  2.84054010967817E-03
 cg2d: Sum(rhs),rhsMax =  -2.96079446559373E+00  2.82589059951254E-03
 cg2d: Sum(rhs),rhsMax =  -2.32992813194545E+00  2.92147973856890E-03
 cg2d: Sum(rhs),rhsMax =  -1.72242458009664E+00  2.94384961976879E-03
 cg2d: Sum(rhs),rhsMax =  -1.21221905277720E+00  2.89157778935681E-03
 cg2d: Sum(rhs),rhsMax =  -8.69698409929223E-01  2.78046456535410E-03
 cg2d: Sum(rhs),rhsMax =  -7.64867821067253E-01  2.63730949134832E-03
 cg2d: Sum(rhs),rhsMax =  -9.31747853688316E-01  2.54529705369506E-03
 cg2d: Sum(rhs),rhsMax =  -1.31074339005117E+00  2.59464770694096E-03
 cg2d: Sum(rhs),rhsMax =  -1.82960842882326E+00  2.67470090426601E-03
 cg2d: Sum(rhs),rhsMax =  -2.36415408500263E+00  2.77096214550431E-03
 cg2d: Sum(rhs),rhsMax =  -2.80794778396847E+00  2.86583708558587E-03
 cg2d: Sum(rhs),rhsMax =  -3.09076536624242E+00  2.94225356725873E-03
 cg2d: Sum(rhs),rhsMax =  -3.17911022433278E+00  2.98708409652634E-03
 cg2d: Sum(rhs),rhsMax =  -3.06968979357024E+00  2.99369704567268E-03
 cg2d: Sum(rhs),rhsMax =  -2.74200033718374E+00  3.00868114672436E-03
 cg2d: Sum(rhs),rhsMax =  -2.22987021180094E+00  3.08320495138037E-03
 cg2d: Sum(rhs),rhsMax =  -1.72892386798181E+00  3.09216601210242E-03
 cg2d: Sum(rhs),rhsMax =  -1.30661128592363E+00  3.03707922817336E-03
 cg2d: Sum(rhs),rhsMax =  -1.02724590010869E+00  2.93201253470470E-03
 cg2d: Sum(rhs),rhsMax =  -9.49612108055500E-01  2.80059567254318E-03
 cg2d: Sum(rhs),rhsMax =  -1.10546682333150E+00  2.68802015049407E-03
 cg2d: Sum(rhs),rhsMax =  -1.41911846316851E+00  2.73183507111351E-03
 cg2d: Sum(rhs),rhsMax =  -1.85263652326681E+00  2.80075127354400E-03
 cg2d: Sum(rhs),rhsMax =  -2.30607104822845E+00  2.88121987765037E-03
 cg2d: Sum(rhs),rhsMax =  -2.69038332198093E+00  2.95745902096043E-03
 cg2d: Sum(rhs),rhsMax =  -2.94313283937035E+00  3.01465313199882E-03
 cg2d: Sum(rhs),rhsMax =  -3.03123922705271E+00  3.04190029470271E-03
 cg2d: Sum(rhs),rhsMax =  -2.94785321145245E+00  3.03433143772830E-03
 cg2d: Sum(rhs),rhsMax =  -2.61356659345096E+00  3.10365976351288E-03
 cg2d: Sum(rhs),rhsMax =  -2.18161321110921E+00  3.16115503252901E-03
 cg2d: Sum(rhs),rhsMax =  -1.75526127103410E+00  3.15966311723893E-03
 cg2d: Sum(rhs),rhsMax =  -1.39603746445229E+00  3.10114910498508E-03
 cg2d: Sum(rhs),rhsMax =  -1.16177142968783E+00  2.99876543770023E-03
 cg2d: Sum(rhs),rhsMax =  -1.10293750165846E+00  2.87411081587612E-03
 cg2d: Sum(rhs),rhsMax =  -1.24975137414286E+00  2.75286352839458E-03
 cg2d: Sum(rhs),rhsMax =  -1.53840869623070E+00  2.75098219865285E-03
 cg2d: Sum(rhs),rhsMax =  -1.91301872777948E+00  2.81271672439389E-03
 cg2d: Sum(rhs),rhsMax =  -2.30705940665086E+00  2.88449384556009E-03
 cg2d: Sum(rhs),rhsMax =  -2.64297553286889E+00  2.95188729026301E-03
 cg2d: Sum(rhs),rhsMax =  -2.86495129490830E+00  3.00154122131652E-03
 cg2d: Sum(rhs),rhsMax =  -2.94238808706526E+00  3.02377929753235E-03
 cg2d: Sum(rhs),rhsMax =  -2.84207317835384E+00  3.04217204861221E-03
 cg2d: Sum(rhs),rhsMax =  -2.51902180087724E+00  3.13830803196882E-03
 cg2d: Sum(rhs),rhsMax =  -2.14123734151222E+00  3.18959321749117E-03
 cg2d: Sum(rhs),rhsMax =  -1.76835922620209E+00  3.18714930768737E-03
 cg2d: Sum(rhs),rhsMax =  -1.45590353081281E+00  3.13272227751913E-03
 cg2d: Sum(rhs),rhsMax =  -1.25508074187676E+00  3.03818415938686E-03
 cg2d: Sum(rhs),rhsMax =  -1.20874907358194E+00  2.92305990850807E-03
 cg2d: Sum(rhs),rhsMax =  -1.34034314348216E+00  2.81059305187839E-03
 cg2d: Sum(rhs),rhsMax =  -1.62624331372958E+00  2.74190576910448E-03
(PID.TID 0000.0001) %CHECKPOINT       100 ckptA
 --> objf_test(bi,bj)   =  0.509071980911871E-01
 --> objf_tracer(bi,bj) =  0.000000000000000E+00
 --> objf_atl(bi,bj)    =  0.000000000000000E+00
  local fc =  0.509071980911871E-01
 global fc =  0.509071980911871E-01
 ph-check fcpertplus =   0.0509071981
(PID.TID 0000.0001)  MDS_READ_FIELD: opening file: xx_depth.0000000000.001.001.data
 ph-check fcpertminus =   0.0509071982
(PID.TID 0000.0001)  MDS_READ_FIELD: opening file: xx_depth.0000000000.001.001.data
(PID.TID 0000.0001)  MDS_READ_FIELD: opening global file: noWalls.bigRidge
(PID.TID 0000.0001) // =======================================================
(PID.TID 0000.0001) // Field Model R_low (ini_masks_etc) at iteration          1
(PID.TID 0000.0001) // CMIN =         -5.000000000000000E+03
(PID.TID 0000.0001) // CMAX =         -2.000000000000000E+03
(PID.TID 0000.0001) // CINT =          1.111111111111111E+02
(PID.TID 0000.0001) // SYMBOLS (CMIN->CMAX): -abcdefghijklmnopqrstuvwxyz+
(PID.TID 0000.0001) //                  0.0: .
(PID.TID 0000.0001) // RANGE I (Lo:Hi:Step):(  -1:   7:   1)
(PID.TID 0000.0001) // RANGE J (Lo:Hi:Step):(   7:  -1:  -1)
(PID.TID 0000.0001) // RANGE K (Lo:Hi:Step):(   1:   1:   1)
(PID.TID 0000.0001) // =======================================================
(PID.TID 0000.0001) K =   1
(PID.TID 0000.0001) //
(PID.TID 0000.0001) // |--J--|101234567
(PID.TID 0000.0001) //      7 ----+----
(PID.TID 0000.0001) //      6 ----+----
(PID.TID 0000.0001) //      5 ----+----
(PID.TID 0000.0001) //      4 ----+----
(PID.TID 0000.0001) //      3 ----+----
(PID.TID 0000.0001) //      2 ----+----
(PID.TID 0000.0001) //      1 ----+----
(PID.TID 0000.0001) //      0 ----+----
(PID.TID 0000.0001) //     -1 ----+----
(PID.TID 0000.0001) // =======================================================
(PID.TID 0000.0001) // END OF FIELD                                          =
(PID.TID 0000.0001) // =======================================================
(PID.TID 0000.0001) 
(PID.TID 0000.0001) // =======================================================
(PID.TID 0000.0001) // Field Model Ro_surf (ini_masks_etc) at iteration          1
(PID.TID 0000.0001) // CMIN =          1.000000000000000E+32
(PID.TID 0000.0001) // CMAX =         -1.000000000000000E+32
(PID.TID 0000.0001) // CINT =          0.000000000000000E+00
(PID.TID 0000.0001) // SYMBOLS (CMIN->CMAX): -abcdefghijklmnopqrstuvwxyz+
(PID.TID 0000.0001) //                  0.0: .
(PID.TID 0000.0001) // RANGE I (Lo:Hi:Step):(  -1:   7:   1)
(PID.TID 0000.0001) // RANGE J (Lo:Hi:Step):(   7:  -1:  -1)
(PID.TID 0000.0001) // RANGE K (Lo:Hi:Step):(   1:   1:   1)
(PID.TID 0000.0001) // =======================================================
(PID.TID 0000.0001) // =======================================================
(PID.TID 0000.0001) // END OF FIELD                                          =
(PID.TID 0000.0001) // =======================================================
(PID.TID 0000.0001) 
(PID.TID 0000.0001) // =======================================================
(PID.TID 0000.0001) // Field hFacC at iteration          1
(PID.TID 0000.0001) // CMIN =          1.000000000000000E+00
(PID.TID 0000.0001) // CMAX =          1.000000000000000E+00
(PID.TID 0000.0001) // CINT =          0.000000000000000E+00
(PID.TID 0000.0001) // SYMBOLS (CMIN->CMAX): -abcdefghijklmnopqrstuvwxyz+
(PID.TID 0000.0001) //                  0.0: .
(PID.TID 0000.0001) // RANGE I (Lo:Hi:Step):(  -1:   7:   1)
(PID.TID 0000.0001) // RANGE J (Lo:Hi:Step):(   7:  -1:  -1)
(PID.TID 0000.0001) // RANGE K (Lo:Hi:Step):(   1:   1:   1)
(PID.TID 0000.0001) // =======================================================
(PID.TID 0000.0001) // =======================================================
(PID.TID 0000.0001) // END OF FIELD                                          =
(PID.TID 0000.0001) // =======================================================
(PID.TID 0000.0001) 
(PID.TID 0000.0001) // =======================================================
(PID.TID 0000.0001) // Field hFacW at iteration          1
(PID.TID 0000.0001) // CMIN =          1.000000000000000E+00
(PID.TID 0000.0001) // CMAX =          1.000000000000000E+00
(PID.TID 0000.0001) // CINT =          0.000000000000000E+00
(PID.TID 0000.0001) // SYMBOLS (CMIN->CMAX): -abcdefghijklmnopqrstuvwxyz+
(PID.TID 0000.0001) //                  0.0: .
(PID.TID 0000.0001) // RANGE I (Lo:Hi:Step):(  -1:   7:   1)
(PID.TID 0000.0001) // RANGE J (Lo:Hi:Step):(   7:  -1:  -1)
(PID.TID 0000.0001) // RANGE K (Lo:Hi:Step):(   1:   1:   1)
(PID.TID 0000.0001) // =======================================================
(PID.TID 0000.0001) // =======================================================
(PID.TID 0000.0001) // END OF FIELD                                          =
(PID.TID 0000.0001) // =======================================================
(PID.TID 0000.0001) 
(PID.TID 0000.0001) // =======================================================
(PID.TID 0000.0001) // Field hFacS at iteration          1
(PID.TID 0000.0001) // CMIN =          1.000000000000000E+00
(PID.TID 0000.0001) // CMAX =          1.000000000000000E+00
(PID.TID 0000.0001) // CINT =          0.000000000000000E+00
(PID.TID 0000.0001) // SYMBOLS (CMIN->CMAX): -abcdefghijklmnopqrstuvwxyz+
(PID.TID 0000.0001) //                  0.0: .
(PID.TID 0000.0001) // RANGE I (Lo:Hi:Step):(  -1:   7:   1)
(PID.TID 0000.0001) // RANGE J (Lo:Hi:Step):(   7:  -1:  -1)
(PID.TID 0000.0001) // RANGE K (Lo:Hi:Step):(   1:   1:   1)
(PID.TID 0000.0001) // =======================================================
(PID.TID 0000.0001) // =======================================================
(PID.TID 0000.0001) // END OF FIELD                                          =
(PID.TID 0000.0001) // =======================================================
(PID.TID 0000.0001) 
(PID.TID 0000.0001) %MON surfExpanfCori_max           =  -1.0735540000000E-04
(PID.TID 0000.0001) %MON surfExpanfCori_min           =  -1.1783060000000E-04
(PID.TID 0000.0001) %MON surfExpanfCori_mean          =  -1.1259300000000E-04
(PID.TID 0000.0001) %MON surfExpanfCori_sd            =   3.7035424771427E-06
(PID.TID 0000.0001) %MON surfExpanfCoriG_max          =  -1.0866480000000E-04
(PID.TID 0000.0001) %MON surfExpanfCoriG_min          =  -1.1914000000000E-04
(PID.TID 0000.0001) %MON surfExpanfCoriG_mean         =  -1.1390240000000E-04
(PID.TID 0000.0001) %MON surfExpanfCoriG_sd           =   3.7035424771427E-06
(PID.TID 0000.0001) %MON surfExpanfCoriCos_max        =   0.0000000000000E+00
(PID.TID 0000.0001) %MON surfExpanfCoriCos_min        =   0.0000000000000E+00
(PID.TID 0000.0001) %MON surfExpanfCoriCos_mean       =   0.0000000000000E+00
(PID.TID 0000.0001) %MON surfExpanfCoriCos_sd         =   0.0000000000000E+00
(PID.TID 0000.0001) INI_CG2D: CG2D normalisation factor =  1.9999999999999996E-04
(PID.TID 0000.0001) 
                     ctrl_depth_ini: ctrl update R_low,
                                     adding the control vector.
(PID.TID 0000.0001)  MDS_READ_FIELD: opening file: xx_depth.0000000000.001.001.data
(PID.TID 0000.0001) // =======================================================
(PID.TID 0000.0001) // Field Model Ro_surf (update_masks_etc) at iteration          1
(PID.TID 0000.0001) // CMIN =          1.000000000000000E+32
(PID.TID 0000.0001) // CMAX =         -1.000000000000000E+32
(PID.TID 0000.0001) // CINT =          0.000000000000000E+00
(PID.TID 0000.0001) // SYMBOLS (CMIN->CMAX): -abcdefghijklmnopqrstuvwxyz+
(PID.TID 0000.0001) //                  0.0: .
(PID.TID 0000.0001) // RANGE I (Lo:Hi:Step):(  -1:   7:   1)
(PID.TID 0000.0001) // RANGE J (Lo:Hi:Step):(   7:  -1:  -1)
(PID.TID 0000.0001) // RANGE K (Lo:Hi:Step):(   1:   1:   1)
(PID.TID 0000.0001) // =======================================================
(PID.TID 0000.0001) // =======================================================
(PID.TID 0000.0001) // END OF FIELD                                          =
(PID.TID 0000.0001) // =======================================================
(PID.TID 0000.0001) 
(PID.TID 0000.0001) // =======================================================
(PID.TID 0000.0001) // Field hFacC at iteration          1
(PID.TID 0000.0001) // CMIN =          1.000000000000000E+00
(PID.TID 0000.0001) // CMAX =          1.000000000000000E+00
(PID.TID 0000.0001) // CINT =          0.000000000000000E+00
(PID.TID 0000.0001) // SYMBOLS (CMIN->CMAX): -abcdefghijklmnopqrstuvwxyz+
(PID.TID 0000.0001) //                  0.0: .
(PID.TID 0000.0001) // RANGE I (Lo:Hi:Step):(  -1:   7:   1)
(PID.TID 0000.0001) // RANGE J (Lo:Hi:Step):(   7:  -1:  -1)
(PID.TID 0000.0001) // RANGE K (Lo:Hi:Step):(   1:   1:   1)
(PID.TID 0000.0001) // =======================================================
(PID.TID 0000.0001) // =======================================================
(PID.TID 0000.0001) // END OF FIELD                                          =
(PID.TID 0000.0001) // =======================================================
(PID.TID 0000.0001) 
(PID.TID 0000.0001) // =======================================================
(PID.TID 0000.0001) // Field hFacW at iteration          1
(PID.TID 0000.0001) // CMIN =          1.000000000000000E+00
(PID.TID 0000.0001) // CMAX =          1.000000000000000E+00
(PID.TID 0000.0001) // CINT =          0.000000000000000E+00
(PID.TID 0000.0001) // SYMBOLS (CMIN->CMAX): -abcdefghijklmnopqrstuvwxyz+
(PID.TID 0000.0001) //                  0.0: .
(PID.TID 0000.0001) // RANGE I (Lo:Hi:Step):(  -1:   7:   1)
(PID.TID 0000.0001) // RANGE J (Lo:Hi:Step):(   7:  -1:  -1)
(PID.TID 0000.0001) // RANGE K (Lo:Hi:Step):(   1:   1:   1)
(PID.TID 0000.0001) // =======================================================
(PID.TID 0000.0001) // =======================================================
(PID.TID 0000.0001) // END OF FIELD                                          =
(PID.TID 0000.0001) // =======================================================
(PID.TID 0000.0001) 
(PID.TID 0000.0001) // =======================================================
(PID.TID 0000.0001) // Field hFacS at iteration          1
(PID.TID 0000.0001) // CMIN =          1.000000000000000E+00
(PID.TID 0000.0001) // CMAX =          1.000000000000000E+00
(PID.TID 0000.0001) // CINT =          0.000000000000000E+00
(PID.TID 0000.0001) // SYMBOLS (CMIN->CMAX): -abcdefghijklmnopqrstuvwxyz+
(PID.TID 0000.0001) //                  0.0: .
(PID.TID 0000.0001) // RANGE I (Lo:Hi:Step):(  -1:   7:   1)
(PID.TID 0000.0001) // RANGE J (Lo:Hi:Step):(   7:  -1:  -1)
(PID.TID 0000.0001) // RANGE K (Lo:Hi:Step):(   1:   1:   1)
(PID.TID 0000.0001) // =======================================================
(PID.TID 0000.0001) // =======================================================
(PID.TID 0000.0001) // END OF FIELD                                          =
(PID.TID 0000.0001) // =======================================================
(PID.TID 0000.0001) 
(PID.TID 0000.0001) // =======================================================
(PID.TID 0000.0001) // Field Initial Temperature at iteration          1
(PID.TID 0000.0001) // CMIN =          4.000000000000000E+00
(PID.TID 0000.0001) // CMAX =          4.000000000000000E+00
(PID.TID 0000.0001) // CINT =          0.000000000000000E+00
(PID.TID 0000.0001) // SYMBOLS (CMIN->CMAX): -abcdefghijklmnopqrstuvwxyz+
(PID.TID 0000.0001) //                  0.0: .
(PID.TID 0000.0001) // RANGE I (Lo:Hi:Step):(   1:   5:   1)
(PID.TID 0000.0001) // RANGE J (Lo:Hi:Step):(   5:   1:  -1)
(PID.TID 0000.0001) // RANGE K (Lo:Hi:Step):(   1:   1:   1)
(PID.TID 0000.0001) // =======================================================
(PID.TID 0000.0001) // =======================================================
(PID.TID 0000.0001) // END OF FIELD                                          =
(PID.TID 0000.0001) // =======================================================
(PID.TID 0000.0001) 
(PID.TID 0000.0001) // =======================================================
(PID.TID 0000.0001) // Field Initial Salinity at iteration          1
(PID.TID 0000.0001) // CMIN =          3.500000000000000E+01
(PID.TID 0000.0001) // CMAX =          3.500000000000000E+01
(PID.TID 0000.0001) // CINT =          0.000000000000000E+00
(PID.TID 0000.0001) // SYMBOLS (CMIN->CMAX): -abcdefghijklmnopqrstuvwxyz+
(PID.TID 0000.0001) //                  0.0: .
(PID.TID 0000.0001) // RANGE I (Lo:Hi:Step):(   1:   5:   1)
(PID.TID 0000.0001) // RANGE J (Lo:Hi:Step):(   5:   1:  -1)
(PID.TID 0000.0001) // RANGE K (Lo:Hi:Step):(   1:   1:   1)
(PID.TID 0000.0001) // =======================================================
(PID.TID 0000.0001) // =======================================================
(PID.TID 0000.0001) // END OF FIELD                                          =
(PID.TID 0000.0001) // =======================================================
(PID.TID 0000.0001) 
(PID.TID 0000.0001) Start initial hydrostatic pressure computation
(PID.TID 0000.0001) Pressure is predetermined for buoyancyRelation OCEANIC
(PID.TID 0000.0001) 
(PID.TID 0000.0001)  MDS_READ_FIELD: opening global file: windx.sin_y
(PID.TID 0000.0001) // =======================================================
(PID.TID 0000.0001) // Model current state
(PID.TID 0000.0001) // =======================================================
(PID.TID 0000.0001) 
 cg2d: Sum(rhs),rhsMax =   0.00000000000000E+00  0.00000000000000E+00
 cg2d: Sum(rhs),rhsMax =  -2.49999999999996E+01  6.03492218443698E-05
 cg2d: Sum(rhs),rhsMax =  -1.81034404639062E+01  2.18766023587219E-04
 cg2d: Sum(rhs),rhsMax =  -1.54955562832147E+01  4.32479836297446E-04
 cg2d: Sum(rhs),rhsMax =  -1.41111452328424E+01  6.49958988328578E-04
 cg2d: Sum(rhs),rhsMax =  -1.31144322331806E+01  8.30737102833916E-04
 cg2d: Sum(rhs),rhsMax =  -1.21209090324646E+01  9.52510661971547E-04
 cg2d: Sum(rhs),rhsMax =  -1.07124742360659E+01  1.02806631174184E-03
 cg2d: Sum(rhs),rhsMax =  -7.41375936703107E+00  1.27086596327679E-03
 cg2d: Sum(rhs),rhsMax =  -4.70217533487584E+00  1.51019014083572E-03
 cg2d: Sum(rhs),rhsMax =  -2.72440685949433E+00  1.65833738297518E-03
 cg2d: Sum(rhs),rhsMax =  -1.27958669058382E+00  1.70565508815398E-03
 cg2d: Sum(rhs),rhsMax =  -3.29564699208168E-01  1.66071960608531E-03
 cg2d: Sum(rhs),rhsMax =   5.21320405982693E-02  1.54812756166282E-03
 cg2d: Sum(rhs),rhsMax =  -2.86625374455659E-01  1.40338816118071E-03
 cg2d: Sum(rhs),rhsMax =  -1.30315843505395E+00  1.44268599547328E-03
 cg2d: Sum(rhs),rhsMax =  -2.68067690591900E+00  1.50836886469177E-03
 cg2d: Sum(rhs),rhsMax =  -4.07407453805544E+00  1.58424366738776E-03
 cg2d: Sum(rhs),rhsMax =  -5.18272348518848E+00  1.66593592691096E-03
 cg2d: Sum(rhs),rhsMax =  -5.80990598843455E+00  1.74846175186423E-03
 cg2d: Sum(rhs),rhsMax =  -5.87740628090846E+00  1.82725971018797E-03
 cg2d: Sum(rhs),rhsMax =  -5.41358311820950E+00  1.89900434501346E-03
 cg2d: Sum(rhs),rhsMax =  -4.53080677132520E+00  1.96213934351758E-03
 cg2d: Sum(rhs),rhsMax =  -3.22587898686542E+00  2.12611202793988E-03
 cg2d: Sum(rhs),rhsMax =  -2.04447211701597E+00  2.24837953935571E-03
 cg2d: Sum(rhs),rhsMax =  -1.10818137137326E+00  2.30404049334856E-03
 cg2d: Sum(rhs),rhsMax =  -4.90484879197747E-01  2.29576532576992E-03
 cg2d: Sum(rhs),rhsMax =  -2.61247062641351E-01  2.23814842331477E-03
 cg2d: Sum(rhs),rhsMax =  -4.50921968271979E-01  2.26266906523494E-03
 cg2d: Sum(rhs),rhsMax =  -1.00469610700481E+00  2.31946122548738E-03
 cg2d: Sum(rhs),rhsMax =  -1.78565331669775E+00  2.37599941026729E-03
 cg2d: Sum(rhs),rhsMax =  -2.62429309307822E+00  2.42805542793046E-03
 cg2d: Sum(rhs),rhsMax =  -3.35748487398620E+00  2.47123044356867E-03
 cg2d: Sum(rhs),rhsMax =  -3.85508918715391E+00  2.50195597601147E-03
 cg2d: Sum(rhs),rhsMax =  -4.03589979158209E+00  2.51830321757623E-03
 cg2d: Sum(rhs),rhsMax =  -3.87512849074938E+00  2.52047518271468E-03
 cg2d: Sum(rhs),rhsMax =  -3.40600369561326E+00  2.51092920907591E-03
 cg2d: Sum(rhs),rhsMax =  -2.61682441632855E+00  2.58874088669354E-03
 cg2d: Sum(rhs),rhsMax =  -1.83238710861738E+00  2.61669731322879E-03
 cg2d: Sum(rhs),rhsMax =  -1.17513337132951E+00  2.56005947568202E-03
 cg2d: Sum(rhs),rhsMax =  -7.11994613099480E-01  2.47855830392401E-03
 cg2d: Sum(rhs),rhsMax =  -5.26422149334200E-01  2.47042091474564E-03
 cg2d: Sum(rhs),rhsMax =  -6.78930214053667E-01  2.49676869182511E-03
 cg2d: Sum(rhs),rhsMax =  -1.12673722305146E+00  2.53652610225805E-03
 cg2d: Sum(rhs),rhsMax =  -1.75981626137957E+00  2.58504762534051E-03
 cg2d: Sum(rhs),rhsMax =  -2.43940637085661E+00  2.63568088851214E-03
 cg2d: Sum(rhs),rhsMax =  -3.03203011207515E+00  2.68092812313100E-03
 cg2d: Sum(rhs),rhsMax =  -3.40991313195483E+00  2.73286302807599E-03
 cg2d: Sum(rhs),rhsMax =  -3.48046024609908E+00  2.80943921236828E-03
 cg2d: Sum(rhs),rhsMax =  -3.32063074355119E+00  2.84054007505288E-03
 cg2d: Sum(rhs),rhsMax =  -2.96079448637335E+00  2.82589056433460E-03
 cg2d: Sum(rhs),rhsMax =  -2.32992809015744E+00  2.92147977037992E-03
 cg2d: Sum(rhs),rhsMax =  -1.72242454382067E+00  2.94384965243746E-03
 cg2d: Sum(rhs),rhsMax =  -1.21221902051774E+00  2.89157782254739E-03
 cg2d: Sum(rhs),rhsMax =  -8.69698379515673E-01  2.78046459876840E-03
 cg2d: Sum(rhs),rhsMax =  -7.64867789425105E-01  2.63730952477455E-03
 cg2d: Sum(rhs),rhsMax =  -9.31747845151817E-01  2.54529701239677E-03
 cg2d: Sum(rhs),rhsMax =  -1.31074338778006E+00  2.59464766373661E-03
 cg2d: Sum(rhs),rhsMax =  -1.82960843547747E+00  2.67470085907012E-03
 cg2d: Sum(rhs),rhsMax =  -2.36415410091340E+00  2.77096209835226E-03
 cg2d: Sum(rhs),rhsMax =  -2.80794780750113E+00  2.86583703661635E-03
 cg2d: Sum(rhs),rhsMax =  -3.09076539458041E+00  2.94225351667652E-03
 cg2d: Sum(rhs),rhsMax =  -3.17911025417446E+00  2.98708404455381E-03
 cg2d: Sum(rhs),rhsMax =  -3.06968982156329E+00  2.99369699249991E-03
 cg2d: Sum(rhs),rhsMax =  -2.74200027558389E+00  3.00868118407615E-03
 cg2d: Sum(rhs),rhsMax =  -2.22987015621856E+00  3.08320498943876E-03
 cg2d: Sum(rhs),rhsMax =  -1.72892381725308E+00  3.09216605070103E-03
 cg2d: Sum(rhs),rhsMax =  -1.30661123829952E+00  3.03707926713982E-03
 cg2d: Sum(rhs),rhsMax =  -1.02724585320307E+00  2.93201257389943E-03
 cg2d: Sum(rhs),rhsMax =  -9.49612058739419E-01  2.80059571188968E-03
 cg2d: Sum(rhs),rhsMax =  -1.10546681044276E+00  2.68802008756485E-03
 cg2d: Sum(rhs),rhsMax =  -1.41911845746557E+00  2.73183500619595E-03
 cg2d: Sum(rhs),rhsMax =  -1.85263652777610E+00  2.80075120664815E-03
 cg2d: Sum(rhs),rhsMax =  -2.30607106332624E+00  2.88121980888351E-03
 cg2d: Sum(rhs),rhsMax =  -2.69038334580435E+00  2.95745895050550E-03
 cg2d: Sum(rhs),rhsMax =  -2.94313286866117E+00  3.01465306007704E-03
 cg2d: Sum(rhs),rhsMax =  -3.03123925791915E+00  3.04190022152795E-03
 cg2d: Sum(rhs),rhsMax =  -2.94785323987264E+00  3.03433136346243E-03
 cg2d: Sum(rhs),rhsMax =  -2.61356651181066E+00  3.10365980780549E-03
 cg2d: Sum(rhs),rhsMax =  -2.18161313511701E+00  3.16115507725980E-03
 cg2d: Sum(rhs),rhsMax =  -1.75526119932239E+00  3.15966316220581E-03
 cg2d: Sum(rhs),rhsMax =  -1.39603739497152E+00  3.10114915001030E-03
 cg2d: Sum(rhs),rhsMax =  -1.16177135975351E+00  2.99876548266795E-03
 cg2d: Sum(rhs),rhsMax =  -1.10293742798573E+00  2.87411086075889E-03
 cg2d: Sum(rhs),rhsMax =  -1.24975129312751E+00  2.75286357326306E-03
 cg2d: Sum(rhs),rhsMax =  -1.53840868218086E+00  2.75098211218866E-03
 cg2d: Sum(rhs),rhsMax =  -1.91301872525027E+00  2.81271663586139E-03
 cg2d: Sum(rhs),rhsMax =  -2.30705941609261E+00  2.88449375509996E-03
 cg2d: Sum(rhs),rhsMax =  -2.64297555214444E+00  2.95188719810026E-03
 cg2d: Sum(rhs),rhsMax =  -2.86495132021859E+00  3.00154112771999E-03
 cg2d: Sum(rhs),rhsMax =  -2.94238811381933E+00  3.02377920276528E-03
 cg2d: Sum(rhs),rhsMax =  -2.84207306471620E+00  3.04217209849573E-03
 cg2d: Sum(rhs),rhsMax =  -2.51902169320024E+00  3.13830808272202E-03
 cg2d: Sum(rhs),rhsMax =  -2.14123723919371E+00  3.18959326889774E-03
 cg2d: Sum(rhs),rhsMax =  -1.76835912765689E+00  3.18714935949759E-03
 cg2d: Sum(rhs),rhsMax =  -1.45590343370492E+00  3.13272232949660E-03
 cg2d: Sum(rhs),rhsMax =  -1.25508064323311E+00  3.03818421135322E-03
 cg2d: Sum(rhs),rhsMax =  -1.20874896993473E+00  2.92305996037715E-03
 cg2d: Sum(rhs),rhsMax =  -1.34034303127003E+00  2.81059310367345E-03
 cg2d: Sum(rhs),rhsMax =  -1.62624328518565E+00  2.74190566251060E-03
(PID.TID 0000.0001) %CHECKPOINT       100 ckptB
 --> objf_test(bi,bj)   =  0.509071983211160E-01
 --> objf_tracer(bi,bj) =  0.000000000000000E+00
 --> objf_atl(bi,bj)    =  0.000000000000000E+00
  local fc =  0.509071983211160E-01
 global fc =  0.509071983211160E-01
(PID.TID 0000.0001)  MDS_READ_FIELD: opening file: xx_depth.0000000000.001.001.data
grad-res -------------------------------
 grad-res     0   20    5    4    1    1    1    1   0.509071982062E-01 0.509071980912E-01 0.509071983211E-01
 grad-res     0   20   20   20   25    1    1    1   -.114980290846E-05 -.114964461562E-05 0.137669547919E-03
(PID.TID 0000.0001)   ADM  precision_derivative_cost =    5.09071982061515E-02
(PID.TID 0000.0001)   ADM  precision_derivative_grad =   -1.14980290846333E-06
 ph-grd  ierr ---------------------------
 ph-grd  ierr =  0, icomp =  20, ichknum =  20
 ph-grd -->hit<--  1 5 1 1
(PID.TID 0000.0001)  MDS_READ_FIELD: opening file: adxx_depth.0000000000.001.001.data
(PID.TID 0000.0001)  MDS_READ_FIELD: opening file: xx_depth.0000000000.001.001.data
(PID.TID 0000.0001)  MDS_READ_FIELD: opening global file: noWalls.bigRidge
(PID.TID 0000.0001) // =======================================================
(PID.TID 0000.0001) // Field Model R_low (ini_masks_etc) at iteration          1
(PID.TID 0000.0001) // CMIN =         -5.000000000000000E+03
(PID.TID 0000.0001) // CMAX =         -2.000000000000000E+03
(PID.TID 0000.0001) // CINT =          1.111111111111111E+02
(PID.TID 0000.0001) // SYMBOLS (CMIN->CMAX): -abcdefghijklmnopqrstuvwxyz+
(PID.TID 0000.0001) //                  0.0: .
(PID.TID 0000.0001) // RANGE I (Lo:Hi:Step):(  -1:   7:   1)
(PID.TID 0000.0001) // RANGE J (Lo:Hi:Step):(   7:  -1:  -1)
(PID.TID 0000.0001) // RANGE K (Lo:Hi:Step):(   1:   1:   1)
(PID.TID 0000.0001) // =======================================================
(PID.TID 0000.0001) K =   1
(PID.TID 0000.0001) //
(PID.TID 0000.0001) // |--J--|101234567
(PID.TID 0000.0001) //      7 ----+----
(PID.TID 0000.0001) //      6 ----+----
(PID.TID 0000.0001) //      5 ----+----
(PID.TID 0000.0001) //      4 ----+----
(PID.TID 0000.0001) //      3 ----+----
(PID.TID 0000.0001) //      2 ----+----
(PID.TID 0000.0001) //      1 ----+----
(PID.TID 0000.0001) //      0 ----+----
(PID.TID 0000.0001) //     -1 ----+----
(PID.TID 0000.0001) // =======================================================
(PID.TID 0000.0001) // END OF FIELD                                          =
(PID.TID 0000.0001) // =======================================================
(PID.TID 0000.0001) 
(PID.TID 0000.0001) // =======================================================
(PID.TID 0000.0001) // Field Model Ro_surf (ini_masks_etc) at iteration          1
(PID.TID 0000.0001) // CMIN =          1.000000000000000E+32
(PID.TID 0000.0001) // CMAX =         -1.000000000000000E+32
(PID.TID 0000.0001) // CINT =          0.000000000000000E+00
(PID.TID 0000.0001) // SYMBOLS (CMIN->CMAX): -abcdefghijklmnopqrstuvwxyz+
(PID.TID 0000.0001) //                  0.0: .
(PID.TID 0000.0001) // RANGE I (Lo:Hi:Step):(  -1:   7:   1)
(PID.TID 0000.0001) // RANGE J (Lo:Hi:Step):(   7:  -1:  -1)
(PID.TID 0000.0001) // RANGE K (Lo:Hi:Step):(   1:   1:   1)
(PID.TID 0000.0001) // =======================================================
(PID.TID 0000.0001) // =======================================================
(PID.TID 0000.0001) // END OF FIELD                                          =
(PID.TID 0000.0001) // =======================================================
(PID.TID 0000.0001) 
(PID.TID 0000.0001) // =======================================================
(PID.TID 0000.0001) // Field hFacC at iteration          1
(PID.TID 0000.0001) // CMIN =          1.000000000000000E+00
(PID.TID 0000.0001) // CMAX =          1.000000000000000E+00
(PID.TID 0000.0001) // CINT =          0.000000000000000E+00
(PID.TID 0000.0001) // SYMBOLS (CMIN->CMAX): -abcdefghijklmnopqrstuvwxyz+
(PID.TID 0000.0001) //                  0.0: .
(PID.TID 0000.0001) // RANGE I (Lo:Hi:Step):(  -1:   7:   1)
(PID.TID 0000.0001) // RANGE J (Lo:Hi:Step):(   7:  -1:  -1)
(PID.TID 0000.0001) // RANGE K (Lo:Hi:Step):(   1:   1:   1)
(PID.TID 0000.0001) // =======================================================
(PID.TID 0000.0001) // =======================================================
(PID.TID 0000.0001) // END OF FIELD                                          =
(PID.TID 0000.0001) // =======================================================
(PID.TID 0000.0001) 
(PID.TID 0000.0001) // =======================================================
(PID.TID 0000.0001) // Field hFacW at iteration          1
(PID.TID 0000.0001) // CMIN =          1.000000000000000E+00
(PID.TID 0000.0001) // CMAX =          1.000000000000000E+00
(PID.TID 0000.0001) // CINT =          0.000000000000000E+00
(PID.TID 0000.0001) // SYMBOLS (CMIN->CMAX): -abcdefghijklmnopqrstuvwxyz+
(PID.TID 0000.0001) //                  0.0: .
(PID.TID 0000.0001) // RANGE I (Lo:Hi:Step):(  -1:   7:   1)
(PID.TID 0000.0001) // RANGE J (Lo:Hi:Step):(   7:  -1:  -1)
(PID.TID 0000.0001) // RANGE K (Lo:Hi:Step):(   1:   1:   1)
(PID.TID 0000.0001) // =======================================================
(PID.TID 0000.0001) // =======================================================
(PID.TID 0000.0001) // END OF FIELD                                          =
(PID.TID 0000.0001) // =======================================================
(PID.TID 0000.0001) 
(PID.TID 0000.0001) // =======================================================
(PID.TID 0000.0001) // Field hFacS at iteration          1
(PID.TID 0000.0001) // CMIN =          1.000000000000000E+00
(PID.TID 0000.0001) // CMAX =          1.000000000000000E+00
(PID.TID 0000.0001) // CINT =          0.000000000000000E+00
(PID.TID 0000.0001) // SYMBOLS (CMIN->CMAX): -abcdefghijklmnopqrstuvwxyz+
(PID.TID 0000.0001) //                  0.0: .
(PID.TID 0000.0001) // RANGE I (Lo:Hi:Step):(  -1:   7:   1)
(PID.TID 0000.0001) // RANGE J (Lo:Hi:Step):(   7:  -1:  -1)
(PID.TID 0000.0001) // RANGE K (Lo:Hi:Step):(   1:   1:   1)
(PID.TID 0000.0001) // =======================================================
(PID.TID 0000.0001) // =======================================================
(PID.TID 0000.0001) // END OF FIELD                                          =
(PID.TID 0000.0001) // =======================================================
(PID.TID 0000.0001) 
(PID.TID 0000.0001) %MON surfExpanfCori_max           =  -1.0735540000000E-04
(PID.TID 0000.0001) %MON surfExpanfCori_min           =  -1.1783060000000E-04
(PID.TID 0000.0001) %MON surfExpanfCori_mean          =  -1.1259300000000E-04
(PID.TID 0000.0001) %MON surfExpanfCori_sd            =   3.7035424771427E-06
(PID.TID 0000.0001) %MON surfExpanfCoriG_max          =  -1.0866480000000E-04
(PID.TID 0000.0001) %MON surfExpanfCoriG_min          =  -1.1914000000000E-04
(PID.TID 0000.0001) %MON surfExpanfCoriG_mean         =  -1.1390240000000E-04
(PID.TID 0000.0001) %MON surfExpanfCoriG_sd           =   3.7035424771427E-06
(PID.TID 0000.0001) %MON surfExpanfCoriCos_max        =   0.0000000000000E+00
(PID.TID 0000.0001) %MON surfExpanfCoriCos_min        =   0.0000000000000E+00
(PID.TID 0000.0001) %MON surfExpanfCoriCos_mean       =   0.0000000000000E+00
(PID.TID 0000.0001) %MON surfExpanfCoriCos_sd         =   0.0000000000000E+00
(PID.TID 0000.0001) INI_CG2D: CG2D normalisation factor =  1.9999999999999996E-04
(PID.TID 0000.0001) 
                     ctrl_depth_ini: ctrl update R_low,
                                     adding the control vector.
(PID.TID 0000.0001)  MDS_READ_FIELD: opening file: xx_depth.0000000000.001.001.data
(PID.TID 0000.0001) // =======================================================
(PID.TID 0000.0001) // Field Model Ro_surf (update_masks_etc) at iteration          1
(PID.TID 0000.0001) // CMIN =          1.000000000000000E+32
(PID.TID 0000.0001) // CMAX =         -1.000000000000000E+32
(PID.TID 0000.0001) // CINT =          0.000000000000000E+00
(PID.TID 0000.0001) // SYMBOLS (CMIN->CMAX): -abcdefghijklmnopqrstuvwxyz+
(PID.TID 0000.0001) //                  0.0: .
(PID.TID 0000.0001) // RANGE I (Lo:Hi:Step):(  -1:   7:   1)
(PID.TID 0000.0001) // RANGE J (Lo:Hi:Step):(   7:  -1:  -1)
(PID.TID 0000.0001) // RANGE K (Lo:Hi:Step):(   1:   1:   1)
(PID.TID 0000.0001) // =======================================================
(PID.TID 0000.0001) // =======================================================
(PID.TID 0000.0001) // END OF FIELD                                          =
(PID.TID 0000.0001) // =======================================================
(PID.TID 0000.0001) 
(PID.TID 0000.0001) // =======================================================
(PID.TID 0000.0001) // Field hFacC at iteration          1
(PID.TID 0000.0001) // CMIN =          1.000000000000000E+00
(PID.TID 0000.0001) // CMAX =          1.000000000000000E+00
(PID.TID 0000.0001) // CINT =          0.000000000000000E+00
(PID.TID 0000.0001) // SYMBOLS (CMIN->CMAX): -abcdefghijklmnopqrstuvwxyz+
(PID.TID 0000.0001) //                  0.0: .
(PID.TID 0000.0001) // RANGE I (Lo:Hi:Step):(  -1:   7:   1)
(PID.TID 0000.0001) // RANGE J (Lo:Hi:Step):(   7:  -1:  -1)
(PID.TID 0000.0001) // RANGE K (Lo:Hi:Step):(   1:   1:   1)
(PID.TID 0000.0001) // =======================================================
(PID.TID 0000.0001) // =======================================================
(PID.TID 0000.0001) // END OF FIELD                                          =
(PID.TID 0000.0001) // =======================================================
(PID.TID 0000.0001) 
(PID.TID 0000.0001) // =======================================================
(PID.TID 0000.0001) // Field hFacW at iteration          1
(PID.TID 0000.0001) // CMIN =          1.000000000000000E+00
(PID.TID 0000.0001) // CMAX =          1.000000000000000E+00
(PID.TID 0000.0001) // CINT =          0.000000000000000E+00
(PID.TID 0000.0001) // SYMBOLS (CMIN->CMAX): -abcdefghijklmnopqrstuvwxyz+
(PID.TID 0000.0001) //                  0.0: .
(PID.TID 0000.0001) // RANGE I (Lo:Hi:Step):(  -1:   7:   1)
(PID.TID 0000.0001) // RANGE J (Lo:Hi:Step):(   7:  -1:  -1)
(PID.TID 0000.0001) // RANGE K (Lo:Hi:Step):(   1:   1:   1)
(PID.TID 0000.0001) // =======================================================
(PID.TID 0000.0001) // =======================================================
(PID.TID 0000.0001) // END OF FIELD                                          =
(PID.TID 0000.0001) // =======================================================
(PID.TID 0000.0001) 
(PID.TID 0000.0001) // =======================================================
(PID.TID 0000.0001) // Field hFacS at iteration          1
(PID.TID 0000.0001) // CMIN =          1.000000000000000E+00
(PID.TID 0000.0001) // CMAX =          1.000000000000000E+00
(PID.TID 0000.0001) // CINT =          0.000000000000000E+00
(PID.TID 0000.0001) // SYMBOLS (CMIN->CMAX): -abcdefghijklmnopqrstuvwxyz+
(PID.TID 0000.0001) //                  0.0: .
(PID.TID 0000.0001) // RANGE I (Lo:Hi:Step):(  -1:   7:   1)
(PID.TID 0000.0001) // RANGE J (Lo:Hi:Step):(   7:  -1:  -1)
(PID.TID 0000.0001) // RANGE K (Lo:Hi:Step):(   1:   1:   1)
(PID.TID 0000.0001) // =======================================================
(PID.TID 0000.0001) // =======================================================
(PID.TID 0000.0001) // END OF FIELD                                          =
(PID.TID 0000.0001) // =======================================================
(PID.TID 0000.0001) 
(PID.TID 0000.0001) // =======================================================
(PID.TID 0000.0001) // Field Initial Temperature at iteration          1
(PID.TID 0000.0001) // CMIN =          4.000000000000000E+00
(PID.TID 0000.0001) // CMAX =          4.000000000000000E+00
(PID.TID 0000.0001) // CINT =          0.000000000000000E+00
(PID.TID 0000.0001) // SYMBOLS (CMIN->CMAX): -abcdefghijklmnopqrstuvwxyz+
(PID.TID 0000.0001) //                  0.0: .
(PID.TID 0000.0001) // RANGE I (Lo:Hi:Step):(   1:   5:   1)
(PID.TID 0000.0001) // RANGE J (Lo:Hi:Step):(   5:   1:  -1)
(PID.TID 0000.0001) // RANGE K (Lo:Hi:Step):(   1:   1:   1)
(PID.TID 0000.0001) // =======================================================
(PID.TID 0000.0001) // =======================================================
(PID.TID 0000.0001) // END OF FIELD                                          =
(PID.TID 0000.0001) // =======================================================
(PID.TID 0000.0001) 
(PID.TID 0000.0001) // =======================================================
(PID.TID 0000.0001) // Field Initial Salinity at iteration          1
(PID.TID 0000.0001) // CMIN =          3.500000000000000E+01
(PID.TID 0000.0001) // CMAX =          3.500000000000000E+01
(PID.TID 0000.0001) // CINT =          0.000000000000000E+00
(PID.TID 0000.0001) // SYMBOLS (CMIN->CMAX): -abcdefghijklmnopqrstuvwxyz+
(PID.TID 0000.0001) //                  0.0: .
(PID.TID 0000.0001) // RANGE I (Lo:Hi:Step):(   1:   5:   1)
(PID.TID 0000.0001) // RANGE J (Lo:Hi:Step):(   5:   1:  -1)
(PID.TID 0000.0001) // RANGE K (Lo:Hi:Step):(   1:   1:   1)
(PID.TID 0000.0001) // =======================================================
(PID.TID 0000.0001) // =======================================================
(PID.TID 0000.0001) // END OF FIELD                                          =
(PID.TID 0000.0001) // =======================================================
(PID.TID 0000.0001) 
(PID.TID 0000.0001) Start initial hydrostatic pressure computation
(PID.TID 0000.0001) Pressure is predetermined for buoyancyRelation OCEANIC
(PID.TID 0000.0001) 
(PID.TID 0000.0001)  MDS_READ_FIELD: opening global file: windx.sin_y
(PID.TID 0000.0001) // =======================================================
(PID.TID 0000.0001) // Model current state
(PID.TID 0000.0001) // =======================================================
(PID.TID 0000.0001) 
 cg2d: Sum(rhs),rhsMax =   0.00000000000000E+00  0.00000000000000E+00
 cg2d: Sum(rhs),rhsMax =  -2.49999999999996E+01  6.03492218443698E-05
 cg2d: Sum(rhs),rhsMax =  -1.81034404639062E+01  2.18766023587219E-04
 cg2d: Sum(rhs),rhsMax =  -1.54955562832532E+01  4.32479836296288E-04
 cg2d: Sum(rhs),rhsMax =  -1.41111452328480E+01  6.49958988326432E-04
 cg2d: Sum(rhs),rhsMax =  -1.31144322329838E+01  8.30737102841005E-04
 cg2d: Sum(rhs),rhsMax =  -1.21209090321100E+01  9.52510661989482E-04
 cg2d: Sum(rhs),rhsMax =  -1.07124742372839E+01  1.02806631161010E-03
 cg2d: Sum(rhs),rhsMax =  -7.41375938122847E+00  1.27086596082078E-03
 cg2d: Sum(rhs),rhsMax =  -4.70217534509536E+00  1.51019013752866E-03
 cg2d: Sum(rhs),rhsMax =  -2.72440686625790E+00  1.65833737886006E-03
 cg2d: Sum(rhs),rhsMax =  -1.27958669430440E+00  1.70565508336086E-03
 cg2d: Sum(rhs),rhsMax =  -3.29564700562975E-01  1.66071960080686E-03
 cg2d: Sum(rhs),rhsMax =   5.21320402083504E-02  1.54812755611584E-03
 cg2d: Sum(rhs),rhsMax =  -2.86625376564142E-01  1.40338815556115E-03
 cg2d: Sum(rhs),rhsMax =  -1.30315843439991E+00  1.44268599762528E-03
 cg2d: Sum(rhs),rhsMax =  -2.68067690296643E+00  1.50836886725361E-03
 cg2d: Sum(rhs),rhsMax =  -4.07407453243496E+00  1.58424367030830E-03
 cg2d: Sum(rhs),rhsMax =  -5.18272347731443E+00  1.66593593013564E-03
 cg2d: Sum(rhs),rhsMax =  -5.80990597926295E+00  1.74846175535008E-03
 cg2d: Sum(rhs),rhsMax =  -5.87740627157667E+00  1.82725971391712E-03
 cg2d: Sum(rhs),rhsMax =  -5.41358310976557E+00  1.89900434900218E-03
 cg2d: Sum(rhs),rhsMax =  -4.53080676460710E+00  1.96213934781960E-03
 cg2d: Sum(rhs),rhsMax =  -3.22587900671873E+00  2.12611201706768E-03
 cg2d: Sum(rhs),rhsMax =  -2.04447213195854E+00  2.24837952686402E-03
 cg2d: Sum(rhs),rhsMax =  -1.10818138206230E+00  2.30404047931751E-03
 cg2d: Sum(rhs),rhsMax =  -4.90484886926344E-01  2.29576531040493E-03
 cg2d: Sum(rhs),rhsMax =  -2.61247069667182E-01  2.23814840691342E-03
 cg2d: Sum(rhs),rhsMax =  -4.50921972247632E-01  2.26266907361418E-03
 cg2d: Sum(rhs),rhsMax =  -1.00469610908704E+00  2.31946123481495E-03
 cg2d: Sum(rhs),rhsMax =  -1.78565331559449E+00  2.37599942053489E-03
 cg2d: Sum(rhs),rhsMax =  -2.62429308813338E+00  2.42805543909882E-03
 cg2d: Sum(rhs),rhsMax =  -3.35748486534324E+00  2.47123045557862E-03
 cg2d: Sum(rhs),rhsMax =  -3.85508917572373E+00  2.50195598879782E-03
 cg2d: Sum(rhs),rhsMax =  -4.03589977886871E+00  2.51830323108189E-03
 cg2d: Sum(rhs),rhsMax =  -3.87512847859776E+00  2.52047519690267E-03
 cg2d: Sum(rhs),rhsMax =  -3.40600368591896E+00  2.51092922393727E-03
 cg2d: Sum(rhs),rhsMax =  -2.61682443129122E+00  2.58874088269064E-03
 cg2d: Sum(rhs),rhsMax =  -1.83238712141860E+00  2.61669731148371E-03
 cg2d: Sum(rhs),rhsMax =  -1.17513338444510E+00  2.56005947467355E-03
 cg2d: Sum(rhs),rhsMax =  -7.11994634334202E-01  2.47855827850643E-03
 cg2d: Sum(rhs),rhsMax =  -5.26422160154619E-01  2.47042093373493E-03
 cg2d: Sum(rhs),rhsMax =  -6.78930224216325E-01  2.49676871185698E-03
 cg2d: Sum(rhs),rhsMax =  -1.12673722994409E+00  2.53652612337899E-03
 cg2d: Sum(rhs),rhsMax =  -1.75981626313352E+00  2.58504764757237E-03
 cg2d: Sum(rhs),rhsMax =  -2.43940636675120E+00  2.63568091185229E-03
 cg2d: Sum(rhs),rhsMax =  -3.03203010260259E+00  2.68092814755647E-03
 cg2d: Sum(rhs),rhsMax =  -3.40991308813316E+00  2.73286307824346E-03
 cg2d: Sum(rhs),rhsMax =  -3.48046020093357E+00  2.80943926435553E-03
 cg2d: Sum(rhs),rhsMax =  -3.32063070095912E+00  2.84054012861713E-03
 cg2d: Sum(rhs),rhsMax =  -2.96079444995986E+00  2.82589061928407E-03
 cg2d: Sum(rhs),rhsMax =  -2.32992811905421E+00  2.92147976108491E-03
 cg2d: Sum(rhs),rhsMax =  -1.72242457050659E+00  2.94384964501541E-03
 cg2d: Sum(rhs),rhsMax =  -1.21221904705483E+00  2.89157781600793E-03
 cg2d: Sum(rhs),rhsMax =  -8.69698407471217E-01  2.78046459200198E-03
 cg2d: Sum(rhs),rhsMax =  -7.64867820137140E-01  2.63730951678065E-03
 cg2d: Sum(rhs),rhsMax =  -9.31747852313851E-01  2.54529707646498E-03
 cg2d: Sum(rhs),rhsMax =  -1.31074338555399E+00  2.59464772992777E-03
 cg2d: Sum(rhs),rhsMax =  -1.82960842010730E+00  2.67470092749472E-03
 cg2d: Sum(rhs),rhsMax =  -2.36415407208531E+00  2.77096216904045E-03
 cg2d: Sum(rhs),rhsMax =  -2.80794776764149E+00  2.86583710951922E-03
 cg2d: Sum(rhs),rhsMax =  -3.09076534767363E+00  2.94225359168316E-03
 cg2d: Sum(rhs),rhsMax =  -3.17911020482195E+00  2.98708412151988E-03
 cg2d: Sum(rhs),rhsMax =  -3.06968977445664E+00  2.99369707128193E-03
 cg2d: Sum(rhs),rhsMax =  -2.74200032004164E+00  3.00868117338698E-03
 cg2d: Sum(rhs),rhsMax =  -2.22987019785397E+00  3.08320498036943E-03
 cg2d: Sum(rhs),rhsMax =  -1.72892385794016E+00  3.09216604264119E-03
 cg2d: Sum(rhs),rhsMax =  -1.30661127974746E+00  3.03707925927836E-03
 cg2d: Sum(rhs),rhsMax =  -1.02724589687699E+00  2.93201256540068E-03
 cg2d: Sum(rhs),rhsMax =  -9.49612105989412E-01  2.80059570207175E-03
 cg2d: Sum(rhs),rhsMax =  -1.10546681983789E+00  2.68802017929464E-03
 cg2d: Sum(rhs),rhsMax =  -1.41911845631077E+00  2.73183510023459E-03
 cg2d: Sum(rhs),rhsMax =  -1.85263651184025E+00  2.80075130303906E-03
 cg2d: Sum(rhs),rhsMax =  -2.30607103208581E+00  2.88121990759738E-03
 cg2d: Sum(rhs),rhsMax =  -2.69038330178488E+00  2.95745905144567E-03
 cg2d: Sum(rhs),rhsMax =  -2.94313281625485E+00  3.01465316309868E-03
 cg2d: Sum(rhs),rhsMax =  -3.03123920237982E+00  3.04190032646756E-03
 cg2d: Sum(rhs),rhsMax =  -2.94785318668515E+00  3.03433147017149E-03
 cg2d: Sum(rhs),rhsMax =  -2.61356656967142E+00  3.10365979926817E-03
 cg2d: Sum(rhs),rhsMax =  -2.18161319103071E+00  3.16115507022378E-03
 cg2d: Sum(rhs),rhsMax =  -1.75526125518613E+00  3.15966315595821E-03
 cg2d: Sum(rhs),rhsMax =  -1.39603745252702E+00  3.10114914368809E-03
 cg2d: Sum(rhs),rhsMax =  -1.16177142049250E+00  2.99876547542815E-03
 cg2d: Sum(rhs),rhsMax =  -1.10293749320990E+00  2.87411085194424E-03
 cg2d: Sum(rhs),rhsMax =  -1.24975136400069E+00  2.75286356253061E-03
 cg2d: Sum(rhs),rhsMax =  -1.53840868119317E+00  2.75098223460186E-03
 cg2d: Sum(rhs),rhsMax =  -1.91301870765628E+00  2.81271676079177E-03
 cg2d: Sum(rhs),rhsMax =  -2.30705938124261E+00  2.88449388251651E-03
 cg2d: Sum(rhs),rhsMax =  -2.64297550281247E+00  2.95188732789132E-03
 cg2d: Sum(rhs),rhsMax =  -2.86495126135326E+00  3.00154125971292E-03
 cg2d: Sum(rhs),rhsMax =  -2.94238805142899E+00  3.02377933675795E-03
 cg2d: Sum(rhs),rhsMax =  -2.84207314331647E+00  3.04217208818632E-03
 cg2d: Sum(rhs),rhsMax =  -2.51902176812808E+00  3.13830807435835E-03
 cg2d: Sum(rhs),rhsMax =  -2.14123731221019E+00  3.18959326211003E-03
 cg2d: Sum(rhs),rhsMax =  -1.76835920076334E+00  3.18714935362635E-03
 cg2d: Sum(rhs),rhsMax =  -1.45590350879354E+00  3.13272232372147E-03
 cg2d: Sum(rhs),rhsMax =  -1.25508072193520E+00  3.03818420485033E-03
 cg2d: Sum(rhs),rhsMax =  -1.20874905359384E+00  2.92305995247430E-03
 cg2d: Sum(rhs),rhsMax =  -1.34034312091254E+00  2.81059309397318E-03
 cg2d: Sum(rhs),rhsMax =  -1.62624328428459E+00  2.74190581336211E-03
(PID.TID 0000.0001) %CHECKPOINT       100 ckptA
 --> objf_test(bi,bj)   =  0.509071977387842E-01
 --> objf_tracer(bi,bj) =  0.000000000000000E+00
 --> objf_atl(bi,bj)    =  0.000000000000000E+00
  local fc =  0.509071977387842E-01
 global fc =  0.509071977387842E-01
 ph-check fcpertplus =   0.0509071977
(PID.TID 0000.0001)  MDS_READ_FIELD: opening file: xx_depth.0000000000.001.001.data
 ph-check fcpertminus =   0.0509071982
(PID.TID 0000.0001)  MDS_READ_FIELD: opening file: xx_depth.0000000000.001.001.data
(PID.TID 0000.0001)  MDS_READ_FIELD: opening global file: noWalls.bigRidge
(PID.TID 0000.0001) // =======================================================
(PID.TID 0000.0001) // Field Model R_low (ini_masks_etc) at iteration          1
(PID.TID 0000.0001) // CMIN =         -5.000000000000000E+03
(PID.TID 0000.0001) // CMAX =         -2.000000000000000E+03
(PID.TID 0000.0001) // CINT =          1.111111111111111E+02
(PID.TID 0000.0001) // SYMBOLS (CMIN->CMAX): -abcdefghijklmnopqrstuvwxyz+
(PID.TID 0000.0001) //                  0.0: .
(PID.TID 0000.0001) // RANGE I (Lo:Hi:Step):(  -1:   7:   1)
(PID.TID 0000.0001) // RANGE J (Lo:Hi:Step):(   7:  -1:  -1)
(PID.TID 0000.0001) // RANGE K (Lo:Hi:Step):(   1:   1:   1)
(PID.TID 0000.0001) // =======================================================
(PID.TID 0000.0001) K =   1
(PID.TID 0000.0001) //
(PID.TID 0000.0001) // |--J--|101234567
(PID.TID 0000.0001) //      7 ----+----
(PID.TID 0000.0001) //      6 ----+----
(PID.TID 0000.0001) //      5 ----+----
(PID.TID 0000.0001) //      4 ----+----
(PID.TID 0000.0001) //      3 ----+----
(PID.TID 0000.0001) //      2 ----+----
(PID.TID 0000.0001) //      1 ----+----
(PID.TID 0000.0001) //      0 ----+----
(PID.TID 0000.0001) //     -1 ----+----
(PID.TID 0000.0001) // =======================================================
(PID.TID 0000.0001) // END OF FIELD                                          =
(PID.TID 0000.0001) // =======================================================
(PID.TID 0000.0001) 
(PID.TID 0000.0001) // =======================================================
(PID.TID 0000.0001) // Field Model Ro_surf (ini_masks_etc) at iteration          1
(PID.TID 0000.0001) // CMIN =          1.000000000000000E+32
(PID.TID 0000.0001) // CMAX =         -1.000000000000000E+32
(PID.TID 0000.0001) // CINT =          0.000000000000000E+00
(PID.TID 0000.0001) // SYMBOLS (CMIN->CMAX): -abcdefghijklmnopqrstuvwxyz+
(PID.TID 0000.0001) //                  0.0: .
(PID.TID 0000.0001) // RANGE I (Lo:Hi:Step):(  -1:   7:   1)
(PID.TID 0000.0001) // RANGE J (Lo:Hi:Step):(   7:  -1:  -1)
(PID.TID 0000.0001) // RANGE K (Lo:Hi:Step):(   1:   1:   1)
(PID.TID 0000.0001) // =======================================================
(PID.TID 0000.0001) // =======================================================
(PID.TID 0000.0001) // END OF FIELD                                          =
(PID.TID 0000.0001) // =======================================================
(PID.TID 0000.0001) 
(PID.TID 0000.0001) // =======================================================
(PID.TID 0000.0001) // Field hFacC at iteration          1
(PID.TID 0000.0001) // CMIN =          1.000000000000000E+00
(PID.TID 0000.0001) // CMAX =          1.000000000000000E+00
(PID.TID 0000.0001) // CINT =          0.000000000000000E+00
(PID.TID 0000.0001) // SYMBOLS (CMIN->CMAX): -abcdefghijklmnopqrstuvwxyz+
(PID.TID 0000.0001) //                  0.0: .
(PID.TID 0000.0001) // RANGE I (Lo:Hi:Step):(  -1:   7:   1)
(PID.TID 0000.0001) // RANGE J (Lo:Hi:Step):(   7:  -1:  -1)
(PID.TID 0000.0001) // RANGE K (Lo:Hi:Step):(   1:   1:   1)
(PID.TID 0000.0001) // =======================================================
(PID.TID 0000.0001) // =======================================================
(PID.TID 0000.0001) // END OF FIELD                                          =
(PID.TID 0000.0001) // =======================================================
(PID.TID 0000.0001) 
(PID.TID 0000.0001) // =======================================================
(PID.TID 0000.0001) // Field hFacW at iteration          1
(PID.TID 0000.0001) // CMIN =          1.000000000000000E+00
(PID.TID 0000.0001) // CMAX =          1.000000000000000E+00
(PID.TID 0000.0001) // CINT =          0.000000000000000E+00
(PID.TID 0000.0001) // SYMBOLS (CMIN->CMAX): -abcdefghijklmnopqrstuvwxyz+
(PID.TID 0000.0001) //                  0.0: .
(PID.TID 0000.0001) // RANGE I (Lo:Hi:Step):(  -1:   7:   1)
(PID.TID 0000.0001) // RANGE J (Lo:Hi:Step):(   7:  -1:  -1)
(PID.TID 0000.0001) // RANGE K (Lo:Hi:Step):(   1:   1:   1)
(PID.TID 0000.0001) // =======================================================
(PID.TID 0000.0001) // =======================================================
(PID.TID 0000.0001) // END OF FIELD                                          =
(PID.TID 0000.0001) // =======================================================
(PID.TID 0000.0001) 
(PID.TID 0000.0001) // =======================================================
(PID.TID 0000.0001) // Field hFacS at iteration          1
(PID.TID 0000.0001) // CMIN =          1.000000000000000E+00
(PID.TID 0000.0001) // CMAX =          1.000000000000000E+00
(PID.TID 0000.0001) // CINT =          0.000000000000000E+00
(PID.TID 0000.0001) // SYMBOLS (CMIN->CMAX): -abcdefghijklmnopqrstuvwxyz+
(PID.TID 0000.0001) //                  0.0: .
(PID.TID 0000.0001) // RANGE I (Lo:Hi:Step):(  -1:   7:   1)
(PID.TID 0000.0001) // RANGE J (Lo:Hi:Step):(   7:  -1:  -1)
(PID.TID 0000.0001) // RANGE K (Lo:Hi:Step):(   1:   1:   1)
(PID.TID 0000.0001) // =======================================================
(PID.TID 0000.0001) // =======================================================
(PID.TID 0000.0001) // END OF FIELD                                          =
(PID.TID 0000.0001) // =======================================================
(PID.TID 0000.0001) 
(PID.TID 0000.0001) %MON surfExpanfCori_max           =  -1.0735540000000E-04
(PID.TID 0000.0001) %MON surfExpanfCori_min           =  -1.1783060000000E-04
(PID.TID 0000.0001) %MON surfExpanfCori_mean          =  -1.1259300000000E-04
(PID.TID 0000.0001) %MON surfExpanfCori_sd            =   3.7035424771427E-06
(PID.TID 0000.0001) %MON surfExpanfCoriG_max          =  -1.0866480000000E-04
(PID.TID 0000.0001) %MON surfExpanfCoriG_min          =  -1.1914000000000E-04
(PID.TID 0000.0001) %MON surfExpanfCoriG_mean         =  -1.1390240000000E-04
(PID.TID 0000.0001) %MON surfExpanfCoriG_sd           =   3.7035424771427E-06
(PID.TID 0000.0001) %MON surfExpanfCoriCos_max        =   0.0000000000000E+00
(PID.TID 0000.0001) %MON surfExpanfCoriCos_min        =   0.0000000000000E+00
(PID.TID 0000.0001) %MON surfExpanfCoriCos_mean       =   0.0000000000000E+00
(PID.TID 0000.0001) %MON surfExpanfCoriCos_sd         =   0.0000000000000E+00
(PID.TID 0000.0001) INI_CG2D: CG2D normalisation factor =  1.9999999999999996E-04
(PID.TID 0000.0001) 
                     ctrl_depth_ini: ctrl update R_low,
                                     adding the control vector.
(PID.TID 0000.0001)  MDS_READ_FIELD: opening file: xx_depth.0000000000.001.001.data
(PID.TID 0000.0001) // =======================================================
(PID.TID 0000.0001) // Field Model Ro_surf (update_masks_etc) at iteration          1
(PID.TID 0000.0001) // CMIN =          1.000000000000000E+32
(PID.TID 0000.0001) // CMAX =         -1.000000000000000E+32
(PID.TID 0000.0001) // CINT =          0.000000000000000E+00
(PID.TID 0000.0001) // SYMBOLS (CMIN->CMAX): -abcdefghijklmnopqrstuvwxyz+
(PID.TID 0000.0001) //                  0.0: .
(PID.TID 0000.0001) // RANGE I (Lo:Hi:Step):(  -1:   7:   1)
(PID.TID 0000.0001) // RANGE J (Lo:Hi:Step):(   7:  -1:  -1)
(PID.TID 0000.0001) // RANGE K (Lo:Hi:Step):(   1:   1:   1)
(PID.TID 0000.0001) // =======================================================
(PID.TID 0000.0001) // =======================================================
(PID.TID 0000.0001) // END OF FIELD                                          =
(PID.TID 0000.0001) // =======================================================
(PID.TID 0000.0001) 
(PID.TID 0000.0001) // =======================================================
(PID.TID 0000.0001) // Field hFacC at iteration          1
(PID.TID 0000.0001) // CMIN =          1.000000000000000E+00
(PID.TID 0000.0001) // CMAX =          1.000000000000000E+00
(PID.TID 0000.0001) // CINT =          0.000000000000000E+00
(PID.TID 0000.0001) // SYMBOLS (CMIN->CMAX): -abcdefghijklmnopqrstuvwxyz+
(PID.TID 0000.0001) //                  0.0: .
(PID.TID 0000.0001) // RANGE I (Lo:Hi:Step):(  -1:   7:   1)
(PID.TID 0000.0001) // RANGE J (Lo:Hi:Step):(   7:  -1:  -1)
(PID.TID 0000.0001) // RANGE K (Lo:Hi:Step):(   1:   1:   1)
(PID.TID 0000.0001) // =======================================================
(PID.TID 0000.0001) // =======================================================
(PID.TID 0000.0001) // END OF FIELD                                          =
(PID.TID 0000.0001) // =======================================================
(PID.TID 0000.0001) 
(PID.TID 0000.0001) // =======================================================
(PID.TID 0000.0001) // Field hFacW at iteration          1
(PID.TID 0000.0001) // CMIN =          1.000000000000000E+00
(PID.TID 0000.0001) // CMAX =          1.000000000000000E+00
(PID.TID 0000.0001) // CINT =          0.000000000000000E+00
(PID.TID 0000.0001) // SYMBOLS (CMIN->CMAX): -abcdefghijklmnopqrstuvwxyz+
(PID.TID 0000.0001) //                  0.0: .
(PID.TID 0000.0001) // RANGE I (Lo:Hi:Step):(  -1:   7:   1)
(PID.TID 0000.0001) // RANGE J (Lo:Hi:Step):(   7:  -1:  -1)
(PID.TID 0000.0001) // RANGE K (Lo:Hi:Step):(   1:   1:   1)
(PID.TID 0000.0001) // =======================================================
(PID.TID 0000.0001) // =======================================================
(PID.TID 0000.0001) // END OF FIELD                                          =
(PID.TID 0000.0001) // =======================================================
(PID.TID 0000.0001) 
(PID.TID 0000.0001) // =======================================================
(PID.TID 0000.0001) // Field hFacS at iteration          1
(PID.TID 0000.0001) // CMIN =          1.000000000000000E+00
(PID.TID 0000.0001) // CMAX =          1.000000000000000E+00
(PID.TID 0000.0001) // CINT =          0.000000000000000E+00
(PID.TID 0000.0001) // SYMBOLS (CMIN->CMAX): -abcdefghijklmnopqrstuvwxyz+
(PID.TID 0000.0001) //                  0.0: .
(PID.TID 0000.0001) // RANGE I (Lo:Hi:Step):(  -1:   7:   1)
(PID.TID 0000.0001) // RANGE J (Lo:Hi:Step):(   7:  -1:  -1)
(PID.TID 0000.0001) // RANGE K (Lo:Hi:Step):(   1:   1:   1)
(PID.TID 0000.0001) // =======================================================
(PID.TID 0000.0001) // =======================================================
(PID.TID 0000.0001) // END OF FIELD                                          =
(PID.TID 0000.0001) // =======================================================
(PID.TID 0000.0001) 
(PID.TID 0000.0001) // =======================================================
(PID.TID 0000.0001) // Field Initial Temperature at iteration          1
(PID.TID 0000.0001) // CMIN =          4.000000000000000E+00
(PID.TID 0000.0001) // CMAX =          4.000000000000000E+00
(PID.TID 0000.0001) // CINT =          0.000000000000000E+00
(PID.TID 0000.0001) // SYMBOLS (CMIN->CMAX): -abcdefghijklmnopqrstuvwxyz+
(PID.TID 0000.0001) //                  0.0: .
(PID.TID 0000.0001) // RANGE I (Lo:Hi:Step):(   1:   5:   1)
(PID.TID 0000.0001) // RANGE J (Lo:Hi:Step):(   5:   1:  -1)
(PID.TID 0000.0001) // RANGE K (Lo:Hi:Step):(   1:   1:   1)
(PID.TID 0000.0001) // =======================================================
(PID.TID 0000.0001) // =======================================================
(PID.TID 0000.0001) // END OF FIELD                                          =
(PID.TID 0000.0001) // =======================================================
(PID.TID 0000.0001) 
(PID.TID 0000.0001) // =======================================================
(PID.TID 0000.0001) // Field Initial Salinity at iteration          1
(PID.TID 0000.0001) // CMIN =          3.500000000000000E+01
(PID.TID 0000.0001) // CMAX =          3.500000000000000E+01
(PID.TID 0000.0001) // CINT =          0.000000000000000E+00
(PID.TID 0000.0001) // SYMBOLS (CMIN->CMAX): -abcdefghijklmnopqrstuvwxyz+
(PID.TID 0000.0001) //                  0.0: .
(PID.TID 0000.0001) // RANGE I (Lo:Hi:Step):(   1:   5:   1)
(PID.TID 0000.0001) // RANGE J (Lo:Hi:Step):(   5:   1:  -1)
(PID.TID 0000.0001) // RANGE K (Lo:Hi:Step):(   1:   1:   1)
(PID.TID 0000.0001) // =======================================================
(PID.TID 0000.0001) // =======================================================
(PID.TID 0000.0001) // END OF FIELD                                          =
(PID.TID 0000.0001) // =======================================================
(PID.TID 0000.0001) 
(PID.TID 0000.0001) Start initial hydrostatic pressure computation
(PID.TID 0000.0001) Pressure is predetermined for buoyancyRelation OCEANIC
(PID.TID 0000.0001) 
(PID.TID 0000.0001)  MDS_READ_FIELD: opening global file: windx.sin_y
(PID.TID 0000.0001) // =======================================================
(PID.TID 0000.0001) // Model current state
(PID.TID 0000.0001) // =======================================================
(PID.TID 0000.0001) 
 cg2d: Sum(rhs),rhsMax =   0.00000000000000E+00  0.00000000000000E+00
 cg2d: Sum(rhs),rhsMax =  -2.49999999999996E+01  6.03492218443698E-05
 cg2d: Sum(rhs),rhsMax =  -1.81034404639062E+01  2.18766023587219E-04
 cg2d: Sum(rhs),rhsMax =  -1.54955562831763E+01  4.32479836298604E-04
 cg2d: Sum(rhs),rhsMax =  -1.41111452330511E+01  6.49958988320402E-04
 cg2d: Sum(rhs),rhsMax =  -1.31144322335389E+01  8.30737102815755E-04
 cg2d: Sum(rhs),rhsMax =  -1.21209090329675E+01  9.52510661941101E-04
 cg2d: Sum(rhs),rhsMax =  -1.07124742371301E+01  1.02806631165401E-03
 cg2d: Sum(rhs),rhsMax =  -7.41375935208563E+00  1.27086596586065E-03
 cg2d: Sum(rhs),rhsMax =  -4.70217532401272E+00  1.51019014434751E-03
 cg2d: Sum(rhs),rhsMax =  -2.72440685230048E+00  1.65833738734015E-03
 cg2d: Sum(rhs),rhsMax =  -1.27958668664166E+00  1.70565509318183E-03
 cg2d: Sum(rhs),rhsMax =  -3.29564697742026E-01  1.66071961150094E-03
 cg2d: Sum(rhs),rhsMax =   5.21320411225809E-02  1.54812756715679E-03
 cg2d: Sum(rhs),rhsMax =  -2.86625372236827E-01  1.40338816646996E-03
 cg2d: Sum(rhs),rhsMax =  -1.30315843300369E+00  1.44268599613208E-03
 cg2d: Sum(rhs),rhsMax =  -2.68067690302197E+00  1.50836886537149E-03
 cg2d: Sum(rhs),rhsMax =  -4.07407453459581E+00  1.58424366802307E-03
 cg2d: Sum(rhs),rhsMax =  -5.18272348166411E+00  1.66593592744599E-03
 cg2d: Sum(rhs),rhsMax =  -5.80990598529846E+00  1.74846175226547E-03
 cg2d: Sum(rhs),rhsMax =  -5.87740627837447E+00  1.82725971045404E-03
 cg2d: Sum(rhs),rhsMax =  -5.41358311622010E+00  1.89900434517937E-03
 cg2d: Sum(rhs),rhsMax =  -4.53080676966386E+00  1.96213934365223E-03
 cg2d: Sum(rhs),rhsMax =  -3.22587897145093E+00  2.12611203734149E-03
 cg2d: Sum(rhs),rhsMax =  -2.04447210570613E+00  2.24837955065372E-03
 cg2d: Sum(rhs),rhsMax =  -1.10818136405612E+00  2.30404050643205E-03
 cg2d: Sum(rhs),rhsMax =  -4.90484874966249E-01  2.29576534034899E-03
 cg2d: Sum(rhs),rhsMax =  -2.61247059499689E-01  2.23814843896574E-03
 cg2d: Sum(rhs),rhsMax =  -4.50921966395419E-01  2.26266906695602E-03
 cg2d: Sum(rhs),rhsMax =  -1.00469610435359E+00  2.31946122753277E-03
 cg2d: Sum(rhs),rhsMax =  -1.78565331298058E+00  2.37599941255283E-03
 cg2d: Sum(rhs),rhsMax =  -2.62429308824972E+00  2.42805543035101E-03
 cg2d: Sum(rhs),rhsMax =  -3.35748486827350E+00  2.47123044601628E-03
 cg2d: Sum(rhs),rhsMax =  -3.85508918096475E+00  2.50195597839450E-03
 cg2d: Sum(rhs),rhsMax =  -4.03589978535720E+00  2.51830321983544E-03
 cg2d: Sum(rhs),rhsMax =  -3.87512848483311E+00  2.52047518483393E-03
 cg2d: Sum(rhs),rhsMax =  -3.40600369019301E+00  2.51092921108521E-03
 cg2d: Sum(rhs),rhsMax =  -2.61682443497857E+00  2.58874086563792E-03
 cg2d: Sum(rhs),rhsMax =  -1.83238712259272E+00  2.61669728949384E-03
 cg2d: Sum(rhs),rhsMax =  -1.17513337975295E+00  2.56005945126016E-03
 cg2d: Sum(rhs),rhsMax =  -7.11994603656519E-01  2.47855832627016E-03
 cg2d: Sum(rhs),rhsMax =  -5.26422145484191E-01  2.47042091758290E-03
 cg2d: Sum(rhs),rhsMax =  -6.78930209692510E-01  2.49676869506181E-03
 cg2d: Sum(rhs),rhsMax =  -1.12673721769853E+00  2.53652610589476E-03
 cg2d: Sum(rhs),rhsMax =  -1.75981625466130E+00  2.58504762933780E-03
 cg2d: Sum(rhs),rhsMax =  -2.43940636264208E+00  2.63568089280012E-03
 cg2d: Sum(rhs),rhsMax =  -3.03203010251665E+00  2.68092812762407E-03
 cg2d: Sum(rhs),rhsMax =  -3.40991314894471E+00  2.73286301072613E-03
 cg2d: Sum(rhs),rhsMax =  -3.48046026378267E+00  2.80943919425591E-03
 cg2d: Sum(rhs),rhsMax =  -3.32063076080022E+00  2.84054005611393E-03
 cg2d: Sum(rhs),rhsMax =  -2.96079450200721E+00  2.82589054456307E-03
 cg2d: Sum(rhs),rhsMax =  -2.32992810304867E+00  2.92147974786391E-03
 cg2d: Sum(rhs),rhsMax =  -1.72242455341070E+00  2.94384962719083E-03
 cg2d: Sum(rhs),rhsMax =  -1.21221902624010E+00  2.89157779589627E-03
 cg2d: Sum(rhs),rhsMax =  -8.69698381973660E-01  2.78046457212052E-03
 cg2d: Sum(rhs),rhsMax =  -7.64867790355204E-01  2.63730949934222E-03
 cg2d: Sum(rhs),rhsMax =  -9.31747846526267E-01  2.54529698962684E-03
 cg2d: Sum(rhs),rhsMax =  -1.31074339227723E+00  2.59464764074980E-03
 cg2d: Sum(rhs),rhsMax =  -1.82960844419342E+00  2.67470083584140E-03
 cg2d: Sum(rhs),rhsMax =  -2.36415411383069E+00  2.77096207481613E-03
 cg2d: Sum(rhs),rhsMax =  -2.80794782382810E+00  2.86583701268300E-03
 cg2d: Sum(rhs),rhsMax =  -3.09076541314917E+00  2.94225349225210E-03
 cg2d: Sum(rhs),rhsMax =  -3.17911027368527E+00  2.98708401956026E-03
 cg2d: Sum(rhs),rhsMax =  -3.06968984067688E+00  2.99369696689066E-03
 cg2d: Sum(rhs),rhsMax =  -2.74200029272595E+00  3.00868115741355E-03
 cg2d: Sum(rhs),rhsMax =  -2.22987017016552E+00  3.08320496044969E-03
 cg2d: Sum(rhs),rhsMax =  -1.72892382729472E+00  3.09216602016225E-03
 cg2d: Sum(rhs),rhsMax =  -1.30661124447567E+00  3.03707923603481E-03
 cg2d: Sum(rhs),rhsMax =  -1.02724585643476E+00  2.93201254320344E-03
 cg2d: Sum(rhs),rhsMax =  -9.49612060805487E-01  2.80059568236111E-03
 cg2d: Sum(rhs),rhsMax =  -1.10546681393636E+00  2.68802005876427E-03
 cg2d: Sum(rhs),rhsMax =  -1.41911846432331E+00  2.73183497707487E-03
 cg2d: Sum(rhs),rhsMax =  -1.85263653920265E+00  2.80075117715308E-03
 cg2d: Sum(rhs),rhsMax =  -2.30607107946889E+00  2.88121977893648E-03
 cg2d: Sum(rhs),rhsMax =  -2.69038336600039E+00  2.95745892002026E-03
 cg2d: Sum(rhs),rhsMax =  -2.94313289177669E+00  3.01465302897717E-03
 cg2d: Sum(rhs),rhsMax =  -3.03123928259203E+00  3.04190018976310E-03
 cg2d: Sum(rhs),rhsMax =  -2.94785326463992E+00  3.03433133101924E-03
 cg2d: Sum(rhs),rhsMax =  -2.61356653559018E+00  3.10365977205022E-03
 cg2d: Sum(rhs),rhsMax =  -2.18161315519550E+00  3.16115503956503E-03
 cg2d: Sum(rhs),rhsMax =  -1.75526121517035E+00  3.15966312348654E-03
 cg2d: Sum(rhs),rhsMax =  -1.39603740689678E+00  3.10114911130729E-03
 cg2d: Sum(rhs),rhsMax =  -1.16177136894883E+00  2.99876544494004E-03
 cg2d: Sum(rhs),rhsMax =  -1.10293743643428E+00  2.87411082469077E-03
 cg2d: Sum(rhs),rhsMax =  -1.24975130326967E+00  2.75286353912702E-03
 cg2d: Sum(rhs),rhsMax =  -1.53840869721840E+00  2.75098207623965E-03
 cg2d: Sum(rhs),rhsMax =  -1.91301874537347E+00  2.81271659946351E-03
 cg2d: Sum(rhs),rhsMax =  -2.30705944150085E+00  2.88449371814353E-03
 cg2d: Sum(rhs),rhsMax =  -2.64297558220085E+00  2.95188716047195E-03
 cg2d: Sum(rhs),rhsMax =  -2.86495135377363E+00  3.00154108932359E-03
 cg2d: Sum(rhs),rhsMax =  -2.94238814945560E+00  3.02377916353969E-03
 cg2d: Sum(rhs),rhsMax =  -2.84207309975357E+00  3.04217205892161E-03
 cg2d: Sum(rhs),rhsMax =  -2.51902172594940E+00  3.13830804033249E-03
 cg2d: Sum(rhs),rhsMax =  -2.14123726849573E+00  3.18959322427889E-03
 cg2d: Sum(rhs),rhsMax =  -1.76835915309564E+00  3.18714931355862E-03
 cg2d: Sum(rhs),rhsMax =  -1.45590345572419E+00  3.13272228329428E-03
 cg2d: Sum(rhs),rhsMax =  -1.25508066317467E+00  3.03818416588976E-03
 cg2d: Sum(rhs),rhsMax =  -1.20874898992283E+00  2.92305991641094E-03
 cg2d: Sum(rhs),rhsMax =  -1.34034305383966E+00  2.81059306157866E-03
 cg2d: Sum(rhs),rhsMax =  -1.62624331463068E+00  2.74190561825295E-03
(PID.TID 0000.0001) %CHECKPOINT       100 ckptB
 --> objf_test(bi,bj)   =  0.509071986735189E-01
 --> objf_tracer(bi,bj) =  0.000000000000000E+00
 --> objf_atl(bi,bj)    =  0.000000000000000E+00
  local fc =  0.509071986735189E-01
 global fc =  0.509071986735189E-01
(PID.TID 0000.0001)  MDS_READ_FIELD: opening file: xx_depth.0000000000.001.001.data
grad-res -------------------------------
 grad-res     0   21    1    5    1    1    1    1   0.509071982062E-01 0.509071977388E-01 0.509071986735E-01
 grad-res     0   21   21   21   25    1    1    1   -.467381057807E-05 -.467367360091E-05 0.293073838120E-04
(PID.TID 0000.0001)   ADM  precision_derivative_cost =    5.09071982061515E-02
(PID.TID 0000.0001)   ADM  precision_derivative_grad =   -4.67381057806834E-06
 ph-grd  ierr ---------------------------
 ph-grd  ierr =  0, icomp =  21, ichknum =  21
 ph-grd -->hit<--  2 5 1 1
(PID.TID 0000.0001)  MDS_READ_FIELD: opening file: adxx_depth.0000000000.001.001.data
(PID.TID 0000.0001)  MDS_READ_FIELD: opening file: xx_depth.0000000000.001.001.data
(PID.TID 0000.0001)  MDS_READ_FIELD: opening global file: noWalls.bigRidge
(PID.TID 0000.0001) // =======================================================
(PID.TID 0000.0001) // Field Model R_low (ini_masks_etc) at iteration          1
(PID.TID 0000.0001) // CMIN =         -5.000000000000000E+03
(PID.TID 0000.0001) // CMAX =         -2.000000000000000E+03
(PID.TID 0000.0001) // CINT =          1.111111111111111E+02
(PID.TID 0000.0001) // SYMBOLS (CMIN->CMAX): -abcdefghijklmnopqrstuvwxyz+
(PID.TID 0000.0001) //                  0.0: .
(PID.TID 0000.0001) // RANGE I (Lo:Hi:Step):(  -1:   7:   1)
(PID.TID 0000.0001) // RANGE J (Lo:Hi:Step):(   7:  -1:  -1)
(PID.TID 0000.0001) // RANGE K (Lo:Hi:Step):(   1:   1:   1)
(PID.TID 0000.0001) // =======================================================
(PID.TID 0000.0001) K =   1
(PID.TID 0000.0001) //
(PID.TID 0000.0001) // |--J--|101234567
(PID.TID 0000.0001) //      7 ----+----
(PID.TID 0000.0001) //      6 ----+----
(PID.TID 0000.0001) //      5 ----+----
(PID.TID 0000.0001) //      4 ----+----
(PID.TID 0000.0001) //      3 ----+----
(PID.TID 0000.0001) //      2 ----+----
(PID.TID 0000.0001) //      1 ----+----
(PID.TID 0000.0001) //      0 ----+----
(PID.TID 0000.0001) //     -1 ----+----
(PID.TID 0000.0001) // =======================================================
(PID.TID 0000.0001) // END OF FIELD                                          =
(PID.TID 0000.0001) // =======================================================
(PID.TID 0000.0001) 
(PID.TID 0000.0001) // =======================================================
(PID.TID 0000.0001) // Field Model Ro_surf (ini_masks_etc) at iteration          1
(PID.TID 0000.0001) // CMIN =          1.000000000000000E+32
(PID.TID 0000.0001) // CMAX =         -1.000000000000000E+32
(PID.TID 0000.0001) // CINT =          0.000000000000000E+00
(PID.TID 0000.0001) // SYMBOLS (CMIN->CMAX): -abcdefghijklmnopqrstuvwxyz+
(PID.TID 0000.0001) //                  0.0: .
(PID.TID 0000.0001) // RANGE I (Lo:Hi:Step):(  -1:   7:   1)
(PID.TID 0000.0001) // RANGE J (Lo:Hi:Step):(   7:  -1:  -1)
(PID.TID 0000.0001) // RANGE K (Lo:Hi:Step):(   1:   1:   1)
(PID.TID 0000.0001) // =======================================================
(PID.TID 0000.0001) // =======================================================
(PID.TID 0000.0001) // END OF FIELD                                          =
(PID.TID 0000.0001) // =======================================================
(PID.TID 0000.0001) 
(PID.TID 0000.0001) // =======================================================
(PID.TID 0000.0001) // Field hFacC at iteration          1
(PID.TID 0000.0001) // CMIN =          1.000000000000000E+00
(PID.TID 0000.0001) // CMAX =          1.000000000000000E+00
(PID.TID 0000.0001) // CINT =          0.000000000000000E+00
(PID.TID 0000.0001) // SYMBOLS (CMIN->CMAX): -abcdefghijklmnopqrstuvwxyz+
(PID.TID 0000.0001) //                  0.0: .
(PID.TID 0000.0001) // RANGE I (Lo:Hi:Step):(  -1:   7:   1)
(PID.TID 0000.0001) // RANGE J (Lo:Hi:Step):(   7:  -1:  -1)
(PID.TID 0000.0001) // RANGE K (Lo:Hi:Step):(   1:   1:   1)
(PID.TID 0000.0001) // =======================================================
(PID.TID 0000.0001) // =======================================================
(PID.TID 0000.0001) // END OF FIELD                                          =
(PID.TID 0000.0001) // =======================================================
(PID.TID 0000.0001) 
(PID.TID 0000.0001) // =======================================================
(PID.TID 0000.0001) // Field hFacW at iteration          1
(PID.TID 0000.0001) // CMIN =          1.000000000000000E+00
(PID.TID 0000.0001) // CMAX =          1.000000000000000E+00
(PID.TID 0000.0001) // CINT =          0.000000000000000E+00
(PID.TID 0000.0001) // SYMBOLS (CMIN->CMAX): -abcdefghijklmnopqrstuvwxyz+
(PID.TID 0000.0001) //                  0.0: .
(PID.TID 0000.0001) // RANGE I (Lo:Hi:Step):(  -1:   7:   1)
(PID.TID 0000.0001) // RANGE J (Lo:Hi:Step):(   7:  -1:  -1)
(PID.TID 0000.0001) // RANGE K (Lo:Hi:Step):(   1:   1:   1)
(PID.TID 0000.0001) // =======================================================
(PID.TID 0000.0001) // =======================================================
(PID.TID 0000.0001) // END OF FIELD                                          =
(PID.TID 0000.0001) // =======================================================
(PID.TID 0000.0001) 
(PID.TID 0000.0001) // =======================================================
(PID.TID 0000.0001) // Field hFacS at iteration          1
(PID.TID 0000.0001) // CMIN =          1.000000000000000E+00
(PID.TID 0000.0001) // CMAX =          1.000000000000000E+00
(PID.TID 0000.0001) // CINT =          0.000000000000000E+00
(PID.TID 0000.0001) // SYMBOLS (CMIN->CMAX): -abcdefghijklmnopqrstuvwxyz+
(PID.TID 0000.0001) //                  0.0: .
(PID.TID 0000.0001) // RANGE I (Lo:Hi:Step):(  -1:   7:   1)
(PID.TID 0000.0001) // RANGE J (Lo:Hi:Step):(   7:  -1:  -1)
(PID.TID 0000.0001) // RANGE K (Lo:Hi:Step):(   1:   1:   1)
(PID.TID 0000.0001) // =======================================================
(PID.TID 0000.0001) // =======================================================
(PID.TID 0000.0001) // END OF FIELD                                          =
(PID.TID 0000.0001) // =======================================================
(PID.TID 0000.0001) 
(PID.TID 0000.0001) %MON surfExpanfCori_max           =  -1.0735540000000E-04
(PID.TID 0000.0001) %MON surfExpanfCori_min           =  -1.1783060000000E-04
(PID.TID 0000.0001) %MON surfExpanfCori_mean          =  -1.1259300000000E-04
(PID.TID 0000.0001) %MON surfExpanfCori_sd            =   3.7035424771427E-06
(PID.TID 0000.0001) %MON surfExpanfCoriG_max          =  -1.0866480000000E-04
(PID.TID 0000.0001) %MON surfExpanfCoriG_min          =  -1.1914000000000E-04
(PID.TID 0000.0001) %MON surfExpanfCoriG_mean         =  -1.1390240000000E-04
(PID.TID 0000.0001) %MON surfExpanfCoriG_sd           =   3.7035424771427E-06
(PID.TID 0000.0001) %MON surfExpanfCoriCos_max        =   0.0000000000000E+00
(PID.TID 0000.0001) %MON surfExpanfCoriCos_min        =   0.0000000000000E+00
(PID.TID 0000.0001) %MON surfExpanfCoriCos_mean       =   0.0000000000000E+00
(PID.TID 0000.0001) %MON surfExpanfCoriCos_sd         =   0.0000000000000E+00
(PID.TID 0000.0001) INI_CG2D: CG2D normalisation factor =  1.9999999999999996E-04
(PID.TID 0000.0001) 
                     ctrl_depth_ini: ctrl update R_low,
                                     adding the control vector.
(PID.TID 0000.0001)  MDS_READ_FIELD: opening file: xx_depth.0000000000.001.001.data
(PID.TID 0000.0001) // =======================================================
(PID.TID 0000.0001) // Field Model Ro_surf (update_masks_etc) at iteration          1
(PID.TID 0000.0001) // CMIN =          1.000000000000000E+32
(PID.TID 0000.0001) // CMAX =         -1.000000000000000E+32
(PID.TID 0000.0001) // CINT =          0.000000000000000E+00
(PID.TID 0000.0001) // SYMBOLS (CMIN->CMAX): -abcdefghijklmnopqrstuvwxyz+
(PID.TID 0000.0001) //                  0.0: .
(PID.TID 0000.0001) // RANGE I (Lo:Hi:Step):(  -1:   7:   1)
(PID.TID 0000.0001) // RANGE J (Lo:Hi:Step):(   7:  -1:  -1)
(PID.TID 0000.0001) // RANGE K (Lo:Hi:Step):(   1:   1:   1)
(PID.TID 0000.0001) // =======================================================
(PID.TID 0000.0001) // =======================================================
(PID.TID 0000.0001) // END OF FIELD                                          =
(PID.TID 0000.0001) // =======================================================
(PID.TID 0000.0001) 
(PID.TID 0000.0001) // =======================================================
(PID.TID 0000.0001) // Field hFacC at iteration          1
(PID.TID 0000.0001) // CMIN =          1.000000000000000E+00
(PID.TID 0000.0001) // CMAX =          1.000000000000000E+00
(PID.TID 0000.0001) // CINT =          0.000000000000000E+00
(PID.TID 0000.0001) // SYMBOLS (CMIN->CMAX): -abcdefghijklmnopqrstuvwxyz+
(PID.TID 0000.0001) //                  0.0: .
(PID.TID 0000.0001) // RANGE I (Lo:Hi:Step):(  -1:   7:   1)
(PID.TID 0000.0001) // RANGE J (Lo:Hi:Step):(   7:  -1:  -1)
(PID.TID 0000.0001) // RANGE K (Lo:Hi:Step):(   1:   1:   1)
(PID.TID 0000.0001) // =======================================================
(PID.TID 0000.0001) // =======================================================
(PID.TID 0000.0001) // END OF FIELD                                          =
(PID.TID 0000.0001) // =======================================================
(PID.TID 0000.0001) 
(PID.TID 0000.0001) // =======================================================
(PID.TID 0000.0001) // Field hFacW at iteration          1
(PID.TID 0000.0001) // CMIN =          1.000000000000000E+00
(PID.TID 0000.0001) // CMAX =          1.000000000000000E+00
(PID.TID 0000.0001) // CINT =          0.000000000000000E+00
(PID.TID 0000.0001) // SYMBOLS (CMIN->CMAX): -abcdefghijklmnopqrstuvwxyz+
(PID.TID 0000.0001) //                  0.0: .
(PID.TID 0000.0001) // RANGE I (Lo:Hi:Step):(  -1:   7:   1)
(PID.TID 0000.0001) // RANGE J (Lo:Hi:Step):(   7:  -1:  -1)
(PID.TID 0000.0001) // RANGE K (Lo:Hi:Step):(   1:   1:   1)
(PID.TID 0000.0001) // =======================================================
(PID.TID 0000.0001) // =======================================================
(PID.TID 0000.0001) // END OF FIELD                                          =
(PID.TID 0000.0001) // =======================================================
(PID.TID 0000.0001) 
(PID.TID 0000.0001) // =======================================================
(PID.TID 0000.0001) // Field hFacS at iteration          1
(PID.TID 0000.0001) // CMIN =          1.000000000000000E+00
(PID.TID 0000.0001) // CMAX =          1.000000000000000E+00
(PID.TID 0000.0001) // CINT =          0.000000000000000E+00
(PID.TID 0000.0001) // SYMBOLS (CMIN->CMAX): -abcdefghijklmnopqrstuvwxyz+
(PID.TID 0000.0001) //                  0.0: .
(PID.TID 0000.0001) // RANGE I (Lo:Hi:Step):(  -1:   7:   1)
(PID.TID 0000.0001) // RANGE J (Lo:Hi:Step):(   7:  -1:  -1)
(PID.TID 0000.0001) // RANGE K (Lo:Hi:Step):(   1:   1:   1)
(PID.TID 0000.0001) // =======================================================
(PID.TID 0000.0001) // =======================================================
(PID.TID 0000.0001) // END OF FIELD                                          =
(PID.TID 0000.0001) // =======================================================
(PID.TID 0000.0001) 
(PID.TID 0000.0001) // =======================================================
(PID.TID 0000.0001) // Field Initial Temperature at iteration          1
(PID.TID 0000.0001) // CMIN =          4.000000000000000E+00
(PID.TID 0000.0001) // CMAX =          4.000000000000000E+00
(PID.TID 0000.0001) // CINT =          0.000000000000000E+00
(PID.TID 0000.0001) // SYMBOLS (CMIN->CMAX): -abcdefghijklmnopqrstuvwxyz+
(PID.TID 0000.0001) //                  0.0: .
(PID.TID 0000.0001) // RANGE I (Lo:Hi:Step):(   1:   5:   1)
(PID.TID 0000.0001) // RANGE J (Lo:Hi:Step):(   5:   1:  -1)
(PID.TID 0000.0001) // RANGE K (Lo:Hi:Step):(   1:   1:   1)
(PID.TID 0000.0001) // =======================================================
(PID.TID 0000.0001) // =======================================================
(PID.TID 0000.0001) // END OF FIELD                                          =
(PID.TID 0000.0001) // =======================================================
(PID.TID 0000.0001) 
(PID.TID 0000.0001) // =======================================================
(PID.TID 0000.0001) // Field Initial Salinity at iteration          1
(PID.TID 0000.0001) // CMIN =          3.500000000000000E+01
(PID.TID 0000.0001) // CMAX =          3.500000000000000E+01
(PID.TID 0000.0001) // CINT =          0.000000000000000E+00
(PID.TID 0000.0001) // SYMBOLS (CMIN->CMAX): -abcdefghijklmnopqrstuvwxyz+
(PID.TID 0000.0001) //                  0.0: .
(PID.TID 0000.0001) // RANGE I (Lo:Hi:Step):(   1:   5:   1)
(PID.TID 0000.0001) // RANGE J (Lo:Hi:Step):(   5:   1:  -1)
(PID.TID 0000.0001) // RANGE K (Lo:Hi:Step):(   1:   1:   1)
(PID.TID 0000.0001) // =======================================================
(PID.TID 0000.0001) // =======================================================
(PID.TID 0000.0001) // END OF FIELD                                          =
(PID.TID 0000.0001) // =======================================================
(PID.TID 0000.0001) 
(PID.TID 0000.0001) Start initial hydrostatic pressure computation
(PID.TID 0000.0001) Pressure is predetermined for buoyancyRelation OCEANIC
(PID.TID 0000.0001) 
(PID.TID 0000.0001)  MDS_READ_FIELD: opening global file: windx.sin_y
(PID.TID 0000.0001) // =======================================================
(PID.TID 0000.0001) // Model current state
(PID.TID 0000.0001) // =======================================================
(PID.TID 0000.0001) 
 cg2d: Sum(rhs),rhsMax =   0.00000000000000E+00  0.00000000000000E+00
 cg2d: Sum(rhs),rhsMax =  -2.49999999999996E+01  6.03492218443698E-05
 cg2d: Sum(rhs),rhsMax =  -1.81034404639062E+01  2.18766023587219E-04
 cg2d: Sum(rhs),rhsMax =  -1.54955562454973E+01  4.32479837349282E-04
 cg2d: Sum(rhs),rhsMax =  -1.41111451989785E+01  6.49958989883929E-04
 cg2d: Sum(rhs),rhsMax =  -1.31144322099187E+01  8.30737104297136E-04
 cg2d: Sum(rhs),rhsMax =  -1.21209090199114E+01  9.52510662940859E-04
 cg2d: Sum(rhs),rhsMax =  -1.07124742395620E+01  1.02806631138290E-03
 cg2d: Sum(rhs),rhsMax =  -7.41375934553233E+00  1.27086596693102E-03
 cg2d: Sum(rhs),rhsMax =  -4.70217531972486E+00  1.51019014567674E-03
 cg2d: Sum(rhs),rhsMax =  -2.72440685133040E+00  1.65833738798347E-03
 cg2d: Sum(rhs),rhsMax =  -1.27958668785202E+00  1.70565509214149E-03
 cg2d: Sum(rhs),rhsMax =  -3.29564699366804E-01  1.66071960795083E-03
 cg2d: Sum(rhs),rhsMax =   5.21320397393084E-02  1.54812756064206E-03
 cg2d: Sum(rhs),rhsMax =  -2.86625376670692E-01  1.40338815702897E-03
 cg2d: Sum(rhs),rhsMax =  -1.30315843818034E+00  1.44268599388835E-03
 cg2d: Sum(rhs),rhsMax =  -2.68067691170481E+00  1.50836886252887E-03
 cg2d: Sum(rhs),rhsMax =  -4.07407454754404E+00  1.58424366452066E-03
 cg2d: Sum(rhs),rhsMax =  -5.18272349878968E+00  1.66593592325497E-03
 cg2d: Sum(rhs),rhsMax =  -5.80990600559506E+00  1.74846174739240E-03
 cg2d: Sum(rhs),rhsMax =  -5.87740630016175E+00  1.82725970493751E-03
 cg2d: Sum(rhs),rhsMax =  -5.41358313756879E+00  1.89900433908041E-03
 cg2d: Sum(rhs),rhsMax =  -4.53080678884654E+00  1.96213933703992E-03
 cg2d: Sum(rhs),rhsMax =  -3.22587898120438E+00  2.12611203337877E-03
 cg2d: Sum(rhs),rhsMax =  -2.04447211416131E+00  2.24837954547610E-03
 cg2d: Sum(rhs),rhsMax =  -1.10818137182508E+00  2.30404049852829E-03
 cg2d: Sum(rhs),rhsMax =  -4.90484881904227E-01  2.29576532848331E-03
 cg2d: Sum(rhs),rhsMax =  -2.61247066475627E-01  2.23814842241077E-03
 cg2d: Sum(rhs),rhsMax =  -4.50921973876755E-01  2.26266905737759E-03
 cg2d: Sum(rhs),rhsMax =  -1.00469611487266E+00  2.31946121715649E-03
 cg2d: Sum(rhs),rhsMax =  -1.78565332790778E+00  2.37599940124902E-03
 cg2d: Sum(rhs),rhsMax =  -2.62429310835946E+00  2.42805541801237E-03
 cg2d: Sum(rhs),rhsMax =  -3.35748489358149E+00  2.47123043257389E-03
 cg2d: Sum(rhs),rhsMax =  -3.85508921066280E+00  2.50195596382753E-03
 cg2d: Sum(rhs),rhsMax =  -4.03589981787429E+00  2.51830320417301E-03
 cg2d: Sum(rhs),rhsMax =  -3.87512851804444E+00  2.52047516814829E-03
 cg2d: Sum(rhs),rhsMax =  -3.40600372177891E+00  2.51092919347783E-03
 cg2d: Sum(rhs),rhsMax =  -2.61682440381550E+00  2.58874090396558E-03
 cg2d: Sum(rhs),rhsMax =  -1.83238710073213E+00  2.61669733161021E-03
 cg2d: Sum(rhs),rhsMax =  -1.17513336730444E+00  2.56005949576102E-03
 cg2d: Sum(rhs),rhsMax =  -7.11994618860481E-01  2.47855830283832E-03
 cg2d: Sum(rhs),rhsMax =  -5.26422158721346E-01  2.47042089663961E-03
 cg2d: Sum(rhs),rhsMax =  -6.78930224535773E-01  2.49676867347730E-03
 cg2d: Sum(rhs),rhsMax =  -1.12673723672021E+00  2.53652608359691E-03
 cg2d: Sum(rhs),rhsMax =  -1.75981627957800E+00  2.58504760624233E-03
 cg2d: Sum(rhs),rhsMax =  -2.43940639403853E+00  2.63568086882843E-03
 cg2d: Sum(rhs),rhsMax =  -3.03203013986253E+00  2.68092810271947E-03
 cg2d: Sum(rhs),rhsMax =  -3.40991311167116E+00  2.73286304786123E-03
 cg2d: Sum(rhs),rhsMax =  -3.48046022489878E+00  2.80943923275457E-03
 cg2d: Sum(rhs),rhsMax =  -3.32063072300851E+00  2.84054009585212E-03
 cg2d: Sum(rhs),rhsMax =  -2.96079446785041E+00  2.82589058539682E-03
 cg2d: Sum(rhs),rhsMax =  -2.32992807144148E+00  2.92147979784160E-03
 cg2d: Sum(rhs),rhsMax =  -1.72242453051986E+00  2.94384968014431E-03
 cg2d: Sum(rhs),rhsMax =  -1.21221901127999E+00  2.89157785099826E-03
 cg2d: Sum(rhs),rhsMax =  -8.69698372737439E-01  2.78046462837243E-03
 cg2d: Sum(rhs),rhsMax =  -7.64867782672251E-01  2.63730955577407E-03
 cg2d: Sum(rhs),rhsMax =  -9.31747838538413E-01  2.54529703556408E-03
 cg2d: Sum(rhs),rhsMax =  -1.31074337699933E+00  2.59464768770342E-03
 cg2d: Sum(rhs),rhsMax =  -1.82960841921727E+00  2.67470088391947E-03
 cg2d: Sum(rhs),rhsMax =  -2.36415407907336E+00  2.77096212410689E-03
 cg2d: Sum(rhs),rhsMax =  -2.80794778095135E+00  2.86583706323972E-03
 cg2d: Sum(rhs),rhsMax =  -3.09076536474007E+00  2.94225354408572E-03
 cg2d: Sum(rhs),rhsMax =  -3.17911022266017E+00  2.98708407264129E-03
 cg2d: Sum(rhs),rhsMax =  -3.06968978997908E+00  2.99369702115939E-03
 cg2d: Sum(rhs),rhsMax =  -2.74200024242086E+00  3.00868121744765E-03
 cg2d: Sum(rhs),rhsMax =  -2.22987012888674E+00  3.08320502277631E-03
 cg2d: Sum(rhs),rhsMax =  -1.72892379466560E+00  3.09216608440087E-03
 cg2d: Sum(rhs),rhsMax =  -1.30661121911472E+00  3.03707930158570E-03
 cg2d: Sum(rhs),rhsMax =  -1.02724583565169E+00  2.93201260937968E-03
 cg2d: Sum(rhs),rhsMax =  -9.49612040283187E-01  2.80059574853453E-03
 cg2d: Sum(rhs),rhsMax =  -1.10546678987298E+00  2.68802012046907E-03
 cg2d: Sum(rhs),rhsMax =  -1.41911843215047E+00  2.73183504005483E-03
 cg2d: Sum(rhs),rhsMax =  -1.85263649635556E+00  2.80075124149317E-03
 cg2d: Sum(rhs),rhsMax =  -2.30607102567657E+00  2.88121984469182E-03
 cg2d: Sum(rhs),rhsMax =  -2.69038330280966E+00  2.95745898720445E-03
 cg2d: Sum(rhs),rhsMax =  -2.94313282180148E+00  3.01465309755917E-03
 cg2d: Sum(rhs),rhsMax =  -3.03123920891482E+00  3.04190025967315E-03
 cg2d: Sum(rhs),rhsMax =  -2.94785319046058E+00  3.03433140216321E-03
 cg2d: Sum(rhs),rhsMax =  -2.61356646844670E+00  3.10365984469894E-03
 cg2d: Sum(rhs),rhsMax =  -2.18161309675960E+00  3.16115511432397E-03
 cg2d: Sum(rhs),rhsMax =  -1.75526116489945E+00  3.15966319991678E-03
 cg2d: Sum(rhs),rhsMax =  -1.39603736308071E+00  3.10114918879973E-03
 cg2d: Sum(rhs),rhsMax =  -1.16177132852811E+00  2.99876552283590E-03
 cg2d: Sum(rhs),rhsMax =  -1.10293739484968E+00  2.87411090241106E-03
 cg2d: Sum(rhs),rhsMax =  -1.24975125479516E+00  2.75286361628532E-03
 cg2d: Sum(rhs),rhsMax =  -1.53840863760840E+00  2.75098215655647E-03
 cg2d: Sum(rhs),rhsMax =  -1.91301867402302E+00  2.81271668133281E-03
 cg2d: Sum(rhs),rhsMax =  -2.30705935808749E+00  2.88449380164489E-03
 cg2d: Sum(rhs),rhsMax =  -2.64297548831032E+00  2.95188724563037E-03
 cg2d: Sum(rhs),rhsMax =  -2.86495125215641E+00  3.00154117610441E-03
 cg2d: Sum(rhs),rhsMax =  -2.94238804340831E+00  3.02377925185432E-03
 cg2d: Sum(rhs),rhsMax =  -2.84207300218920E+00  3.04217214038596E-03
 cg2d: Sum(rhs),rhsMax =  -2.51902163647182E+00  3.13830812412208E-03
 cg2d: Sum(rhs),rhsMax =  -2.14123718751585E+00  3.18959331027894E-03
 cg2d: Sum(rhs),rhsMax =  -1.76835907973071E+00  3.18714940140445E-03
 cg2d: Sum(rhs),rhsMax =  -1.45590338787433E+00  3.13272237244437E-03
 cg2d: Sum(rhs),rhsMax =  -1.25508059741854E+00  3.03818425573051E-03
 cg2d: Sum(rhs),rhsMax =  -1.20874892148011E+00  2.92306000637269E-03
 cg2d: Sum(rhs),rhsMax =  -1.34034297702400E+00  2.81059315124093E-03
 cg2d: Sum(rhs),rhsMax =  -1.62624321937379E+00  2.74190571720181E-03
(PID.TID 0000.0001) %CHECKPOINT       100 ckptA
 --> objf_test(bi,bj)   =  0.509071986631352E-01
 --> objf_tracer(bi,bj) =  0.000000000000000E+00
 --> objf_atl(bi,bj)    =  0.000000000000000E+00
  local fc =  0.509071986631352E-01
 global fc =  0.509071986631352E-01
 ph-check fcpertplus =   0.0509071987
(PID.TID 0000.0001)  MDS_READ_FIELD: opening file: xx_depth.0000000000.001.001.data
 ph-check fcpertminus =   0.0509071982
(PID.TID 0000.0001)  MDS_READ_FIELD: opening file: xx_depth.0000000000.001.001.data
(PID.TID 0000.0001)  MDS_READ_FIELD: opening global file: noWalls.bigRidge
(PID.TID 0000.0001) // =======================================================
(PID.TID 0000.0001) // Field Model R_low (ini_masks_etc) at iteration          1
(PID.TID 0000.0001) // CMIN =         -5.000000000000000E+03
(PID.TID 0000.0001) // CMAX =         -2.000000000000000E+03
(PID.TID 0000.0001) // CINT =          1.111111111111111E+02
(PID.TID 0000.0001) // SYMBOLS (CMIN->CMAX): -abcdefghijklmnopqrstuvwxyz+
(PID.TID 0000.0001) //                  0.0: .
(PID.TID 0000.0001) // RANGE I (Lo:Hi:Step):(  -1:   7:   1)
(PID.TID 0000.0001) // RANGE J (Lo:Hi:Step):(   7:  -1:  -1)
(PID.TID 0000.0001) // RANGE K (Lo:Hi:Step):(   1:   1:   1)
(PID.TID 0000.0001) // =======================================================
(PID.TID 0000.0001) K =   1
(PID.TID 0000.0001) //
(PID.TID 0000.0001) // |--J--|101234567
(PID.TID 0000.0001) //      7 ----+----
(PID.TID 0000.0001) //      6 ----+----
(PID.TID 0000.0001) //      5 ----+----
(PID.TID 0000.0001) //      4 ----+----
(PID.TID 0000.0001) //      3 ----+----
(PID.TID 0000.0001) //      2 ----+----
(PID.TID 0000.0001) //      1 ----+----
(PID.TID 0000.0001) //      0 ----+----
(PID.TID 0000.0001) //     -1 ----+----
(PID.TID 0000.0001) // =======================================================
(PID.TID 0000.0001) // END OF FIELD                                          =
(PID.TID 0000.0001) // =======================================================
(PID.TID 0000.0001) 
(PID.TID 0000.0001) // =======================================================
(PID.TID 0000.0001) // Field Model Ro_surf (ini_masks_etc) at iteration          1
(PID.TID 0000.0001) // CMIN =          1.000000000000000E+32
(PID.TID 0000.0001) // CMAX =         -1.000000000000000E+32
(PID.TID 0000.0001) // CINT =          0.000000000000000E+00
(PID.TID 0000.0001) // SYMBOLS (CMIN->CMAX): -abcdefghijklmnopqrstuvwxyz+
(PID.TID 0000.0001) //                  0.0: .
(PID.TID 0000.0001) // RANGE I (Lo:Hi:Step):(  -1:   7:   1)
(PID.TID 0000.0001) // RANGE J (Lo:Hi:Step):(   7:  -1:  -1)
(PID.TID 0000.0001) // RANGE K (Lo:Hi:Step):(   1:   1:   1)
(PID.TID 0000.0001) // =======================================================
(PID.TID 0000.0001) // =======================================================
(PID.TID 0000.0001) // END OF FIELD                                          =
(PID.TID 0000.0001) // =======================================================
(PID.TID 0000.0001) 
(PID.TID 0000.0001) // =======================================================
(PID.TID 0000.0001) // Field hFacC at iteration          1
(PID.TID 0000.0001) // CMIN =          1.000000000000000E+00
(PID.TID 0000.0001) // CMAX =          1.000000000000000E+00
(PID.TID 0000.0001) // CINT =          0.000000000000000E+00
(PID.TID 0000.0001) // SYMBOLS (CMIN->CMAX): -abcdefghijklmnopqrstuvwxyz+
(PID.TID 0000.0001) //                  0.0: .
(PID.TID 0000.0001) // RANGE I (Lo:Hi:Step):(  -1:   7:   1)
(PID.TID 0000.0001) // RANGE J (Lo:Hi:Step):(   7:  -1:  -1)
(PID.TID 0000.0001) // RANGE K (Lo:Hi:Step):(   1:   1:   1)
(PID.TID 0000.0001) // =======================================================
(PID.TID 0000.0001) // =======================================================
(PID.TID 0000.0001) // END OF FIELD                                          =
(PID.TID 0000.0001) // =======================================================
(PID.TID 0000.0001) 
(PID.TID 0000.0001) // =======================================================
(PID.TID 0000.0001) // Field hFacW at iteration          1
(PID.TID 0000.0001) // CMIN =          1.000000000000000E+00
(PID.TID 0000.0001) // CMAX =          1.000000000000000E+00
(PID.TID 0000.0001) // CINT =          0.000000000000000E+00
(PID.TID 0000.0001) // SYMBOLS (CMIN->CMAX): -abcdefghijklmnopqrstuvwxyz+
(PID.TID 0000.0001) //                  0.0: .
(PID.TID 0000.0001) // RANGE I (Lo:Hi:Step):(  -1:   7:   1)
(PID.TID 0000.0001) // RANGE J (Lo:Hi:Step):(   7:  -1:  -1)
(PID.TID 0000.0001) // RANGE K (Lo:Hi:Step):(   1:   1:   1)
(PID.TID 0000.0001) // =======================================================
(PID.TID 0000.0001) // =======================================================
(PID.TID 0000.0001) // END OF FIELD                                          =
(PID.TID 0000.0001) // =======================================================
(PID.TID 0000.0001) 
(PID.TID 0000.0001) // =======================================================
(PID.TID 0000.0001) // Field hFacS at iteration          1
(PID.TID 0000.0001) // CMIN =          1.000000000000000E+00
(PID.TID 0000.0001) // CMAX =          1.000000000000000E+00
(PID.TID 0000.0001) // CINT =          0.000000000000000E+00
(PID.TID 0000.0001) // SYMBOLS (CMIN->CMAX): -abcdefghijklmnopqrstuvwxyz+
(PID.TID 0000.0001) //                  0.0: .
(PID.TID 0000.0001) // RANGE I (Lo:Hi:Step):(  -1:   7:   1)
(PID.TID 0000.0001) // RANGE J (Lo:Hi:Step):(   7:  -1:  -1)
(PID.TID 0000.0001) // RANGE K (Lo:Hi:Step):(   1:   1:   1)
(PID.TID 0000.0001) // =======================================================
(PID.TID 0000.0001) // =======================================================
(PID.TID 0000.0001) // END OF FIELD                                          =
(PID.TID 0000.0001) // =======================================================
(PID.TID 0000.0001) 
(PID.TID 0000.0001) %MON surfExpanfCori_max           =  -1.0735540000000E-04
(PID.TID 0000.0001) %MON surfExpanfCori_min           =  -1.1783060000000E-04
(PID.TID 0000.0001) %MON surfExpanfCori_mean          =  -1.1259300000000E-04
(PID.TID 0000.0001) %MON surfExpanfCori_sd            =   3.7035424771427E-06
(PID.TID 0000.0001) %MON surfExpanfCoriG_max          =  -1.0866480000000E-04
(PID.TID 0000.0001) %MON surfExpanfCoriG_min          =  -1.1914000000000E-04
(PID.TID 0000.0001) %MON surfExpanfCoriG_mean         =  -1.1390240000000E-04
(PID.TID 0000.0001) %MON surfExpanfCoriG_sd           =   3.7035424771427E-06
(PID.TID 0000.0001) %MON surfExpanfCoriCos_max        =   0.0000000000000E+00
(PID.TID 0000.0001) %MON surfExpanfCoriCos_min        =   0.0000000000000E+00
(PID.TID 0000.0001) %MON surfExpanfCoriCos_mean       =   0.0000000000000E+00
(PID.TID 0000.0001) %MON surfExpanfCoriCos_sd         =   0.0000000000000E+00
(PID.TID 0000.0001) INI_CG2D: CG2D normalisation factor =  1.9999999999999996E-04
(PID.TID 0000.0001) 
                     ctrl_depth_ini: ctrl update R_low,
                                     adding the control vector.
(PID.TID 0000.0001)  MDS_READ_FIELD: opening file: xx_depth.0000000000.001.001.data
(PID.TID 0000.0001) // =======================================================
(PID.TID 0000.0001) // Field Model Ro_surf (update_masks_etc) at iteration          1
(PID.TID 0000.0001) // CMIN =          1.000000000000000E+32
(PID.TID 0000.0001) // CMAX =         -1.000000000000000E+32
(PID.TID 0000.0001) // CINT =          0.000000000000000E+00
(PID.TID 0000.0001) // SYMBOLS (CMIN->CMAX): -abcdefghijklmnopqrstuvwxyz+
(PID.TID 0000.0001) //                  0.0: .
(PID.TID 0000.0001) // RANGE I (Lo:Hi:Step):(  -1:   7:   1)
(PID.TID 0000.0001) // RANGE J (Lo:Hi:Step):(   7:  -1:  -1)
(PID.TID 0000.0001) // RANGE K (Lo:Hi:Step):(   1:   1:   1)
(PID.TID 0000.0001) // =======================================================
(PID.TID 0000.0001) // =======================================================
(PID.TID 0000.0001) // END OF FIELD                                          =
(PID.TID 0000.0001) // =======================================================
(PID.TID 0000.0001) 
(PID.TID 0000.0001) // =======================================================
(PID.TID 0000.0001) // Field hFacC at iteration          1
(PID.TID 0000.0001) // CMIN =          1.000000000000000E+00
(PID.TID 0000.0001) // CMAX =          1.000000000000000E+00
(PID.TID 0000.0001) // CINT =          0.000000000000000E+00
(PID.TID 0000.0001) // SYMBOLS (CMIN->CMAX): -abcdefghijklmnopqrstuvwxyz+
(PID.TID 0000.0001) //                  0.0: .
(PID.TID 0000.0001) // RANGE I (Lo:Hi:Step):(  -1:   7:   1)
(PID.TID 0000.0001) // RANGE J (Lo:Hi:Step):(   7:  -1:  -1)
(PID.TID 0000.0001) // RANGE K (Lo:Hi:Step):(   1:   1:   1)
(PID.TID 0000.0001) // =======================================================
(PID.TID 0000.0001) // =======================================================
(PID.TID 0000.0001) // END OF FIELD                                          =
(PID.TID 0000.0001) // =======================================================
(PID.TID 0000.0001) 
(PID.TID 0000.0001) // =======================================================
(PID.TID 0000.0001) // Field hFacW at iteration          1
(PID.TID 0000.0001) // CMIN =          1.000000000000000E+00
(PID.TID 0000.0001) // CMAX =          1.000000000000000E+00
(PID.TID 0000.0001) // CINT =          0.000000000000000E+00
(PID.TID 0000.0001) // SYMBOLS (CMIN->CMAX): -abcdefghijklmnopqrstuvwxyz+
(PID.TID 0000.0001) //                  0.0: .
(PID.TID 0000.0001) // RANGE I (Lo:Hi:Step):(  -1:   7:   1)
(PID.TID 0000.0001) // RANGE J (Lo:Hi:Step):(   7:  -1:  -1)
(PID.TID 0000.0001) // RANGE K (Lo:Hi:Step):(   1:   1:   1)
(PID.TID 0000.0001) // =======================================================
(PID.TID 0000.0001) // =======================================================
(PID.TID 0000.0001) // END OF FIELD                                          =
(PID.TID 0000.0001) // =======================================================
(PID.TID 0000.0001) 
(PID.TID 0000.0001) // =======================================================
(PID.TID 0000.0001) // Field hFacS at iteration          1
(PID.TID 0000.0001) // CMIN =          1.000000000000000E+00
(PID.TID 0000.0001) // CMAX =          1.000000000000000E+00
(PID.TID 0000.0001) // CINT =          0.000000000000000E+00
(PID.TID 0000.0001) // SYMBOLS (CMIN->CMAX): -abcdefghijklmnopqrstuvwxyz+
(PID.TID 0000.0001) //                  0.0: .
(PID.TID 0000.0001) // RANGE I (Lo:Hi:Step):(  -1:   7:   1)
(PID.TID 0000.0001) // RANGE J (Lo:Hi:Step):(   7:  -1:  -1)
(PID.TID 0000.0001) // RANGE K (Lo:Hi:Step):(   1:   1:   1)
(PID.TID 0000.0001) // =======================================================
(PID.TID 0000.0001) // =======================================================
(PID.TID 0000.0001) // END OF FIELD                                          =
(PID.TID 0000.0001) // =======================================================
(PID.TID 0000.0001) 
(PID.TID 0000.0001) // =======================================================
(PID.TID 0000.0001) // Field Initial Temperature at iteration          1
(PID.TID 0000.0001) // CMIN =          4.000000000000000E+00
(PID.TID 0000.0001) // CMAX =          4.000000000000000E+00
(PID.TID 0000.0001) // CINT =          0.000000000000000E+00
(PID.TID 0000.0001) // SYMBOLS (CMIN->CMAX): -abcdefghijklmnopqrstuvwxyz+
(PID.TID 0000.0001) //                  0.0: .
(PID.TID 0000.0001) // RANGE I (Lo:Hi:Step):(   1:   5:   1)
(PID.TID 0000.0001) // RANGE J (Lo:Hi:Step):(   5:   1:  -1)
(PID.TID 0000.0001) // RANGE K (Lo:Hi:Step):(   1:   1:   1)
(PID.TID 0000.0001) // =======================================================
(PID.TID 0000.0001) // =======================================================
(PID.TID 0000.0001) // END OF FIELD                                          =
(PID.TID 0000.0001) // =======================================================
(PID.TID 0000.0001) 
(PID.TID 0000.0001) // =======================================================
(PID.TID 0000.0001) // Field Initial Salinity at iteration          1
(PID.TID 0000.0001) // CMIN =          3.500000000000000E+01
(PID.TID 0000.0001) // CMAX =          3.500000000000000E+01
(PID.TID 0000.0001) // CINT =          0.000000000000000E+00
(PID.TID 0000.0001) // SYMBOLS (CMIN->CMAX): -abcdefghijklmnopqrstuvwxyz+
(PID.TID 0000.0001) //                  0.0: .
(PID.TID 0000.0001) // RANGE I (Lo:Hi:Step):(   1:   5:   1)
(PID.TID 0000.0001) // RANGE J (Lo:Hi:Step):(   5:   1:  -1)
(PID.TID 0000.0001) // RANGE K (Lo:Hi:Step):(   1:   1:   1)
(PID.TID 0000.0001) // =======================================================
(PID.TID 0000.0001) // =======================================================
(PID.TID 0000.0001) // END OF FIELD                                          =
(PID.TID 0000.0001) // =======================================================
(PID.TID 0000.0001) 
(PID.TID 0000.0001) Start initial hydrostatic pressure computation
(PID.TID 0000.0001) Pressure is predetermined for buoyancyRelation OCEANIC
(PID.TID 0000.0001) 
(PID.TID 0000.0001)  MDS_READ_FIELD: opening global file: windx.sin_y
(PID.TID 0000.0001) // =======================================================
(PID.TID 0000.0001) // Model current state
(PID.TID 0000.0001) // =======================================================
(PID.TID 0000.0001) 
 cg2d: Sum(rhs),rhsMax =   0.00000000000000E+00  0.00000000000000E+00
 cg2d: Sum(rhs),rhsMax =  -2.49999999999996E+01  6.03492218443698E-05
 cg2d: Sum(rhs),rhsMax =  -1.81034404639062E+01  2.18766023587219E-04
 cg2d: Sum(rhs),rhsMax =  -1.54955563209322E+01  4.32479835245609E-04
 cg2d: Sum(rhs),rhsMax =  -1.41111452669207E+01  6.49958986762900E-04
 cg2d: Sum(rhs),rhsMax =  -1.31144322566037E+01  8.30737101359645E-04
 cg2d: Sum(rhs),rhsMax =  -1.21209090451662E+01  9.52510660989719E-04
 cg2d: Sum(rhs),rhsMax =  -1.07124742348518E+01  1.02806631188124E-03
 cg2d: Sum(rhs),rhsMax =  -7.41375938778181E+00  1.27086595975041E-03
 cg2d: Sum(rhs),rhsMax =  -4.70217534938322E+00  1.51019013619943E-03
 cg2d: Sum(rhs),rhsMax =  -2.72440686722795E+00  1.65833737821675E-03
 cg2d: Sum(rhs),rhsMax =  -1.27958669309404E+00  1.70565508440121E-03
 cg2d: Sum(rhs),rhsMax =  -3.29564698938201E-01  1.66071960435697E-03
 cg2d: Sum(rhs),rhsMax =   5.21320415916153E-02  1.54812756263056E-03
 cg2d: Sum(rhs),rhsMax =  -2.86625372130285E-01  1.40338816500213E-03
 cg2d: Sum(rhs),rhsMax =  -1.30315842922327E+00  1.44268599986900E-03
 cg2d: Sum(rhs),rhsMax =  -2.68067689428362E+00  1.50836887009622E-03
 cg2d: Sum(rhs),rhsMax =  -4.07407451948673E+00  1.58424367381072E-03
 cg2d: Sum(rhs),rhsMax =  -5.18272346018888E+00  1.66593593432665E-03
 cg2d: Sum(rhs),rhsMax =  -5.80990595896638E+00  1.74846176022314E-03
 cg2d: Sum(rhs),rhsMax =  -5.87740624978941E+00  1.82725971943364E-03
 cg2d: Sum(rhs),rhsMax =  -5.41358308841689E+00  1.89900435510114E-03
 cg2d: Sum(rhs),rhsMax =  -4.53080674542443E+00  1.96213935443190E-03
 cg2d: Sum(rhs),rhsMax =  -3.22587899696527E+00  2.12611202103041E-03
 cg2d: Sum(rhs),rhsMax =  -2.04447212350335E+00  2.24837953204165E-03
 cg2d: Sum(rhs),rhsMax =  -1.10818137429334E+00  2.30404048722128E-03
 cg2d: Sum(rhs),rhsMax =  -4.90484879988369E-01  2.29576532227062E-03
 cg2d: Sum(rhs),rhsMax =  -2.61247062691249E-01  2.23814842346839E-03
 cg2d: Sum(rhs),rhsMax =  -4.50921964766303E-01  2.26266908319262E-03
 cg2d: Sum(rhs),rhsMax =  -1.00469609856797E+00  2.31946124519123E-03
 cg2d: Sum(rhs),rhsMax =  -1.78565330066730E+00  2.37599943183870E-03
 cg2d: Sum(rhs),rhsMax =  -2.62429306802365E+00  2.42805545143746E-03
 cg2d: Sum(rhs),rhsMax =  -3.35748484003525E+00  2.47123046902102E-03
 cg2d: Sum(rhs),rhsMax =  -3.85508914602571E+00  2.50195600336478E-03
 cg2d: Sum(rhs),rhsMax =  -4.03589974635162E+00  2.51830324674433E-03
 cg2d: Sum(rhs),rhsMax =  -3.87512844538645E+00  2.52047521358831E-03
 cg2d: Sum(rhs),rhsMax =  -3.40600365433308E+00  2.51092924154464E-03
 cg2d: Sum(rhs),rhsMax =  -2.61682446245430E+00  2.58874084436297E-03
 cg2d: Sum(rhs),rhsMax =  -1.83238714327918E+00  2.61669726936736E-03
 cg2d: Sum(rhs),rhsMax =  -1.17513339689359E+00  2.56005943017272E-03
 cg2d: Sum(rhs),rhsMax =  -7.11994619130238E-01  2.47855830193827E-03
 cg2d: Sum(rhs),rhsMax =  -5.26422146917463E-01  2.47042095467821E-03
 cg2d: Sum(rhs),rhsMax =  -6.78930209373060E-01  2.49676873344147E-03
 cg2d: Sum(rhs),rhsMax =  -1.12673721092241E+00  2.53652614567684E-03
 cg2d: Sum(rhs),rhsMax =  -1.75981623821681E+00  2.58504767066783E-03
 cg2d: Sum(rhs),rhsMax =  -2.43940633535475E+00  2.63568093582398E-03
 cg2d: Sum(rhs),rhsMax =  -3.03203006525672E+00  2.68092817246106E-03
 cg2d: Sum(rhs),rhsMax =  -3.40991312540671E+00  2.73286304110835E-03
 cg2d: Sum(rhs),rhsMax =  -3.48046023981745E+00  2.80943922585688E-03
 cg2d: Sum(rhs),rhsMax =  -3.32063073875082E+00  2.84054008887894E-03
 cg2d: Sum(rhs),rhsMax =  -2.96079448411666E+00  2.82589057845031E-03
 cg2d: Sum(rhs),rhsMax =  -2.32992815066139E+00  2.92147971110722E-03
 cg2d: Sum(rhs),rhsMax =  -1.72242459339742E+00  2.94384959206194E-03
 cg2d: Sum(rhs),rhsMax =  -1.21221906201494E+00  2.89157776090594E-03
 cg2d: Sum(rhs),rhsMax =  -8.69698416707429E-01  2.78046453575009E-03
 cg2d: Sum(rhs),rhsMax =  -7.64867827820089E-01  2.63730946034881E-03
 cg2d: Sum(rhs),rhsMax =  -9.31747860301698E-01  2.54529703052775E-03
 cg2d: Sum(rhs),rhsMax =  -1.31074340083188E+00  2.59464768297415E-03
 cg2d: Sum(rhs),rhsMax =  -1.82960844508345E+00  2.67470087941666E-03
 cg2d: Sum(rhs),rhsMax =  -2.36415410684265E+00  2.77096211974968E-03
 cg2d: Sum(rhs),rhsMax =  -2.80794781051822E+00  2.86583705896252E-03
 cg2d: Sum(rhs),rhsMax =  -3.09076539608272E+00  2.94225353984953E-03
 cg2d: Sum(rhs),rhsMax =  -3.17911025584704E+00  2.98708406843885E-03
 cg2d: Sum(rhs),rhsMax =  -3.06968982515443E+00  2.99369701701319E-03
 cg2d: Sum(rhs),rhsMax =  -2.74200037034673E+00  3.00868111335286E-03
 cg2d: Sum(rhs),rhsMax =  -2.22987023913274E+00  3.08320491804281E-03
 cg2d: Sum(rhs),rhsMax =  -1.72892389056928E+00  3.09216597840258E-03
 cg2d: Sum(rhs),rhsMax =  -1.30661130510841E+00  3.03707919372748E-03
 cg2d: Sum(rhs),rhsMax =  -1.02724591766006E+00  2.93201249922445E-03
 cg2d: Sum(rhs),rhsMax =  -9.49612126511712E-01  2.80059563589833E-03
 cg2d: Sum(rhs),rhsMax =  -1.10546684390126E+00  2.68802011758984E-03
 cg2d: Sum(rhs),rhsMax =  -1.41911848848358E+00  2.73183503725464E-03
 cg2d: Sum(rhs),rhsMax =  -1.85263655468733E+00  2.80075123869897E-03
 cg2d: Sum(rhs),rhsMax =  -2.30607108587811E+00  2.88121984184206E-03
 cg2d: Sum(rhs),rhsMax =  -2.69038336497561E+00  2.95745898426147E-03
 cg2d: Sum(rhs),rhsMax =  -2.94313288623002E+00  3.01465309451669E-03
 cg2d: Sum(rhs),rhsMax =  -3.03123927605702E+00  3.04190025655750E-03
 cg2d: Sum(rhs),rhsMax =  -2.94785326086447E+00  3.03433139902753E-03
 cg2d: Sum(rhs),rhsMax =  -2.61356663681490E+00  3.10365972661943E-03
 cg2d: Sum(rhs),rhsMax =  -2.18161324946659E+00  3.16115499546484E-03
 cg2d: Sum(rhs),rhsMax =  -1.75526130545701E+00  3.15966307952796E-03
 cg2d: Sum(rhs),rhsMax =  -1.39603749634306E+00  3.10114906619565E-03
 cg2d: Sum(rhs),rhsMax =  -1.16177146091320E+00  2.99876539753228E-03
 cg2d: Sum(rhs),rhsMax =  -1.10293753479449E+00  2.87411077422394E-03
 cg2d: Sum(rhs),rhsMax =  -1.24975141247519E+00  2.75286348537231E-03
 cg2d: Sum(rhs),rhsMax =  -1.53840874080313E+00  2.75098215428505E-03
 cg2d: Sum(rhs),rhsMax =  -1.91301877900670E+00  2.81271667892246E-03
 cg2d: Sum(rhs),rhsMax =  -2.30705946465595E+00  2.88449379901516E-03
 cg2d: Sum(rhs),rhsMax =  -2.64297559670299E+00  2.95188724273289E-03
 cg2d: Sum(rhs),rhsMax =  -2.86495136297045E+00  3.00154117293211E-03
 cg2d: Sum(rhs),rhsMax =  -2.94238815747626E+00  3.02377924844331E-03
 cg2d: Sum(rhs),rhsMax =  -2.84207324088079E+00  3.04217200672199E-03
 cg2d: Sum(rhs),rhsMax =  -2.51902185760562E+00  3.13830799056877E-03
 cg2d: Sum(rhs),rhsMax =  -2.14123739319004E+00  3.18959317610997E-03
 cg2d: Sum(rhs),rhsMax =  -1.76835927412825E+00  3.18714926578051E-03
 cg2d: Sum(rhs),rhsMax =  -1.45590357664336E+00  3.13272223457138E-03
 cg2d: Sum(rhs),rhsMax =  -1.25508078769130E+00  3.03818411500959E-03
 cg2d: Sum(rhs),rhsMax =  -1.20874912203652E+00  2.92305986251254E-03
 cg2d: Sum(rhs),rhsMax =  -1.34034319772816E+00  2.81059300431090E-03
 cg2d: Sum(rhs),rhsMax =  -1.62624337954141E+00  2.74190571441327E-03
(PID.TID 0000.0001) %CHECKPOINT       100 ckptB
 --> objf_test(bi,bj)   =  0.509071977491679E-01
 --> objf_tracer(bi,bj) =  0.000000000000000E+00
 --> objf_atl(bi,bj)    =  0.000000000000000E+00
  local fc =  0.509071977491679E-01
 global fc =  0.509071977491679E-01
(PID.TID 0000.0001)  MDS_READ_FIELD: opening file: xx_depth.0000000000.001.001.data
grad-res -------------------------------
 grad-res     0   22    2    5    1    1    1    1   0.509071982062E-01 0.509071986631E-01 0.509071977492E-01
 grad-res     0   22   22   22   25    1    1    1   0.457003965942E-05 0.456983645369E-05 0.444647623251E-04
(PID.TID 0000.0001)   ADM  precision_derivative_cost =    5.09071982061515E-02
(PID.TID 0000.0001)   ADM  precision_derivative_grad =    4.57003965942118E-06
 ph-grd  ierr ---------------------------
 ph-grd  ierr =  0, icomp =  22, ichknum =  22
 ph-grd -->hit<--  3 5 1 1
(PID.TID 0000.0001)  MDS_READ_FIELD: opening file: adxx_depth.0000000000.001.001.data
(PID.TID 0000.0001)  MDS_READ_FIELD: opening file: xx_depth.0000000000.001.001.data
(PID.TID 0000.0001)  MDS_READ_FIELD: opening global file: noWalls.bigRidge
(PID.TID 0000.0001) // =======================================================
(PID.TID 0000.0001) // Field Model R_low (ini_masks_etc) at iteration          1
(PID.TID 0000.0001) // CMIN =         -5.000000000000000E+03
(PID.TID 0000.0001) // CMAX =         -2.000000000000000E+03
(PID.TID 0000.0001) // CINT =          1.111111111111111E+02
(PID.TID 0000.0001) // SYMBOLS (CMIN->CMAX): -abcdefghijklmnopqrstuvwxyz+
(PID.TID 0000.0001) //                  0.0: .
(PID.TID 0000.0001) // RANGE I (Lo:Hi:Step):(  -1:   7:   1)
(PID.TID 0000.0001) // RANGE J (Lo:Hi:Step):(   7:  -1:  -1)
(PID.TID 0000.0001) // RANGE K (Lo:Hi:Step):(   1:   1:   1)
(PID.TID 0000.0001) // =======================================================
(PID.TID 0000.0001) K =   1
(PID.TID 0000.0001) //
(PID.TID 0000.0001) // |--J--|101234567
(PID.TID 0000.0001) //      7 ----+----
(PID.TID 0000.0001) //      6 ----+----
(PID.TID 0000.0001) //      5 ----+----
(PID.TID 0000.0001) //      4 ----+----
(PID.TID 0000.0001) //      3 ----+----
(PID.TID 0000.0001) //      2 ----+----
(PID.TID 0000.0001) //      1 ----+----
(PID.TID 0000.0001) //      0 ----+----
(PID.TID 0000.0001) //     -1 ----+----
(PID.TID 0000.0001) // =======================================================
(PID.TID 0000.0001) // END OF FIELD                                          =
(PID.TID 0000.0001) // =======================================================
(PID.TID 0000.0001) 
(PID.TID 0000.0001) // =======================================================
(PID.TID 0000.0001) // Field Model Ro_surf (ini_masks_etc) at iteration          1
(PID.TID 0000.0001) // CMIN =          1.000000000000000E+32
(PID.TID 0000.0001) // CMAX =         -1.000000000000000E+32
(PID.TID 0000.0001) // CINT =          0.000000000000000E+00
(PID.TID 0000.0001) // SYMBOLS (CMIN->CMAX): -abcdefghijklmnopqrstuvwxyz+
(PID.TID 0000.0001) //                  0.0: .
(PID.TID 0000.0001) // RANGE I (Lo:Hi:Step):(  -1:   7:   1)
(PID.TID 0000.0001) // RANGE J (Lo:Hi:Step):(   7:  -1:  -1)
(PID.TID 0000.0001) // RANGE K (Lo:Hi:Step):(   1:   1:   1)
(PID.TID 0000.0001) // =======================================================
(PID.TID 0000.0001) // =======================================================
(PID.TID 0000.0001) // END OF FIELD                                          =
(PID.TID 0000.0001) // =======================================================
(PID.TID 0000.0001) 
(PID.TID 0000.0001) // =======================================================
(PID.TID 0000.0001) // Field hFacC at iteration          1
(PID.TID 0000.0001) // CMIN =          1.000000000000000E+00
(PID.TID 0000.0001) // CMAX =          1.000000000000000E+00
(PID.TID 0000.0001) // CINT =          0.000000000000000E+00
(PID.TID 0000.0001) // SYMBOLS (CMIN->CMAX): -abcdefghijklmnopqrstuvwxyz+
(PID.TID 0000.0001) //                  0.0: .
(PID.TID 0000.0001) // RANGE I (Lo:Hi:Step):(  -1:   7:   1)
(PID.TID 0000.0001) // RANGE J (Lo:Hi:Step):(   7:  -1:  -1)
(PID.TID 0000.0001) // RANGE K (Lo:Hi:Step):(   1:   1:   1)
(PID.TID 0000.0001) // =======================================================
(PID.TID 0000.0001) // =======================================================
(PID.TID 0000.0001) // END OF FIELD                                          =
(PID.TID 0000.0001) // =======================================================
(PID.TID 0000.0001) 
(PID.TID 0000.0001) // =======================================================
(PID.TID 0000.0001) // Field hFacW at iteration          1
(PID.TID 0000.0001) // CMIN =          1.000000000000000E+00
(PID.TID 0000.0001) // CMAX =          1.000000000000000E+00
(PID.TID 0000.0001) // CINT =          0.000000000000000E+00
(PID.TID 0000.0001) // SYMBOLS (CMIN->CMAX): -abcdefghijklmnopqrstuvwxyz+
(PID.TID 0000.0001) //                  0.0: .
(PID.TID 0000.0001) // RANGE I (Lo:Hi:Step):(  -1:   7:   1)
(PID.TID 0000.0001) // RANGE J (Lo:Hi:Step):(   7:  -1:  -1)
(PID.TID 0000.0001) // RANGE K (Lo:Hi:Step):(   1:   1:   1)
(PID.TID 0000.0001) // =======================================================
(PID.TID 0000.0001) // =======================================================
(PID.TID 0000.0001) // END OF FIELD                                          =
(PID.TID 0000.0001) // =======================================================
(PID.TID 0000.0001) 
(PID.TID 0000.0001) // =======================================================
(PID.TID 0000.0001) // Field hFacS at iteration          1
(PID.TID 0000.0001) // CMIN =          1.000000000000000E+00
(PID.TID 0000.0001) // CMAX =          1.000000000000000E+00
(PID.TID 0000.0001) // CINT =          0.000000000000000E+00
(PID.TID 0000.0001) // SYMBOLS (CMIN->CMAX): -abcdefghijklmnopqrstuvwxyz+
(PID.TID 0000.0001) //                  0.0: .
(PID.TID 0000.0001) // RANGE I (Lo:Hi:Step):(  -1:   7:   1)
(PID.TID 0000.0001) // RANGE J (Lo:Hi:Step):(   7:  -1:  -1)
(PID.TID 0000.0001) // RANGE K (Lo:Hi:Step):(   1:   1:   1)
(PID.TID 0000.0001) // =======================================================
(PID.TID 0000.0001) // =======================================================
(PID.TID 0000.0001) // END OF FIELD                                          =
(PID.TID 0000.0001) // =======================================================
(PID.TID 0000.0001) 
(PID.TID 0000.0001) %MON surfExpanfCori_max           =  -1.0735540000000E-04
(PID.TID 0000.0001) %MON surfExpanfCori_min           =  -1.1783060000000E-04
(PID.TID 0000.0001) %MON surfExpanfCori_mean          =  -1.1259300000000E-04
(PID.TID 0000.0001) %MON surfExpanfCori_sd            =   3.7035424771427E-06
(PID.TID 0000.0001) %MON surfExpanfCoriG_max          =  -1.0866480000000E-04
(PID.TID 0000.0001) %MON surfExpanfCoriG_min          =  -1.1914000000000E-04
(PID.TID 0000.0001) %MON surfExpanfCoriG_mean         =  -1.1390240000000E-04
(PID.TID 0000.0001) %MON surfExpanfCoriG_sd           =   3.7035424771427E-06
(PID.TID 0000.0001) %MON surfExpanfCoriCos_max        =   0.0000000000000E+00
(PID.TID 0000.0001) %MON surfExpanfCoriCos_min        =   0.0000000000000E+00
(PID.TID 0000.0001) %MON surfExpanfCoriCos_mean       =   0.0000000000000E+00
(PID.TID 0000.0001) %MON surfExpanfCoriCos_sd         =   0.0000000000000E+00
(PID.TID 0000.0001) INI_CG2D: CG2D normalisation factor =  1.9999999999999996E-04
(PID.TID 0000.0001) 
                     ctrl_depth_ini: ctrl update R_low,
                                     adding the control vector.
(PID.TID 0000.0001)  MDS_READ_FIELD: opening file: xx_depth.0000000000.001.001.data
(PID.TID 0000.0001) // =======================================================
(PID.TID 0000.0001) // Field Model Ro_surf (update_masks_etc) at iteration          1
(PID.TID 0000.0001) // CMIN =          1.000000000000000E+32
(PID.TID 0000.0001) // CMAX =         -1.000000000000000E+32
(PID.TID 0000.0001) // CINT =          0.000000000000000E+00
(PID.TID 0000.0001) // SYMBOLS (CMIN->CMAX): -abcdefghijklmnopqrstuvwxyz+
(PID.TID 0000.0001) //                  0.0: .
(PID.TID 0000.0001) // RANGE I (Lo:Hi:Step):(  -1:   7:   1)
(PID.TID 0000.0001) // RANGE J (Lo:Hi:Step):(   7:  -1:  -1)
(PID.TID 0000.0001) // RANGE K (Lo:Hi:Step):(   1:   1:   1)
(PID.TID 0000.0001) // =======================================================
(PID.TID 0000.0001) // =======================================================
(PID.TID 0000.0001) // END OF FIELD                                          =
(PID.TID 0000.0001) // =======================================================
(PID.TID 0000.0001) 
(PID.TID 0000.0001) // =======================================================
(PID.TID 0000.0001) // Field hFacC at iteration          1
(PID.TID 0000.0001) // CMIN =          1.000000000000000E+00
(PID.TID 0000.0001) // CMAX =          1.000000000000000E+00
(PID.TID 0000.0001) // CINT =          0.000000000000000E+00
(PID.TID 0000.0001) // SYMBOLS (CMIN->CMAX): -abcdefghijklmnopqrstuvwxyz+
(PID.TID 0000.0001) //                  0.0: .
(PID.TID 0000.0001) // RANGE I (Lo:Hi:Step):(  -1:   7:   1)
(PID.TID 0000.0001) // RANGE J (Lo:Hi:Step):(   7:  -1:  -1)
(PID.TID 0000.0001) // RANGE K (Lo:Hi:Step):(   1:   1:   1)
(PID.TID 0000.0001) // =======================================================
(PID.TID 0000.0001) // =======================================================
(PID.TID 0000.0001) // END OF FIELD                                          =
(PID.TID 0000.0001) // =======================================================
(PID.TID 0000.0001) 
(PID.TID 0000.0001) // =======================================================
(PID.TID 0000.0001) // Field hFacW at iteration          1
(PID.TID 0000.0001) // CMIN =          1.000000000000000E+00
(PID.TID 0000.0001) // CMAX =          1.000000000000000E+00
(PID.TID 0000.0001) // CINT =          0.000000000000000E+00
(PID.TID 0000.0001) // SYMBOLS (CMIN->CMAX): -abcdefghijklmnopqrstuvwxyz+
(PID.TID 0000.0001) //                  0.0: .
(PID.TID 0000.0001) // RANGE I (Lo:Hi:Step):(  -1:   7:   1)
(PID.TID 0000.0001) // RANGE J (Lo:Hi:Step):(   7:  -1:  -1)
(PID.TID 0000.0001) // RANGE K (Lo:Hi:Step):(   1:   1:   1)
(PID.TID 0000.0001) // =======================================================
(PID.TID 0000.0001) // =======================================================
(PID.TID 0000.0001) // END OF FIELD                                          =
(PID.TID 0000.0001) // =======================================================
(PID.TID 0000.0001) 
(PID.TID 0000.0001) // =======================================================
(PID.TID 0000.0001) // Field hFacS at iteration          1
(PID.TID 0000.0001) // CMIN =          1.000000000000000E+00
(PID.TID 0000.0001) // CMAX =          1.000000000000000E+00
(PID.TID 0000.0001) // CINT =          0.000000000000000E+00
(PID.TID 0000.0001) // SYMBOLS (CMIN->CMAX): -abcdefghijklmnopqrstuvwxyz+
(PID.TID 0000.0001) //                  0.0: .
(PID.TID 0000.0001) // RANGE I (Lo:Hi:Step):(  -1:   7:   1)
(PID.TID 0000.0001) // RANGE J (Lo:Hi:Step):(   7:  -1:  -1)
(PID.TID 0000.0001) // RANGE K (Lo:Hi:Step):(   1:   1:   1)
(PID.TID 0000.0001) // =======================================================
(PID.TID 0000.0001) // =======================================================
(PID.TID 0000.0001) // END OF FIELD                                          =
(PID.TID 0000.0001) // =======================================================
(PID.TID 0000.0001) 
(PID.TID 0000.0001) // =======================================================
(PID.TID 0000.0001) // Field Initial Temperature at iteration          1
(PID.TID 0000.0001) // CMIN =          4.000000000000000E+00
(PID.TID 0000.0001) // CMAX =          4.000000000000000E+00
(PID.TID 0000.0001) // CINT =          0.000000000000000E+00
(PID.TID 0000.0001) // SYMBOLS (CMIN->CMAX): -abcdefghijklmnopqrstuvwxyz+
(PID.TID 0000.0001) //                  0.0: .
(PID.TID 0000.0001) // RANGE I (Lo:Hi:Step):(   1:   5:   1)
(PID.TID 0000.0001) // RANGE J (Lo:Hi:Step):(   5:   1:  -1)
(PID.TID 0000.0001) // RANGE K (Lo:Hi:Step):(   1:   1:   1)
(PID.TID 0000.0001) // =======================================================
(PID.TID 0000.0001) // =======================================================
(PID.TID 0000.0001) // END OF FIELD                                          =
(PID.TID 0000.0001) // =======================================================
(PID.TID 0000.0001) 
(PID.TID 0000.0001) // =======================================================
(PID.TID 0000.0001) // Field Initial Salinity at iteration          1
(PID.TID 0000.0001) // CMIN =          3.500000000000000E+01
(PID.TID 0000.0001) // CMAX =          3.500000000000000E+01
(PID.TID 0000.0001) // CINT =          0.000000000000000E+00
(PID.TID 0000.0001) // SYMBOLS (CMIN->CMAX): -abcdefghijklmnopqrstuvwxyz+
(PID.TID 0000.0001) //                  0.0: .
(PID.TID 0000.0001) // RANGE I (Lo:Hi:Step):(   1:   5:   1)
(PID.TID 0000.0001) // RANGE J (Lo:Hi:Step):(   5:   1:  -1)
(PID.TID 0000.0001) // RANGE K (Lo:Hi:Step):(   1:   1:   1)
(PID.TID 0000.0001) // =======================================================
(PID.TID 0000.0001) // =======================================================
(PID.TID 0000.0001) // END OF FIELD                                          =
(PID.TID 0000.0001) // =======================================================
(PID.TID 0000.0001) 
(PID.TID 0000.0001) Start initial hydrostatic pressure computation
(PID.TID 0000.0001) Pressure is predetermined for buoyancyRelation OCEANIC
(PID.TID 0000.0001) 
(PID.TID 0000.0001)  MDS_READ_FIELD: opening global file: windx.sin_y
(PID.TID 0000.0001) // =======================================================
(PID.TID 0000.0001) // Model current state
(PID.TID 0000.0001) // =======================================================
(PID.TID 0000.0001) 
 cg2d: Sum(rhs),rhsMax =   0.00000000000000E+00  0.00000000000000E+00
 cg2d: Sum(rhs),rhsMax =  -2.49999999999996E+01  6.03492218443698E-05
 cg2d: Sum(rhs),rhsMax =  -1.81034404639062E+01  2.18766023587219E-04
 cg2d: Sum(rhs),rhsMax =  -1.54955562828004E+01  4.32479836309010E-04
 cg2d: Sum(rhs),rhsMax =  -1.41111452272516E+01  6.49958988583520E-04
 cg2d: Sum(rhs),rhsMax =  -1.31144322262160E+01  8.30737103267949E-04
 cg2d: Sum(rhs),rhsMax =  -1.21209090262420E+01  9.52510662447387E-04
 cg2d: Sum(rhs),rhsMax =  -1.07124742396582E+01  1.02806631137605E-03
 cg2d: Sum(rhs),rhsMax =  -7.41375935505502E+00  1.27086596529119E-03
 cg2d: Sum(rhs),rhsMax =  -4.70217532329057E+00  1.51019014448390E-03
 cg2d: Sum(rhs),rhsMax =  -2.72440684987115E+00  1.65833738868482E-03
 cg2d: Sum(rhs),rhsMax =  -1.27958668428987E+00  1.70565509616228E-03
 cg2d: Sum(rhs),rhsMax =  -3.29564696796895E-01  1.66071961635890E-03
 cg2d: Sum(rhs),rhsMax =   5.21320407150013E-02  1.54812757387672E-03
 cg2d: Sum(rhs),rhsMax =  -2.86625370899532E-01  1.40338817474746E-03
 cg2d: Sum(rhs),rhsMax =  -1.30315843470208E+00  1.44268599472604E-03
 cg2d: Sum(rhs),rhsMax =  -2.68067690787226E+00  1.50836886286374E-03
 cg2d: Sum(rhs),rhsMax =  -4.07407454469263E+00  1.58424366419090E-03
 cg2d: Sum(rhs),rhsMax =  -5.18272349805852E+00  1.66593592217002E-03
 cg2d: Sum(rhs),rhsMax =  -5.80990600723593E+00  1.74846174555197E-03
 cg2d: Sum(rhs),rhsMax =  -5.87740630337820E+00  1.82725970243529E-03
 cg2d: Sum(rhs),rhsMax =  -5.41358314087914E+00  1.89900433609100E-03
 cg2d: Sum(rhs),rhsMax =  -4.53080679070330E+00  1.96213933379045E-03
 cg2d: Sum(rhs),rhsMax =  -3.22587896800004E+00  2.12611203822717E-03
 cg2d: Sum(rhs),rhsMax =  -2.04447210184169E+00  2.24837955217206E-03
 cg2d: Sum(rhs),rhsMax =  -1.10818135968525E+00  2.30404050947379E-03
 cg2d: Sum(rhs),rhsMax =  -4.90484870436860E-01  2.29576534558633E-03
 cg2d: Sum(rhs),rhsMax =  -2.61247054576674E-01  2.23814844672067E-03
 cg2d: Sum(rhs),rhsMax =  -4.50921964168613E-01  2.26266905547146E-03
 cg2d: Sum(rhs),rhsMax =  -1.00469610474091E+00  2.31946121515707E-03
 cg2d: Sum(rhs),rhsMax =  -1.78565331779724E+00  2.37599939887722E-03
 cg2d: Sum(rhs),rhsMax =  -2.62429309884926E+00  2.42805541499710E-03
 cg2d: Sum(rhs),rhsMax =  -3.35748488521320E+00  2.47123042869692E-03
 cg2d: Sum(rhs),rhsMax =  -3.85508920365047E+00  2.50195595895963E-03
 cg2d: Sum(rhs),rhsMax =  -4.03589981186601E+00  2.51830319829534E-03
 cg2d: Sum(rhs),rhsMax =  -3.87512851207965E+00  2.52047516135528E-03
 cg2d: Sum(rhs),rhsMax =  -3.40600371449704E+00  2.51092918596101E-03
 cg2d: Sum(rhs),rhsMax =  -2.61682440487403E+00  2.58874088514546E-03
 cg2d: Sum(rhs),rhsMax =  -1.83238709600130E+00  2.61669731146598E-03
 cg2d: Sum(rhs),rhsMax =  -1.17513335701328E+00  2.56005947368894E-03
 cg2d: Sum(rhs),rhsMax =  -7.11994590392878E-01  2.47855832397842E-03
 cg2d: Sum(rhs),rhsMax =  -5.26422136454748E-01  2.47042088915575E-03
 cg2d: Sum(rhs),rhsMax =  -6.78930201416552E-01  2.49676866635693E-03
 cg2d: Sum(rhs),rhsMax =  -1.12673721363969E+00  2.53652607674710E-03
 cg2d: Sum(rhs),rhsMax =  -1.75981625710014E+00  2.58504759949983E-03
 cg2d: Sum(rhs),rhsMax =  -2.43940637243967E+00  2.63568086199491E-03
 cg2d: Sum(rhs),rhsMax =  -3.03203011916642E+00  2.68092809560188E-03
 cg2d: Sum(rhs),rhsMax =  -3.40991313380297E+00  2.73286300656562E-03
 cg2d: Sum(rhs),rhsMax =  -3.48046024822962E+00  2.80943918996382E-03
 cg2d: Sum(rhs),rhsMax =  -3.32063074433810E+00  2.84054005163144E-03
 cg2d: Sum(rhs),rhsMax =  -2.96079448410118E+00  2.82589053983009E-03
 cg2d: Sum(rhs),rhsMax =  -2.32992806895728E+00  2.92147976161154E-03
 cg2d: Sum(rhs),rhsMax =  -1.72242452024056E+00  2.94384964292548E-03
 cg2d: Sum(rhs),rhsMax =  -1.21221899392270E+00  2.89157781226824E-03
 cg2d: Sum(rhs),rhsMax =  -8.69698349489657E-01  2.78046458769324E-03
 cg2d: Sum(rhs),rhsMax =  -7.64867756059245E-01  2.63730951287267E-03
 cg2d: Sum(rhs),rhsMax =  -9.31747816059349E-01  2.54529698315697E-03
 cg2d: Sum(rhs),rhsMax =  -1.31074336201646E+00  2.59464763413914E-03
 cg2d: Sum(rhs),rhsMax =  -1.82960841480095E+00  2.67470082914576E-03
 cg2d: Sum(rhs),rhsMax =  -2.36415408545514E+00  2.77096206807562E-03
 cg2d: Sum(rhs),rhsMax =  -2.80794779619388E+00  2.86583700591723E-03
 cg2d: Sum(rhs),rhsMax =  -3.09076538572456E+00  2.94225348545995E-03
 cg2d: Sum(rhs),rhsMax =  -3.17911024581688E+00  2.98708401272405E-03
 cg2d: Sum(rhs),rhsMax =  -3.06968981166562E+00  2.99369695998391E-03
 cg2d: Sum(rhs),rhsMax =  -2.74200024945252E+00  3.00868116444577E-03
 cg2d: Sum(rhs),rhsMax =  -2.22987012713958E+00  3.08320496899507E-03
 cg2d: Sum(rhs),rhsMax =  -1.72892378453352E+00  3.09216602943857E-03
 cg2d: Sum(rhs),rhsMax =  -1.30661120149961E+00  3.03707924504790E-03
 cg2d: Sum(rhs),rhsMax =  -1.02724581232535E+00  2.93201255096649E-03
 cg2d: Sum(rhs),rhsMax =  -9.49612014553979E-01  2.80059568810842E-03
 cg2d: Sum(rhs),rhsMax =  -1.10546676972093E+00  2.68802005145651E-03
 cg2d: Sum(rhs),rhsMax =  -1.41911842050587E+00  2.73183496987900E-03
 cg2d: Sum(rhs),rhsMax =  -1.85263649638416E+00  2.80075117010744E-03
 cg2d: Sum(rhs),rhsMax =  -2.30607103775624E+00  2.88121977205893E-03
 cg2d: Sum(rhs),rhsMax =  -2.69038332510141E+00  2.95745891330599E-03
 cg2d: Sum(rhs),rhsMax =  -2.94313285115329E+00  3.01465302240132E-03
 cg2d: Sum(rhs),rhsMax =  -3.03123924158590E+00  3.04190018328769E-03
 cg2d: Sum(rhs),rhsMax =  -2.94785322255326E+00  3.03433132460300E-03
 cg2d: Sum(rhs),rhsMax =  -2.61356648302590E+00  3.10365977762156E-03
 cg2d: Sum(rhs),rhsMax =  -2.18161310284958E+00  3.16115504652511E-03
 cg2d: Sum(rhs),rhsMax =  -1.75526116299338E+00  3.15966313091828E-03
 cg2d: Sum(rhs),rhsMax =  -1.39603735439379E+00  3.10114911815990E-03
 cg2d: Sum(rhs),rhsMax =  -1.16177131531086E+00  2.99876545024264E-03
 cg2d: Sum(rhs),rhsMax =  -1.10293738091561E+00  2.87411082775091E-03
 cg2d: Sum(rhs),rhsMax =  -1.24975124569673E+00  2.75286353967453E-03
 cg2d: Sum(rhs),rhsMax =  -1.53840864228365E+00  2.75098207077545E-03
 cg2d: Sum(rhs),rhsMax =  -1.91301869149053E+00  2.81271659435792E-03
 cg2d: Sum(rhs),rhsMax =  -2.30705938873590E+00  2.88449371341251E-03
 cg2d: Sum(rhs),rhsMax =  -2.64297553028182E+00  2.95188715610112E-03
 cg2d: Sum(rhs),rhsMax =  -2.86495130222897E+00  3.00154108527146E-03
 cg2d: Sum(rhs),rhsMax =  -2.94238809772736E+00  3.02377915974596E-03
 cg2d: Sum(rhs),rhsMax =  -2.84207304164758E+00  3.04217206181798E-03
 cg2d: Sum(rhs),rhsMax =  -2.51902166768263E+00  3.13830804575360E-03
 cg2d: Sum(rhs),rhsMax =  -2.14123721037171E+00  3.18959323164450E-03
 cg2d: Sum(rhs),rhsMax =  -1.76835909514176E+00  3.18714932195205E-03
 cg2d: Sum(rhs),rhsMax =  -1.45590339756859E+00  3.13272229164241E-03
 cg2d: Sum(rhs),rhsMax =  -1.25508060414231E+00  3.03818417317100E-03
 cg2d: Sum(rhs),rhsMax =  -1.20874892934976E+00  2.92305992185084E-03
 cg2d: Sum(rhs),rhsMax =  -1.34034299150585E+00  2.81059306479564E-03
 cg2d: Sum(rhs),rhsMax =  -1.62624325343830E+00  2.74190561602301E-03
(PID.TID 0000.0001) %CHECKPOINT       100 ckptA
 --> objf_test(bi,bj)   =  0.509071992154904E-01
 --> objf_tracer(bi,bj) =  0.000000000000000E+00
 --> objf_atl(bi,bj)    =  0.000000000000000E+00
  local fc =  0.509071992154904E-01
 global fc =  0.509071992154904E-01
 ph-check fcpertplus =   0.0509071992
(PID.TID 0000.0001)  MDS_READ_FIELD: opening file: xx_depth.0000000000.001.001.data
 ph-check fcpertminus =   0.0509071982
(PID.TID 0000.0001)  MDS_READ_FIELD: opening file: xx_depth.0000000000.001.001.data
(PID.TID 0000.0001)  MDS_READ_FIELD: opening global file: noWalls.bigRidge
(PID.TID 0000.0001) // =======================================================
(PID.TID 0000.0001) // Field Model R_low (ini_masks_etc) at iteration          1
(PID.TID 0000.0001) // CMIN =         -5.000000000000000E+03
(PID.TID 0000.0001) // CMAX =         -2.000000000000000E+03
(PID.TID 0000.0001) // CINT =          1.111111111111111E+02
(PID.TID 0000.0001) // SYMBOLS (CMIN->CMAX): -abcdefghijklmnopqrstuvwxyz+
(PID.TID 0000.0001) //                  0.0: .
(PID.TID 0000.0001) // RANGE I (Lo:Hi:Step):(  -1:   7:   1)
(PID.TID 0000.0001) // RANGE J (Lo:Hi:Step):(   7:  -1:  -1)
(PID.TID 0000.0001) // RANGE K (Lo:Hi:Step):(   1:   1:   1)
(PID.TID 0000.0001) // =======================================================
(PID.TID 0000.0001) K =   1
(PID.TID 0000.0001) //
(PID.TID 0000.0001) // |--J--|101234567
(PID.TID 0000.0001) //      7 ----+----
(PID.TID 0000.0001) //      6 ----+----
(PID.TID 0000.0001) //      5 ----+----
(PID.TID 0000.0001) //      4 ----+----
(PID.TID 0000.0001) //      3 ----+----
(PID.TID 0000.0001) //      2 ----+----
(PID.TID 0000.0001) //      1 ----+----
(PID.TID 0000.0001) //      0 ----+----
(PID.TID 0000.0001) //     -1 ----+----
(PID.TID 0000.0001) // =======================================================
(PID.TID 0000.0001) // END OF FIELD                                          =
(PID.TID 0000.0001) // =======================================================
(PID.TID 0000.0001) 
(PID.TID 0000.0001) // =======================================================
(PID.TID 0000.0001) // Field Model Ro_surf (ini_masks_etc) at iteration          1
(PID.TID 0000.0001) // CMIN =          1.000000000000000E+32
(PID.TID 0000.0001) // CMAX =         -1.000000000000000E+32
(PID.TID 0000.0001) // CINT =          0.000000000000000E+00
(PID.TID 0000.0001) // SYMBOLS (CMIN->CMAX): -abcdefghijklmnopqrstuvwxyz+
(PID.TID 0000.0001) //                  0.0: .
(PID.TID 0000.0001) // RANGE I (Lo:Hi:Step):(  -1:   7:   1)
(PID.TID 0000.0001) // RANGE J (Lo:Hi:Step):(   7:  -1:  -1)
(PID.TID 0000.0001) // RANGE K (Lo:Hi:Step):(   1:   1:   1)
(PID.TID 0000.0001) // =======================================================
(PID.TID 0000.0001) // =======================================================
(PID.TID 0000.0001) // END OF FIELD                                          =
(PID.TID 0000.0001) // =======================================================
(PID.TID 0000.0001) 
(PID.TID 0000.0001) // =======================================================
(PID.TID 0000.0001) // Field hFacC at iteration          1
(PID.TID 0000.0001) // CMIN =          1.000000000000000E+00
(PID.TID 0000.0001) // CMAX =          1.000000000000000E+00
(PID.TID 0000.0001) // CINT =          0.000000000000000E+00
(PID.TID 0000.0001) // SYMBOLS (CMIN->CMAX): -abcdefghijklmnopqrstuvwxyz+
(PID.TID 0000.0001) //                  0.0: .
(PID.TID 0000.0001) // RANGE I (Lo:Hi:Step):(  -1:   7:   1)
(PID.TID 0000.0001) // RANGE J (Lo:Hi:Step):(   7:  -1:  -1)
(PID.TID 0000.0001) // RANGE K (Lo:Hi:Step):(   1:   1:   1)
(PID.TID 0000.0001) // =======================================================
(PID.TID 0000.0001) // =======================================================
(PID.TID 0000.0001) // END OF FIELD                                          =
(PID.TID 0000.0001) // =======================================================
(PID.TID 0000.0001) 
(PID.TID 0000.0001) // =======================================================
(PID.TID 0000.0001) // Field hFacW at iteration          1
(PID.TID 0000.0001) // CMIN =          1.000000000000000E+00
(PID.TID 0000.0001) // CMAX =          1.000000000000000E+00
(PID.TID 0000.0001) // CINT =          0.000000000000000E+00
(PID.TID 0000.0001) // SYMBOLS (CMIN->CMAX): -abcdefghijklmnopqrstuvwxyz+
(PID.TID 0000.0001) //                  0.0: .
(PID.TID 0000.0001) // RANGE I (Lo:Hi:Step):(  -1:   7:   1)
(PID.TID 0000.0001) // RANGE J (Lo:Hi:Step):(   7:  -1:  -1)
(PID.TID 0000.0001) // RANGE K (Lo:Hi:Step):(   1:   1:   1)
(PID.TID 0000.0001) // =======================================================
(PID.TID 0000.0001) // =======================================================
(PID.TID 0000.0001) // END OF FIELD                                          =
(PID.TID 0000.0001) // =======================================================
(PID.TID 0000.0001) 
(PID.TID 0000.0001) // =======================================================
(PID.TID 0000.0001) // Field hFacS at iteration          1
(PID.TID 0000.0001) // CMIN =          1.000000000000000E+00
(PID.TID 0000.0001) // CMAX =          1.000000000000000E+00
(PID.TID 0000.0001) // CINT =          0.000000000000000E+00
(PID.TID 0000.0001) // SYMBOLS (CMIN->CMAX): -abcdefghijklmnopqrstuvwxyz+
(PID.TID 0000.0001) //                  0.0: .
(PID.TID 0000.0001) // RANGE I (Lo:Hi:Step):(  -1:   7:   1)
(PID.TID 0000.0001) // RANGE J (Lo:Hi:Step):(   7:  -1:  -1)
(PID.TID 0000.0001) // RANGE K (Lo:Hi:Step):(   1:   1:   1)
(PID.TID 0000.0001) // =======================================================
(PID.TID 0000.0001) // =======================================================
(PID.TID 0000.0001) // END OF FIELD                                          =
(PID.TID 0000.0001) // =======================================================
(PID.TID 0000.0001) 
(PID.TID 0000.0001) %MON surfExpanfCori_max           =  -1.0735540000000E-04
(PID.TID 0000.0001) %MON surfExpanfCori_min           =  -1.1783060000000E-04
(PID.TID 0000.0001) %MON surfExpanfCori_mean          =  -1.1259300000000E-04
(PID.TID 0000.0001) %MON surfExpanfCori_sd            =   3.7035424771427E-06
(PID.TID 0000.0001) %MON surfExpanfCoriG_max          =  -1.0866480000000E-04
(PID.TID 0000.0001) %MON surfExpanfCoriG_min          =  -1.1914000000000E-04
(PID.TID 0000.0001) %MON surfExpanfCoriG_mean         =  -1.1390240000000E-04
(PID.TID 0000.0001) %MON surfExpanfCoriG_sd           =   3.7035424771427E-06
(PID.TID 0000.0001) %MON surfExpanfCoriCos_max        =   0.0000000000000E+00
(PID.TID 0000.0001) %MON surfExpanfCoriCos_min        =   0.0000000000000E+00
(PID.TID 0000.0001) %MON surfExpanfCoriCos_mean       =   0.0000000000000E+00
(PID.TID 0000.0001) %MON surfExpanfCoriCos_sd         =   0.0000000000000E+00
(PID.TID 0000.0001) INI_CG2D: CG2D normalisation factor =  1.9999999999999996E-04
(PID.TID 0000.0001) 
                     ctrl_depth_ini: ctrl update R_low,
                                     adding the control vector.
(PID.TID 0000.0001)  MDS_READ_FIELD: opening file: xx_depth.0000000000.001.001.data
(PID.TID 0000.0001) // =======================================================
(PID.TID 0000.0001) // Field Model Ro_surf (update_masks_etc) at iteration          1
(PID.TID 0000.0001) // CMIN =          1.000000000000000E+32
(PID.TID 0000.0001) // CMAX =         -1.000000000000000E+32
(PID.TID 0000.0001) // CINT =          0.000000000000000E+00
(PID.TID 0000.0001) // SYMBOLS (CMIN->CMAX): -abcdefghijklmnopqrstuvwxyz+
(PID.TID 0000.0001) //                  0.0: .
(PID.TID 0000.0001) // RANGE I (Lo:Hi:Step):(  -1:   7:   1)
(PID.TID 0000.0001) // RANGE J (Lo:Hi:Step):(   7:  -1:  -1)
(PID.TID 0000.0001) // RANGE K (Lo:Hi:Step):(   1:   1:   1)
(PID.TID 0000.0001) // =======================================================
(PID.TID 0000.0001) // =======================================================
(PID.TID 0000.0001) // END OF FIELD                                          =
(PID.TID 0000.0001) // =======================================================
(PID.TID 0000.0001) 
(PID.TID 0000.0001) // =======================================================
(PID.TID 0000.0001) // Field hFacC at iteration          1
(PID.TID 0000.0001) // CMIN =          1.000000000000000E+00
(PID.TID 0000.0001) // CMAX =          1.000000000000000E+00
(PID.TID 0000.0001) // CINT =          0.000000000000000E+00
(PID.TID 0000.0001) // SYMBOLS (CMIN->CMAX): -abcdefghijklmnopqrstuvwxyz+
(PID.TID 0000.0001) //                  0.0: .
(PID.TID 0000.0001) // RANGE I (Lo:Hi:Step):(  -1:   7:   1)
(PID.TID 0000.0001) // RANGE J (Lo:Hi:Step):(   7:  -1:  -1)
(PID.TID 0000.0001) // RANGE K (Lo:Hi:Step):(   1:   1:   1)
(PID.TID 0000.0001) // =======================================================
(PID.TID 0000.0001) // =======================================================
(PID.TID 0000.0001) // END OF FIELD                                          =
(PID.TID 0000.0001) // =======================================================
(PID.TID 0000.0001) 
(PID.TID 0000.0001) // =======================================================
(PID.TID 0000.0001) // Field hFacW at iteration          1
(PID.TID 0000.0001) // CMIN =          1.000000000000000E+00
(PID.TID 0000.0001) // CMAX =          1.000000000000000E+00
(PID.TID 0000.0001) // CINT =          0.000000000000000E+00
(PID.TID 0000.0001) // SYMBOLS (CMIN->CMAX): -abcdefghijklmnopqrstuvwxyz+
(PID.TID 0000.0001) //                  0.0: .
(PID.TID 0000.0001) // RANGE I (Lo:Hi:Step):(  -1:   7:   1)
(PID.TID 0000.0001) // RANGE J (Lo:Hi:Step):(   7:  -1:  -1)
(PID.TID 0000.0001) // RANGE K (Lo:Hi:Step):(   1:   1:   1)
(PID.TID 0000.0001) // =======================================================
(PID.TID 0000.0001) // =======================================================
(PID.TID 0000.0001) // END OF FIELD                                          =
(PID.TID 0000.0001) // =======================================================
(PID.TID 0000.0001) 
(PID.TID 0000.0001) // =======================================================
(PID.TID 0000.0001) // Field hFacS at iteration          1
(PID.TID 0000.0001) // CMIN =          1.000000000000000E+00
(PID.TID 0000.0001) // CMAX =          1.000000000000000E+00
(PID.TID 0000.0001) // CINT =          0.000000000000000E+00
(PID.TID 0000.0001) // SYMBOLS (CMIN->CMAX): -abcdefghijklmnopqrstuvwxyz+
(PID.TID 0000.0001) //                  0.0: .
(PID.TID 0000.0001) // RANGE I (Lo:Hi:Step):(  -1:   7:   1)
(PID.TID 0000.0001) // RANGE J (Lo:Hi:Step):(   7:  -1:  -1)
(PID.TID 0000.0001) // RANGE K (Lo:Hi:Step):(   1:   1:   1)
(PID.TID 0000.0001) // =======================================================
(PID.TID 0000.0001) // =======================================================
(PID.TID 0000.0001) // END OF FIELD                                          =
(PID.TID 0000.0001) // =======================================================
(PID.TID 0000.0001) 
(PID.TID 0000.0001) // =======================================================
(PID.TID 0000.0001) // Field Initial Temperature at iteration          1
(PID.TID 0000.0001) // CMIN =          4.000000000000000E+00
(PID.TID 0000.0001) // CMAX =          4.000000000000000E+00
(PID.TID 0000.0001) // CINT =          0.000000000000000E+00
(PID.TID 0000.0001) // SYMBOLS (CMIN->CMAX): -abcdefghijklmnopqrstuvwxyz+
(PID.TID 0000.0001) //                  0.0: .
(PID.TID 0000.0001) // RANGE I (Lo:Hi:Step):(   1:   5:   1)
(PID.TID 0000.0001) // RANGE J (Lo:Hi:Step):(   5:   1:  -1)
(PID.TID 0000.0001) // RANGE K (Lo:Hi:Step):(   1:   1:   1)
(PID.TID 0000.0001) // =======================================================
(PID.TID 0000.0001) // =======================================================
(PID.TID 0000.0001) // END OF FIELD                                          =
(PID.TID 0000.0001) // =======================================================
(PID.TID 0000.0001) 
(PID.TID 0000.0001) // =======================================================
(PID.TID 0000.0001) // Field Initial Salinity at iteration          1
(PID.TID 0000.0001) // CMIN =          3.500000000000000E+01
(PID.TID 0000.0001) // CMAX =          3.500000000000000E+01
(PID.TID 0000.0001) // CINT =          0.000000000000000E+00
(PID.TID 0000.0001) // SYMBOLS (CMIN->CMAX): -abcdefghijklmnopqrstuvwxyz+
(PID.TID 0000.0001) //                  0.0: .
(PID.TID 0000.0001) // RANGE I (Lo:Hi:Step):(   1:   5:   1)
(PID.TID 0000.0001) // RANGE J (Lo:Hi:Step):(   5:   1:  -1)
(PID.TID 0000.0001) // RANGE K (Lo:Hi:Step):(   1:   1:   1)
(PID.TID 0000.0001) // =======================================================
(PID.TID 0000.0001) // =======================================================
(PID.TID 0000.0001) // END OF FIELD                                          =
(PID.TID 0000.0001) // =======================================================
(PID.TID 0000.0001) 
(PID.TID 0000.0001) Start initial hydrostatic pressure computation
(PID.TID 0000.0001) Pressure is predetermined for buoyancyRelation OCEANIC
(PID.TID 0000.0001) 
(PID.TID 0000.0001)  MDS_READ_FIELD: opening global file: windx.sin_y
(PID.TID 0000.0001) // =======================================================
(PID.TID 0000.0001) // Model current state
(PID.TID 0000.0001) // =======================================================
(PID.TID 0000.0001) 
 cg2d: Sum(rhs),rhsMax =   0.00000000000000E+00  0.00000000000000E+00
 cg2d: Sum(rhs),rhsMax =  -2.49999999999996E+01  6.03492218443698E-05
 cg2d: Sum(rhs),rhsMax =  -1.81034404639062E+01  2.18766023587219E-04
 cg2d: Sum(rhs),rhsMax =  -1.54955562836290E+01  4.32479836285885E-04
 cg2d: Sum(rhs),rhsMax =  -1.41111452386476E+01  6.49958988063308E-04
 cg2d: Sum(rhs),rhsMax =  -1.31144322403063E+01  8.30737102388835E-04
 cg2d: Sum(rhs),rhsMax =  -1.21209090388357E+01  9.52510661483182E-04
 cg2d: Sum(rhs),rhsMax =  -1.07124742347556E+01  1.02806631188808E-03
 cg2d: Sum(rhs),rhsMax =  -7.41375937825911E+00  1.27086596139023E-03
 cg2d: Sum(rhs),rhsMax =  -4.70217534581743E+00  1.51019013739229E-03
 cg2d: Sum(rhs),rhsMax =  -2.72440686868721E+00  1.65833737751538E-03
 cg2d: Sum(rhs),rhsMax =  -1.27958669665616E+00  1.70565508038042E-03
 cg2d: Sum(rhs),rhsMax =  -3.29564701508081E-01  1.66071959594888E-03
 cg2d: Sum(rhs),rhsMax =   5.21320406159600E-02  1.54812754939591E-03
 cg2d: Sum(rhs),rhsMax =  -2.86625377901407E-01  1.40338814728364E-03
 cg2d: Sum(rhs),rhsMax =  -1.30315843270149E+00  1.44268599903131E-03
 cg2d: Sum(rhs),rhsMax =  -2.68067689811611E+00  1.50836886976136E-03
 cg2d: Sum(rhs),rhsMax =  -4.07407452233813E+00  1.58424367414047E-03
 cg2d: Sum(rhs),rhsMax =  -5.18272346092000E+00  1.66593593541160E-03
 cg2d: Sum(rhs),rhsMax =  -5.80990595732545E+00  1.74846176206358E-03
 cg2d: Sum(rhs),rhsMax =  -5.87740624657297E+00  1.82725972193585E-03
 cg2d: Sum(rhs),rhsMax =  -5.41358308510659E+00  1.89900435809052E-03
 cg2d: Sum(rhs),rhsMax =  -4.53080674356763E+00  1.96213935768138E-03
 cg2d: Sum(rhs),rhsMax =  -3.22587901016959E+00  2.12611201618201E-03
 cg2d: Sum(rhs),rhsMax =  -2.04447213582296E+00  2.24837952534568E-03
 cg2d: Sum(rhs),rhsMax =  -1.10818138643313E+00  2.30404047627579E-03
 cg2d: Sum(rhs),rhsMax =  -4.90484891455713E-01  2.29576530516759E-03
 cg2d: Sum(rhs),rhsMax =  -2.61247074590174E-01  2.23814839915849E-03
 cg2d: Sum(rhs),rhsMax =  -4.50921974474416E-01  2.26266908509875E-03
 cg2d: Sum(rhs),rhsMax =  -1.00469610869970E+00  2.31946124719065E-03
 cg2d: Sum(rhs),rhsMax =  -1.78565331077780E+00  2.37599943421050E-03
 cg2d: Sum(rhs),rhsMax =  -2.62429307753381E+00  2.42805545445272E-03
 cg2d: Sum(rhs),rhsMax =  -3.35748484840350E+00  2.47123047289798E-03
 cg2d: Sum(rhs),rhsMax =  -3.85508915303800E+00  2.50195600823269E-03
 cg2d: Sum(rhs),rhsMax =  -4.03589975235988E+00  2.51830325262197E-03
 cg2d: Sum(rhs),rhsMax =  -3.87512845135119E+00  2.52047522038131E-03
 cg2d: Sum(rhs),rhsMax =  -3.40600366161489E+00  2.51092924906146E-03
 cg2d: Sum(rhs),rhsMax =  -2.61682446139572E+00  2.58874086318309E-03
 cg2d: Sum(rhs),rhsMax =  -1.83238714800999E+00  2.61669728951156E-03
 cg2d: Sum(rhs),rhsMax =  -1.17513340718473E+00  2.56005945224477E-03
 cg2d: Sum(rhs),rhsMax =  -7.11994647597799E-01  2.47855828079816E-03
 cg2d: Sum(rhs),rhsMax =  -5.26422169184021E-01  2.47042096216207E-03
 cg2d: Sum(rhs),rhsMax =  -6.78930232492239E-01  2.49676874056186E-03
 cg2d: Sum(rhs),rhsMax =  -1.12673723400288E+00  2.53652615252665E-03
 cg2d: Sum(rhs),rhsMax =  -1.75981626069464E+00  2.58504767741034E-03
 cg2d: Sum(rhs),rhsMax =  -2.43940635695358E+00  2.63568094265751E-03
 cg2d: Sum(rhs),rhsMax =  -3.03203008595279E+00  2.68092817957866E-03
 cg2d: Sum(rhs),rhsMax =  -3.40991310327487E+00  2.73286308240395E-03
 cg2d: Sum(rhs),rhsMax =  -3.48046021648662E+00  2.80943926864760E-03
 cg2d: Sum(rhs),rhsMax =  -3.32063071742121E+00  2.84054013309961E-03
 cg2d: Sum(rhs),rhsMax =  -2.96079446786584E+00  2.82589062401706E-03
 cg2d: Sum(rhs),rhsMax =  -2.32992815314559E+00  2.92147974733726E-03
 cg2d: Sum(rhs),rhsMax =  -1.72242460367671E+00  2.94384962928075E-03
 cg2d: Sum(rhs),rhsMax =  -1.21221907937221E+00  2.89157779963595E-03
 cg2d: Sum(rhs),rhsMax =  -8.69698439955196E-01  2.78046457642927E-03
 cg2d: Sum(rhs),rhsMax =  -7.64867854433075E-01  2.63730950325021E-03
 cg2d: Sum(rhs),rhsMax =  -9.31747882780741E-01  2.54529708293485E-03
 cg2d: Sum(rhs),rhsMax =  -1.31074341581473E+00  2.59464773653842E-03
 cg2d: Sum(rhs),rhsMax =  -1.82960844949975E+00  2.67470093419037E-03
 cg2d: Sum(rhs),rhsMax =  -2.36415410046083E+00  2.77096217578096E-03
 cg2d: Sum(rhs),rhsMax =  -2.80794779527569E+00  2.86583711628498E-03
 cg2d: Sum(rhs),rhsMax =  -3.09076537509823E+00  2.94225359847531E-03
 cg2d: Sum(rhs),rhsMax =  -3.17911023269034E+00  2.98708412835608E-03
 cg2d: Sum(rhs),rhsMax =  -3.06968980346788E+00  2.99369707818867E-03
 cg2d: Sum(rhs),rhsMax =  -2.74200036331507E+00  3.00868116635473E-03
 cg2d: Sum(rhs),rhsMax =  -2.22987024087989E+00  3.08320497182405E-03
 cg2d: Sum(rhs),rhsMax =  -1.72892390070136E+00  3.09216603336486E-03
 cg2d: Sum(rhs),rhsMax =  -1.30661132272351E+00  3.03707925026527E-03
 cg2d: Sum(rhs),rhsMax =  -1.02724594098638E+00  2.93201255763762E-03
 cg2d: Sum(rhs),rhsMax =  -9.49612152240901E-01  2.80059569632444E-03
 cg2d: Sum(rhs),rhsMax =  -1.10546686405330E+00  2.68802018660238E-03
 cg2d: Sum(rhs),rhsMax =  -1.41911850012817E+00  2.73183510743045E-03
 cg2d: Sum(rhs),rhsMax =  -1.85263655465872E+00  2.80075131008470E-03
 cg2d: Sum(rhs),rhsMax =  -2.30607107379841E+00  2.88121991447495E-03
 cg2d: Sum(rhs),rhsMax =  -2.69038334268384E+00  2.95745905815993E-03
 cg2d: Sum(rhs),rhsMax =  -2.94313285687823E+00  3.01465316967450E-03
 cg2d: Sum(rhs),rhsMax =  -3.03123924338593E+00  3.04190033294296E-03
 cg2d: Sum(rhs),rhsMax =  -2.94785322877178E+00  3.03433147658773E-03
 cg2d: Sum(rhs),rhsMax =  -2.61356662223568E+00  3.10365979369682E-03
 cg2d: Sum(rhs),rhsMax =  -2.18161324337661E+00  3.16115506326369E-03
 cg2d: Sum(rhs),rhsMax =  -1.75526130736309E+00  3.15966314852645E-03
 cg2d: Sum(rhs),rhsMax =  -1.39603750502999E+00  3.10114913683547E-03
 cg2d: Sum(rhs),rhsMax =  -1.16177147413046E+00  2.99876547012553E-03
 cg2d: Sum(rhs),rhsMax =  -1.10293754872855E+00  2.87411084888409E-03
 cg2d: Sum(rhs),rhsMax =  -1.24975142157361E+00  2.75286356198310E-03
 cg2d: Sum(rhs),rhsMax =  -1.53840873612788E+00  2.75098224006606E-03
 cg2d: Sum(rhs),rhsMax =  -1.91301876153920E+00  2.81271676589735E-03
 cg2d: Sum(rhs),rhsMax =  -2.30705943400755E+00  2.88449388724753E-03
 cg2d: Sum(rhs),rhsMax =  -2.64297555473148E+00  2.95188733226214E-03
 cg2d: Sum(rhs),rhsMax =  -2.86495131289788E+00  3.00154126376505E-03
 cg2d: Sum(rhs),rhsMax =  -2.94238810315719E+00  3.02377934055167E-03
 cg2d: Sum(rhs),rhsMax =  -2.84207320142245E+00  3.04217208528995E-03
 cg2d: Sum(rhs),rhsMax =  -2.51902182639483E+00  3.13830806893723E-03
 cg2d: Sum(rhs),rhsMax =  -2.14123737033419E+00  3.18959325474440E-03
 cg2d: Sum(rhs),rhsMax =  -1.76835925871719E+00  3.18714934523291E-03
 cg2d: Sum(rhs),rhsMax =  -1.45590356694911E+00  3.13272231537334E-03
 cg2d: Sum(rhs),rhsMax =  -1.25508078096753E+00  3.03818419756909E-03
 cg2d: Sum(rhs),rhsMax =  -1.20874911416688E+00  2.92305994703437E-03
 cg2d: Sum(rhs),rhsMax =  -1.34034318324630E+00  2.81059309075619E-03
 cg2d: Sum(rhs),rhsMax =  -1.62624334547690E+00  2.74190581559206E-03
(PID.TID 0000.0001) %CHECKPOINT       100 ckptB
 --> objf_test(bi,bj)   =  0.509071971968127E-01
 --> objf_tracer(bi,bj) =  0.000000000000000E+00
 --> objf_atl(bi,bj)    =  0.000000000000000E+00
  local fc =  0.509071971968127E-01
 global fc =  0.509071971968127E-01
(PID.TID 0000.0001)  MDS_READ_FIELD: opening file: xx_depth.0000000000.001.001.data
grad-res -------------------------------
 grad-res     0   23    3    5    1    1    1    1   0.509071982062E-01 0.509071992155E-01 0.509071971968E-01
 grad-res     0   23   23   23   25    1    1    1   0.100921756447E-04 0.100933886249E-04 -.120190156248E-03
(PID.TID 0000.0001)   ADM  precision_derivative_cost =    5.09071982061515E-02
(PID.TID 0000.0001)   ADM  precision_derivative_grad =    1.00921756447312E-05
 ph-grd  ierr ---------------------------
 ph-grd  ierr =  0, icomp =  23, ichknum =  23
 ph-grd -->hit<--  4 5 1 1
(PID.TID 0000.0001)  MDS_READ_FIELD: opening file: adxx_depth.0000000000.001.001.data
(PID.TID 0000.0001)  MDS_READ_FIELD: opening file: xx_depth.0000000000.001.001.data
(PID.TID 0000.0001)  MDS_READ_FIELD: opening global file: noWalls.bigRidge
(PID.TID 0000.0001) // =======================================================
(PID.TID 0000.0001) // Field Model R_low (ini_masks_etc) at iteration          1
(PID.TID 0000.0001) // CMIN =         -5.000000000000000E+03
(PID.TID 0000.0001) // CMAX =         -2.000000000000000E+03
(PID.TID 0000.0001) // CINT =          1.111111111111111E+02
(PID.TID 0000.0001) // SYMBOLS (CMIN->CMAX): -abcdefghijklmnopqrstuvwxyz+
(PID.TID 0000.0001) //                  0.0: .
(PID.TID 0000.0001) // RANGE I (Lo:Hi:Step):(  -1:   7:   1)
(PID.TID 0000.0001) // RANGE J (Lo:Hi:Step):(   7:  -1:  -1)
(PID.TID 0000.0001) // RANGE K (Lo:Hi:Step):(   1:   1:   1)
(PID.TID 0000.0001) // =======================================================
(PID.TID 0000.0001) K =   1
(PID.TID 0000.0001) //
(PID.TID 0000.0001) // |--J--|101234567
(PID.TID 0000.0001) //      7 ----+----
(PID.TID 0000.0001) //      6 ----+----
(PID.TID 0000.0001) //      5 ----+----
(PID.TID 0000.0001) //      4 ----+----
(PID.TID 0000.0001) //      3 ----+----
(PID.TID 0000.0001) //      2 ----+----
(PID.TID 0000.0001) //      1 ----+----
(PID.TID 0000.0001) //      0 ----+----
(PID.TID 0000.0001) //     -1 ----+----
(PID.TID 0000.0001) // =======================================================
(PID.TID 0000.0001) // END OF FIELD                                          =
(PID.TID 0000.0001) // =======================================================
(PID.TID 0000.0001) 
(PID.TID 0000.0001) // =======================================================
(PID.TID 0000.0001) // Field Model Ro_surf (ini_masks_etc) at iteration          1
(PID.TID 0000.0001) // CMIN =          1.000000000000000E+32
(PID.TID 0000.0001) // CMAX =         -1.000000000000000E+32
(PID.TID 0000.0001) // CINT =          0.000000000000000E+00
(PID.TID 0000.0001) // SYMBOLS (CMIN->CMAX): -abcdefghijklmnopqrstuvwxyz+
(PID.TID 0000.0001) //                  0.0: .
(PID.TID 0000.0001) // RANGE I (Lo:Hi:Step):(  -1:   7:   1)
(PID.TID 0000.0001) // RANGE J (Lo:Hi:Step):(   7:  -1:  -1)
(PID.TID 0000.0001) // RANGE K (Lo:Hi:Step):(   1:   1:   1)
(PID.TID 0000.0001) // =======================================================
(PID.TID 0000.0001) // =======================================================
(PID.TID 0000.0001) // END OF FIELD                                          =
(PID.TID 0000.0001) // =======================================================
(PID.TID 0000.0001) 
(PID.TID 0000.0001) // =======================================================
(PID.TID 0000.0001) // Field hFacC at iteration          1
(PID.TID 0000.0001) // CMIN =          1.000000000000000E+00
(PID.TID 0000.0001) // CMAX =          1.000000000000000E+00
(PID.TID 0000.0001) // CINT =          0.000000000000000E+00
(PID.TID 0000.0001) // SYMBOLS (CMIN->CMAX): -abcdefghijklmnopqrstuvwxyz+
(PID.TID 0000.0001) //                  0.0: .
(PID.TID 0000.0001) // RANGE I (Lo:Hi:Step):(  -1:   7:   1)
(PID.TID 0000.0001) // RANGE J (Lo:Hi:Step):(   7:  -1:  -1)
(PID.TID 0000.0001) // RANGE K (Lo:Hi:Step):(   1:   1:   1)
(PID.TID 0000.0001) // =======================================================
(PID.TID 0000.0001) // =======================================================
(PID.TID 0000.0001) // END OF FIELD                                          =
(PID.TID 0000.0001) // =======================================================
(PID.TID 0000.0001) 
(PID.TID 0000.0001) // =======================================================
(PID.TID 0000.0001) // Field hFacW at iteration          1
(PID.TID 0000.0001) // CMIN =          1.000000000000000E+00
(PID.TID 0000.0001) // CMAX =          1.000000000000000E+00
(PID.TID 0000.0001) // CINT =          0.000000000000000E+00
(PID.TID 0000.0001) // SYMBOLS (CMIN->CMAX): -abcdefghijklmnopqrstuvwxyz+
(PID.TID 0000.0001) //                  0.0: .
(PID.TID 0000.0001) // RANGE I (Lo:Hi:Step):(  -1:   7:   1)
(PID.TID 0000.0001) // RANGE J (Lo:Hi:Step):(   7:  -1:  -1)
(PID.TID 0000.0001) // RANGE K (Lo:Hi:Step):(   1:   1:   1)
(PID.TID 0000.0001) // =======================================================
(PID.TID 0000.0001) // =======================================================
(PID.TID 0000.0001) // END OF FIELD                                          =
(PID.TID 0000.0001) // =======================================================
(PID.TID 0000.0001) 
(PID.TID 0000.0001) // =======================================================
(PID.TID 0000.0001) // Field hFacS at iteration          1
(PID.TID 0000.0001) // CMIN =          1.000000000000000E+00
(PID.TID 0000.0001) // CMAX =          1.000000000000000E+00
(PID.TID 0000.0001) // CINT =          0.000000000000000E+00
(PID.TID 0000.0001) // SYMBOLS (CMIN->CMAX): -abcdefghijklmnopqrstuvwxyz+
(PID.TID 0000.0001) //                  0.0: .
(PID.TID 0000.0001) // RANGE I (Lo:Hi:Step):(  -1:   7:   1)
(PID.TID 0000.0001) // RANGE J (Lo:Hi:Step):(   7:  -1:  -1)
(PID.TID 0000.0001) // RANGE K (Lo:Hi:Step):(   1:   1:   1)
(PID.TID 0000.0001) // =======================================================
(PID.TID 0000.0001) // =======================================================
(PID.TID 0000.0001) // END OF FIELD                                          =
(PID.TID 0000.0001) // =======================================================
(PID.TID 0000.0001) 
(PID.TID 0000.0001) %MON surfExpanfCori_max           =  -1.0735540000000E-04
(PID.TID 0000.0001) %MON surfExpanfCori_min           =  -1.1783060000000E-04
(PID.TID 0000.0001) %MON surfExpanfCori_mean          =  -1.1259300000000E-04
(PID.TID 0000.0001) %MON surfExpanfCori_sd            =   3.7035424771427E-06
(PID.TID 0000.0001) %MON surfExpanfCoriG_max          =  -1.0866480000000E-04
(PID.TID 0000.0001) %MON surfExpanfCoriG_min          =  -1.1914000000000E-04
(PID.TID 0000.0001) %MON surfExpanfCoriG_mean         =  -1.1390240000000E-04
(PID.TID 0000.0001) %MON surfExpanfCoriG_sd           =   3.7035424771427E-06
(PID.TID 0000.0001) %MON surfExpanfCoriCos_max        =   0.0000000000000E+00
(PID.TID 0000.0001) %MON surfExpanfCoriCos_min        =   0.0000000000000E+00
(PID.TID 0000.0001) %MON surfExpanfCoriCos_mean       =   0.0000000000000E+00
(PID.TID 0000.0001) %MON surfExpanfCoriCos_sd         =   0.0000000000000E+00
(PID.TID 0000.0001) INI_CG2D: CG2D normalisation factor =  1.9999999999999996E-04
(PID.TID 0000.0001) 
                     ctrl_depth_ini: ctrl update R_low,
                                     adding the control vector.
(PID.TID 0000.0001)  MDS_READ_FIELD: opening file: xx_depth.0000000000.001.001.data
(PID.TID 0000.0001) // =======================================================
(PID.TID 0000.0001) // Field Model Ro_surf (update_masks_etc) at iteration          1
(PID.TID 0000.0001) // CMIN =          1.000000000000000E+32
(PID.TID 0000.0001) // CMAX =         -1.000000000000000E+32
(PID.TID 0000.0001) // CINT =          0.000000000000000E+00
(PID.TID 0000.0001) // SYMBOLS (CMIN->CMAX): -abcdefghijklmnopqrstuvwxyz+
(PID.TID 0000.0001) //                  0.0: .
(PID.TID 0000.0001) // RANGE I (Lo:Hi:Step):(  -1:   7:   1)
(PID.TID 0000.0001) // RANGE J (Lo:Hi:Step):(   7:  -1:  -1)
(PID.TID 0000.0001) // RANGE K (Lo:Hi:Step):(   1:   1:   1)
(PID.TID 0000.0001) // =======================================================
(PID.TID 0000.0001) // =======================================================
(PID.TID 0000.0001) // END OF FIELD                                          =
(PID.TID 0000.0001) // =======================================================
(PID.TID 0000.0001) 
(PID.TID 0000.0001) // =======================================================
(PID.TID 0000.0001) // Field hFacC at iteration          1
(PID.TID 0000.0001) // CMIN =          1.000000000000000E+00
(PID.TID 0000.0001) // CMAX =          1.000000000000000E+00
(PID.TID 0000.0001) // CINT =          0.000000000000000E+00
(PID.TID 0000.0001) // SYMBOLS (CMIN->CMAX): -abcdefghijklmnopqrstuvwxyz+
(PID.TID 0000.0001) //                  0.0: .
(PID.TID 0000.0001) // RANGE I (Lo:Hi:Step):(  -1:   7:   1)
(PID.TID 0000.0001) // RANGE J (Lo:Hi:Step):(   7:  -1:  -1)
(PID.TID 0000.0001) // RANGE K (Lo:Hi:Step):(   1:   1:   1)
(PID.TID 0000.0001) // =======================================================
(PID.TID 0000.0001) // =======================================================
(PID.TID 0000.0001) // END OF FIELD                                          =
(PID.TID 0000.0001) // =======================================================
(PID.TID 0000.0001) 
(PID.TID 0000.0001) // =======================================================
(PID.TID 0000.0001) // Field hFacW at iteration          1
(PID.TID 0000.0001) // CMIN =          1.000000000000000E+00
(PID.TID 0000.0001) // CMAX =          1.000000000000000E+00
(PID.TID 0000.0001) // CINT =          0.000000000000000E+00
(PID.TID 0000.0001) // SYMBOLS (CMIN->CMAX): -abcdefghijklmnopqrstuvwxyz+
(PID.TID 0000.0001) //                  0.0: .
(PID.TID 0000.0001) // RANGE I (Lo:Hi:Step):(  -1:   7:   1)
(PID.TID 0000.0001) // RANGE J (Lo:Hi:Step):(   7:  -1:  -1)
(PID.TID 0000.0001) // RANGE K (Lo:Hi:Step):(   1:   1:   1)
(PID.TID 0000.0001) // =======================================================
(PID.TID 0000.0001) // =======================================================
(PID.TID 0000.0001) // END OF FIELD                                          =
(PID.TID 0000.0001) // =======================================================
(PID.TID 0000.0001) 
(PID.TID 0000.0001) // =======================================================
(PID.TID 0000.0001) // Field hFacS at iteration          1
(PID.TID 0000.0001) // CMIN =          1.000000000000000E+00
(PID.TID 0000.0001) // CMAX =          1.000000000000000E+00
(PID.TID 0000.0001) // CINT =          0.000000000000000E+00
(PID.TID 0000.0001) // SYMBOLS (CMIN->CMAX): -abcdefghijklmnopqrstuvwxyz+
(PID.TID 0000.0001) //                  0.0: .
(PID.TID 0000.0001) // RANGE I (Lo:Hi:Step):(  -1:   7:   1)
(PID.TID 0000.0001) // RANGE J (Lo:Hi:Step):(   7:  -1:  -1)
(PID.TID 0000.0001) // RANGE K (Lo:Hi:Step):(   1:   1:   1)
(PID.TID 0000.0001) // =======================================================
(PID.TID 0000.0001) // =======================================================
(PID.TID 0000.0001) // END OF FIELD                                          =
(PID.TID 0000.0001) // =======================================================
(PID.TID 0000.0001) 
(PID.TID 0000.0001) // =======================================================
(PID.TID 0000.0001) // Field Initial Temperature at iteration          1
(PID.TID 0000.0001) // CMIN =          4.000000000000000E+00
(PID.TID 0000.0001) // CMAX =          4.000000000000000E+00
(PID.TID 0000.0001) // CINT =          0.000000000000000E+00
(PID.TID 0000.0001) // SYMBOLS (CMIN->CMAX): -abcdefghijklmnopqrstuvwxyz+
(PID.TID 0000.0001) //                  0.0: .
(PID.TID 0000.0001) // RANGE I (Lo:Hi:Step):(   1:   5:   1)
(PID.TID 0000.0001) // RANGE J (Lo:Hi:Step):(   5:   1:  -1)
(PID.TID 0000.0001) // RANGE K (Lo:Hi:Step):(   1:   1:   1)
(PID.TID 0000.0001) // =======================================================
(PID.TID 0000.0001) // =======================================================
(PID.TID 0000.0001) // END OF FIELD                                          =
(PID.TID 0000.0001) // =======================================================
(PID.TID 0000.0001) 
(PID.TID 0000.0001) // =======================================================
(PID.TID 0000.0001) // Field Initial Salinity at iteration          1
(PID.TID 0000.0001) // CMIN =          3.500000000000000E+01
(PID.TID 0000.0001) // CMAX =          3.500000000000000E+01
(PID.TID 0000.0001) // CINT =          0.000000000000000E+00
(PID.TID 0000.0001) // SYMBOLS (CMIN->CMAX): -abcdefghijklmnopqrstuvwxyz+
(PID.TID 0000.0001) //                  0.0: .
(PID.TID 0000.0001) // RANGE I (Lo:Hi:Step):(   1:   5:   1)
(PID.TID 0000.0001) // RANGE J (Lo:Hi:Step):(   5:   1:  -1)
(PID.TID 0000.0001) // RANGE K (Lo:Hi:Step):(   1:   1:   1)
(PID.TID 0000.0001) // =======================================================
(PID.TID 0000.0001) // =======================================================
(PID.TID 0000.0001) // END OF FIELD                                          =
(PID.TID 0000.0001) // =======================================================
(PID.TID 0000.0001) 
(PID.TID 0000.0001) Start initial hydrostatic pressure computation
(PID.TID 0000.0001) Pressure is predetermined for buoyancyRelation OCEANIC
(PID.TID 0000.0001) 
(PID.TID 0000.0001)  MDS_READ_FIELD: opening global file: windx.sin_y
(PID.TID 0000.0001) // =======================================================
(PID.TID 0000.0001) // Model current state
(PID.TID 0000.0001) // =======================================================
(PID.TID 0000.0001) 
 cg2d: Sum(rhs),rhsMax =   0.00000000000000E+00  0.00000000000000E+00
 cg2d: Sum(rhs),rhsMax =  -2.49999999999996E+01  6.03492218443698E-05
 cg2d: Sum(rhs),rhsMax =  -1.81034404639062E+01  2.18766023587219E-04
 cg2d: Sum(rhs),rhsMax =  -1.54955562832454E+01  4.32479836297446E-04
 cg2d: Sum(rhs),rhsMax =  -1.41111452325859E+01  6.49958988340588E-04
 cg2d: Sum(rhs),rhsMax =  -1.31144322326575E+01  8.30737102864019E-04
 cg2d: Sum(rhs),rhsMax =  -1.21209090323463E+01  9.52510661971045E-04
 cg2d: Sum(rhs),rhsMax =  -1.07124742416396E+01  1.02806631118471E-03
 cg2d: Sum(rhs),rhsMax =  -7.41375936448869E+00  1.27086596365914E-03
 cg2d: Sum(rhs),rhsMax =  -4.70217533173389E+00  1.51019014171978E-03
 cg2d: Sum(rhs),rhsMax =  -2.72440685644984E+00  1.65833738453307E-03
 cg2d: Sum(rhs),rhsMax =  -1.27958668818429E+00  1.70565509054182E-03
 cg2d: Sum(rhs),rhsMax =  -3.29564697775837E-01  1.66071960942156E-03
 cg2d: Sum(rhs),rhsMax =   5.21320414371899E-02  1.54812756601820E-03
 cg2d: Sum(rhs),rhsMax =  -2.86625372088319E-01  1.40338816657242E-03
 cg2d: Sum(rhs),rhsMax =  -1.30315842705982E+00  1.44268600276069E-03
 cg2d: Sum(rhs),rhsMax =  -2.68067688963724E+00  1.50836887299084E-03
 cg2d: Sum(rhs),rhsMax =  -4.07407451462093E+00  1.58424367585904E-03
 cg2d: Sum(rhs),rhsMax =  -5.18272345910766E+00  1.66593593472476E-03
 cg2d: Sum(rhs),rhsMax =  -5.80990596485851E+00  1.74846175838453E-03
 cg2d: Sum(rhs),rhsMax =  -5.87740626296605E+00  1.82725971512229E-03
 cg2d: Sum(rhs),rhsMax =  -5.41358310602184E+00  1.89900434849551E-03
 cg2d: Sum(rhs),rhsMax =  -4.53080676286896E+00  1.96213934610445E-03
 cg2d: Sum(rhs),rhsMax =  -3.22587896484196E+00  2.12611204074474E-03
 cg2d: Sum(rhs),rhsMax =  -2.04447210161845E+00  2.24837955324306E-03
 cg2d: Sum(rhs),rhsMax =  -1.10818136106318E+00  2.30404050847391E-03
 cg2d: Sum(rhs),rhsMax =  -4.90484872272927E-01  2.29576534227002E-03
 cg2d: Sum(rhs),rhsMax =  -2.61247056679342E-01  2.23814844128747E-03
 cg2d: Sum(rhs),rhsMax =  -4.50921960941153E-01  2.26266908092897E-03
 cg2d: Sum(rhs),rhsMax =  -1.00469609440153E+00  2.31946124425549E-03
 cg2d: Sum(rhs),rhsMax =  -1.78565329614423E+00  2.37599943132402E-03
 cg2d: Sum(rhs),rhsMax =  -2.62429306395159E+00  2.42805545027671E-03
 cg2d: Sum(rhs),rhsMax =  -3.35748483803599E+00  2.47123046618667E-03
 cg2d: Sum(rhs),rhsMax =  -3.85508914769838E+00  2.50195599806221E-03
 cg2d: Sum(rhs),rhsMax =  -4.03589975219301E+00  2.51830323855994E-03
 cg2d: Sum(rhs),rhsMax =  -3.87512845416005E+00  2.52047520256379E-03
 cg2d: Sum(rhs),rhsMax =  -3.40600366330290E+00  2.51092922816265E-03
 cg2d: Sum(rhs),rhsMax =  -2.61682445193309E+00  2.58874084498887E-03
 cg2d: Sum(rhs),rhsMax =  -1.83238713222316E+00  2.61669726978111E-03
 cg2d: Sum(rhs),rhsMax =  -1.17513338462270E+00  2.56005943075464E-03
 cg2d: Sum(rhs),rhsMax =  -7.11994596059835E-01  2.47855833554824E-03
 cg2d: Sum(rhs),rhsMax =  -5.26422134992154E-01  2.47042094275451E-03
 cg2d: Sum(rhs),rhsMax =  -6.78930196815070E-01  2.49676872333864E-03
 cg2d: Sum(rhs),rhsMax =  -1.12673719869711E+00  2.53652613706083E-03
 cg2d: Sum(rhs),rhsMax =  -1.75981622676530E+00  2.58504766288898E-03
 cg2d: Sum(rhs),rhsMax =  -2.43940632509894E+00  2.63568092805959E-03
 cg2d: Sum(rhs),rhsMax =  -3.03203005675980E+00  2.68092816388700E-03
 cg2d: Sum(rhs),rhsMax =  -3.40991315676934E+00  2.73286300080897E-03
 cg2d: Sum(rhs),rhsMax =  -3.48046027214998E+00  2.80943918402824E-03
 cg2d: Sum(rhs),rhsMax =  -3.32063076912481E+00  2.84054004547186E-03
 cg2d: Sum(rhs),rhsMax =  -2.96079450969610E+00  2.82589053343092E-03
 cg2d: Sum(rhs),rhsMax =  -2.32992813747493E+00  2.92147970010761E-03
 cg2d: Sum(rhs),rhsMax =  -1.72242457768779E+00  2.94384957986055E-03
 cg2d: Sum(rhs),rhsMax =  -1.21221904315287E+00  2.89157774788472E-03
 cg2d: Sum(rhs),rhsMax =  -8.69698394567355E-01  2.78046452220101E-03
 cg2d: Sum(rhs),rhsMax =  -7.64867802917995E-01  2.63730944641603E-03
 cg2d: Sum(rhs),rhsMax =  -9.31747848975989E-01  2.54529697634399E-03
 cg2d: Sum(rhs),rhsMax =  -1.31074339715593E+00  2.59464762745360E-03
 cg2d: Sum(rhs),rhsMax =  -1.82960845204895E+00  2.67470082259008E-03
 cg2d: Sum(rhs),rhsMax =  -2.36415412453399E+00  2.77096206162289E-03
 cg2d: Sum(rhs),rhsMax =  -2.80794783684577E+00  2.86583699951697E-03
 cg2d: Sum(rhs),rhsMax =  -3.09076542782911E+00  2.94225347904777E-03
 cg2d: Sum(rhs),rhsMax =  -3.17911028941094E+00  2.98708400623360E-03
 cg2d: Sum(rhs),rhsMax =  -3.06968985689930E+00  2.99369695335865E-03
 cg2d: Sum(rhs),rhsMax =  -2.74200036053150E+00  3.00868108653149E-03
 cg2d: Sum(rhs),rhsMax =  -2.22987022538358E+00  3.08320488969509E-03
 cg2d: Sum(rhs),rhsMax =  -1.72892387215979E+00  3.09216594889355E-03
 cg2d: Sum(rhs),rhsMax =  -1.30661128190168E+00  3.03707916339450E-03
 cg2d: Sum(rhs),rhsMax =  -1.02724589024296E+00  2.93201246830634E-03
 cg2d: Sum(rhs),rhsMax =  -9.49612096425338E-01  2.80059560448486E-03
 cg2d: Sum(rhs),rhsMax =  -1.10546683101144E+00  2.68802004401054E-03
 cg2d: Sum(rhs),rhsMax =  -1.41911848420194E+00  2.73183496243485E-03
 cg2d: Sum(rhs),rhsMax =  -1.85263656222499E+00  2.80075116265608E-03
 cg2d: Sum(rhs),rhsMax =  -2.30607110550165E+00  2.88121976456742E-03
 cg2d: Sum(rhs),rhsMax =  -2.69038339465640E+00  2.95745890572290E-03
 cg2d: Sum(rhs),rhsMax =  -2.94313292262589E+00  3.01465301466607E-03
 cg2d: Sum(rhs),rhsMax =  -3.03123931526718E+00  3.04190017534202E-03
 cg2d: Sum(rhs),rhsMax =  -2.94785329884671E+00  3.03433131640236E-03
 cg2d: Sum(rhs),rhsMax =  -2.61356663302971E+00  3.10365968158152E-03
 cg2d: Sum(rhs),rhsMax =  -2.18161324017694E+00  3.16115494919649E-03
 cg2d: Sum(rhs),rhsMax =  -1.75526129017797E+00  3.15966303247903E-03
 cg2d: Sum(rhs),rhsMax =  -1.39603747540543E+00  3.10114901876429E-03
 cg2d: Sum(rhs),rhsMax =  -1.16177143557602E+00  2.99876534998811E-03
 cg2d: Sum(rhs),rhsMax =  -1.10293750742472E+00  2.87411072665542E-03
 cg2d: Sum(rhs),rhsMax =  -1.24975138656368E+00  2.75286343766879E-03
 cg2d: Sum(rhs),rhsMax =  -1.53840874528592E+00  2.75098206129504E-03
 cg2d: Sum(rhs),rhsMax =  -1.91301879661363E+00  2.81271658482568E-03
 cg2d: Sum(rhs),rhsMax =  -2.30705949567626E+00  2.88449370378142E-03
 cg2d: Sum(rhs),rhsMax =  -2.64297563902325E+00  2.95188714630326E-03
 cg2d: Sum(rhs),rhsMax =  -2.86495141306545E+00  3.00154107523000E-03
 cg2d: Sum(rhs),rhsMax =  -2.94238821119905E+00  3.02377914938939E-03
 cg2d: Sum(rhs),rhsMax =  -2.84207325274889E+00  3.04217194889153E-03
 cg2d: Sum(rhs),rhsMax =  -2.51902186475131E+00  3.13830793115728E-03
 cg2d: Sum(rhs),rhsMax =  -2.14123739434813E+00  3.18959311557704E-03
 cg2d: Sum(rhs),rhsMax =  -1.76835926904592E+00  3.18714920463891E-03
 cg2d: Sum(rhs),rhsMax =  -1.45590356603347E+00  3.13272217329356E-03
 cg2d: Sum(rhs),rhsMax =  -1.25508077329837E+00  3.03818405394170E-03
 cg2d: Sum(rhs),rhsMax =  -1.20874910671958E+00  2.92305980181233E-03
 cg2d: Sum(rhs),rhsMax =  -1.34034318531705E+00  2.81059294392175E-03
 cg2d: Sum(rhs),rhsMax =  -1.62624340386787E+00  2.74190560362579E-03
(PID.TID 0000.0001) %CHECKPOINT       100 ckptA
 --> objf_test(bi,bj)   =  0.509071979866770E-01
 --> objf_tracer(bi,bj) =  0.000000000000000E+00
 --> objf_atl(bi,bj)    =  0.000000000000000E+00
  local fc =  0.509071979866770E-01
 global fc =  0.509071979866770E-01
 ph-check fcpertplus =   0.050907198
(PID.TID 0000.0001)  MDS_READ_FIELD: opening file: xx_depth.0000000000.001.001.data
 ph-check fcpertminus =   0.0509071982
(PID.TID 0000.0001)  MDS_READ_FIELD: opening file: xx_depth.0000000000.001.001.data
(PID.TID 0000.0001)  MDS_READ_FIELD: opening global file: noWalls.bigRidge
(PID.TID 0000.0001) // =======================================================
(PID.TID 0000.0001) // Field Model R_low (ini_masks_etc) at iteration          1
(PID.TID 0000.0001) // CMIN =         -5.000000000000000E+03
(PID.TID 0000.0001) // CMAX =         -2.000000000000000E+03
(PID.TID 0000.0001) // CINT =          1.111111111111111E+02
(PID.TID 0000.0001) // SYMBOLS (CMIN->CMAX): -abcdefghijklmnopqrstuvwxyz+
(PID.TID 0000.0001) //                  0.0: .
(PID.TID 0000.0001) // RANGE I (Lo:Hi:Step):(  -1:   7:   1)
(PID.TID 0000.0001) // RANGE J (Lo:Hi:Step):(   7:  -1:  -1)
(PID.TID 0000.0001) // RANGE K (Lo:Hi:Step):(   1:   1:   1)
(PID.TID 0000.0001) // =======================================================
(PID.TID 0000.0001) K =   1
(PID.TID 0000.0001) //
(PID.TID 0000.0001) // |--J--|101234567
(PID.TID 0000.0001) //      7 ----+----
(PID.TID 0000.0001) //      6 ----+----
(PID.TID 0000.0001) //      5 ----+----
(PID.TID 0000.0001) //      4 ----+----
(PID.TID 0000.0001) //      3 ----+----
(PID.TID 0000.0001) //      2 ----+----
(PID.TID 0000.0001) //      1 ----+----
(PID.TID 0000.0001) //      0 ----+----
(PID.TID 0000.0001) //     -1 ----+----
(PID.TID 0000.0001) // =======================================================
(PID.TID 0000.0001) // END OF FIELD                                          =
(PID.TID 0000.0001) // =======================================================
(PID.TID 0000.0001) 
(PID.TID 0000.0001) // =======================================================
(PID.TID 0000.0001) // Field Model Ro_surf (ini_masks_etc) at iteration          1
(PID.TID 0000.0001) // CMIN =          1.000000000000000E+32
(PID.TID 0000.0001) // CMAX =         -1.000000000000000E+32
(PID.TID 0000.0001) // CINT =          0.000000000000000E+00
(PID.TID 0000.0001) // SYMBOLS (CMIN->CMAX): -abcdefghijklmnopqrstuvwxyz+
(PID.TID 0000.0001) //                  0.0: .
(PID.TID 0000.0001) // RANGE I (Lo:Hi:Step):(  -1:   7:   1)
(PID.TID 0000.0001) // RANGE J (Lo:Hi:Step):(   7:  -1:  -1)
(PID.TID 0000.0001) // RANGE K (Lo:Hi:Step):(   1:   1:   1)
(PID.TID 0000.0001) // =======================================================
(PID.TID 0000.0001) // =======================================================
(PID.TID 0000.0001) // END OF FIELD                                          =
(PID.TID 0000.0001) // =======================================================
(PID.TID 0000.0001) 
(PID.TID 0000.0001) // =======================================================
(PID.TID 0000.0001) // Field hFacC at iteration          1
(PID.TID 0000.0001) // CMIN =          1.000000000000000E+00
(PID.TID 0000.0001) // CMAX =          1.000000000000000E+00
(PID.TID 0000.0001) // CINT =          0.000000000000000E+00
(PID.TID 0000.0001) // SYMBOLS (CMIN->CMAX): -abcdefghijklmnopqrstuvwxyz+
(PID.TID 0000.0001) //                  0.0: .
(PID.TID 0000.0001) // RANGE I (Lo:Hi:Step):(  -1:   7:   1)
(PID.TID 0000.0001) // RANGE J (Lo:Hi:Step):(   7:  -1:  -1)
(PID.TID 0000.0001) // RANGE K (Lo:Hi:Step):(   1:   1:   1)
(PID.TID 0000.0001) // =======================================================
(PID.TID 0000.0001) // =======================================================
(PID.TID 0000.0001) // END OF FIELD                                          =
(PID.TID 0000.0001) // =======================================================
(PID.TID 0000.0001) 
(PID.TID 0000.0001) // =======================================================
(PID.TID 0000.0001) // Field hFacW at iteration          1
(PID.TID 0000.0001) // CMIN =          1.000000000000000E+00
(PID.TID 0000.0001) // CMAX =          1.000000000000000E+00
(PID.TID 0000.0001) // CINT =          0.000000000000000E+00
(PID.TID 0000.0001) // SYMBOLS (CMIN->CMAX): -abcdefghijklmnopqrstuvwxyz+
(PID.TID 0000.0001) //                  0.0: .
(PID.TID 0000.0001) // RANGE I (Lo:Hi:Step):(  -1:   7:   1)
(PID.TID 0000.0001) // RANGE J (Lo:Hi:Step):(   7:  -1:  -1)
(PID.TID 0000.0001) // RANGE K (Lo:Hi:Step):(   1:   1:   1)
(PID.TID 0000.0001) // =======================================================
(PID.TID 0000.0001) // =======================================================
(PID.TID 0000.0001) // END OF FIELD                                          =
(PID.TID 0000.0001) // =======================================================
(PID.TID 0000.0001) 
(PID.TID 0000.0001) // =======================================================
(PID.TID 0000.0001) // Field hFacS at iteration          1
(PID.TID 0000.0001) // CMIN =          1.000000000000000E+00
(PID.TID 0000.0001) // CMAX =          1.000000000000000E+00
(PID.TID 0000.0001) // CINT =          0.000000000000000E+00
(PID.TID 0000.0001) // SYMBOLS (CMIN->CMAX): -abcdefghijklmnopqrstuvwxyz+
(PID.TID 0000.0001) //                  0.0: .
(PID.TID 0000.0001) // RANGE I (Lo:Hi:Step):(  -1:   7:   1)
(PID.TID 0000.0001) // RANGE J (Lo:Hi:Step):(   7:  -1:  -1)
(PID.TID 0000.0001) // RANGE K (Lo:Hi:Step):(   1:   1:   1)
(PID.TID 0000.0001) // =======================================================
(PID.TID 0000.0001) // =======================================================
(PID.TID 0000.0001) // END OF FIELD                                          =
(PID.TID 0000.0001) // =======================================================
(PID.TID 0000.0001) 
(PID.TID 0000.0001) %MON surfExpanfCori_max           =  -1.0735540000000E-04
(PID.TID 0000.0001) %MON surfExpanfCori_min           =  -1.1783060000000E-04
(PID.TID 0000.0001) %MON surfExpanfCori_mean          =  -1.1259300000000E-04
(PID.TID 0000.0001) %MON surfExpanfCori_sd            =   3.7035424771427E-06
(PID.TID 0000.0001) %MON surfExpanfCoriG_max          =  -1.0866480000000E-04
(PID.TID 0000.0001) %MON surfExpanfCoriG_min          =  -1.1914000000000E-04
(PID.TID 0000.0001) %MON surfExpanfCoriG_mean         =  -1.1390240000000E-04
(PID.TID 0000.0001) %MON surfExpanfCoriG_sd           =   3.7035424771427E-06
(PID.TID 0000.0001) %MON surfExpanfCoriCos_max        =   0.0000000000000E+00
(PID.TID 0000.0001) %MON surfExpanfCoriCos_min        =   0.0000000000000E+00
(PID.TID 0000.0001) %MON surfExpanfCoriCos_mean       =   0.0000000000000E+00
(PID.TID 0000.0001) %MON surfExpanfCoriCos_sd         =   0.0000000000000E+00
(PID.TID 0000.0001) INI_CG2D: CG2D normalisation factor =  1.9999999999999996E-04
(PID.TID 0000.0001) 
                     ctrl_depth_ini: ctrl update R_low,
                                     adding the control vector.
(PID.TID 0000.0001)  MDS_READ_FIELD: opening file: xx_depth.0000000000.001.001.data
(PID.TID 0000.0001) // =======================================================
(PID.TID 0000.0001) // Field Model Ro_surf (update_masks_etc) at iteration          1
(PID.TID 0000.0001) // CMIN =          1.000000000000000E+32
(PID.TID 0000.0001) // CMAX =         -1.000000000000000E+32
(PID.TID 0000.0001) // CINT =          0.000000000000000E+00
(PID.TID 0000.0001) // SYMBOLS (CMIN->CMAX): -abcdefghijklmnopqrstuvwxyz+
(PID.TID 0000.0001) //                  0.0: .
(PID.TID 0000.0001) // RANGE I (Lo:Hi:Step):(  -1:   7:   1)
(PID.TID 0000.0001) // RANGE J (Lo:Hi:Step):(   7:  -1:  -1)
(PID.TID 0000.0001) // RANGE K (Lo:Hi:Step):(   1:   1:   1)
(PID.TID 0000.0001) // =======================================================
(PID.TID 0000.0001) // =======================================================
(PID.TID 0000.0001) // END OF FIELD                                          =
(PID.TID 0000.0001) // =======================================================
(PID.TID 0000.0001) 
(PID.TID 0000.0001) // =======================================================
(PID.TID 0000.0001) // Field hFacC at iteration          1
(PID.TID 0000.0001) // CMIN =          1.000000000000000E+00
(PID.TID 0000.0001) // CMAX =          1.000000000000000E+00
(PID.TID 0000.0001) // CINT =          0.000000000000000E+00
(PID.TID 0000.0001) // SYMBOLS (CMIN->CMAX): -abcdefghijklmnopqrstuvwxyz+
(PID.TID 0000.0001) //                  0.0: .
(PID.TID 0000.0001) // RANGE I (Lo:Hi:Step):(  -1:   7:   1)
(PID.TID 0000.0001) // RANGE J (Lo:Hi:Step):(   7:  -1:  -1)
(PID.TID 0000.0001) // RANGE K (Lo:Hi:Step):(   1:   1:   1)
(PID.TID 0000.0001) // =======================================================
(PID.TID 0000.0001) // =======================================================
(PID.TID 0000.0001) // END OF FIELD                                          =
(PID.TID 0000.0001) // =======================================================
(PID.TID 0000.0001) 
(PID.TID 0000.0001) // =======================================================
(PID.TID 0000.0001) // Field hFacW at iteration          1
(PID.TID 0000.0001) // CMIN =          1.000000000000000E+00
(PID.TID 0000.0001) // CMAX =          1.000000000000000E+00
(PID.TID 0000.0001) // CINT =          0.000000000000000E+00
(PID.TID 0000.0001) // SYMBOLS (CMIN->CMAX): -abcdefghijklmnopqrstuvwxyz+
(PID.TID 0000.0001) //                  0.0: .
(PID.TID 0000.0001) // RANGE I (Lo:Hi:Step):(  -1:   7:   1)
(PID.TID 0000.0001) // RANGE J (Lo:Hi:Step):(   7:  -1:  -1)
(PID.TID 0000.0001) // RANGE K (Lo:Hi:Step):(   1:   1:   1)
(PID.TID 0000.0001) // =======================================================
(PID.TID 0000.0001) // =======================================================
(PID.TID 0000.0001) // END OF FIELD                                          =
(PID.TID 0000.0001) // =======================================================
(PID.TID 0000.0001) 
(PID.TID 0000.0001) // =======================================================
(PID.TID 0000.0001) // Field hFacS at iteration          1
(PID.TID 0000.0001) // CMIN =          1.000000000000000E+00
(PID.TID 0000.0001) // CMAX =          1.000000000000000E+00
(PID.TID 0000.0001) // CINT =          0.000000000000000E+00
(PID.TID 0000.0001) // SYMBOLS (CMIN->CMAX): -abcdefghijklmnopqrstuvwxyz+
(PID.TID 0000.0001) //                  0.0: .
(PID.TID 0000.0001) // RANGE I (Lo:Hi:Step):(  -1:   7:   1)
(PID.TID 0000.0001) // RANGE J (Lo:Hi:Step):(   7:  -1:  -1)
(PID.TID 0000.0001) // RANGE K (Lo:Hi:Step):(   1:   1:   1)
(PID.TID 0000.0001) // =======================================================
(PID.TID 0000.0001) // =======================================================
(PID.TID 0000.0001) // END OF FIELD                                          =
(PID.TID 0000.0001) // =======================================================
(PID.TID 0000.0001) 
(PID.TID 0000.0001) // =======================================================
(PID.TID 0000.0001) // Field Initial Temperature at iteration          1
(PID.TID 0000.0001) // CMIN =          4.000000000000000E+00
(PID.TID 0000.0001) // CMAX =          4.000000000000000E+00
(PID.TID 0000.0001) // CINT =          0.000000000000000E+00
(PID.TID 0000.0001) // SYMBOLS (CMIN->CMAX): -abcdefghijklmnopqrstuvwxyz+
(PID.TID 0000.0001) //                  0.0: .
(PID.TID 0000.0001) // RANGE I (Lo:Hi:Step):(   1:   5:   1)
(PID.TID 0000.0001) // RANGE J (Lo:Hi:Step):(   5:   1:  -1)
(PID.TID 0000.0001) // RANGE K (Lo:Hi:Step):(   1:   1:   1)
(PID.TID 0000.0001) // =======================================================
(PID.TID 0000.0001) // =======================================================
(PID.TID 0000.0001) // END OF FIELD                                          =
(PID.TID 0000.0001) // =======================================================
(PID.TID 0000.0001) 
(PID.TID 0000.0001) // =======================================================
(PID.TID 0000.0001) // Field Initial Salinity at iteration          1
(PID.TID 0000.0001) // CMIN =          3.500000000000000E+01
(PID.TID 0000.0001) // CMAX =          3.500000000000000E+01
(PID.TID 0000.0001) // CINT =          0.000000000000000E+00
(PID.TID 0000.0001) // SYMBOLS (CMIN->CMAX): -abcdefghijklmnopqrstuvwxyz+
(PID.TID 0000.0001) //                  0.0: .
(PID.TID 0000.0001) // RANGE I (Lo:Hi:Step):(   1:   5:   1)
(PID.TID 0000.0001) // RANGE J (Lo:Hi:Step):(   5:   1:  -1)
(PID.TID 0000.0001) // RANGE K (Lo:Hi:Step):(   1:   1:   1)
(PID.TID 0000.0001) // =======================================================
(PID.TID 0000.0001) // =======================================================
(PID.TID 0000.0001) // END OF FIELD                                          =
(PID.TID 0000.0001) // =======================================================
(PID.TID 0000.0001) 
(PID.TID 0000.0001) Start initial hydrostatic pressure computation
(PID.TID 0000.0001) Pressure is predetermined for buoyancyRelation OCEANIC
(PID.TID 0000.0001) 
(PID.TID 0000.0001)  MDS_READ_FIELD: opening global file: windx.sin_y
(PID.TID 0000.0001) // =======================================================
(PID.TID 0000.0001) // Model current state
(PID.TID 0000.0001) // =======================================================
(PID.TID 0000.0001) 
 cg2d: Sum(rhs),rhsMax =   0.00000000000000E+00  0.00000000000000E+00
 cg2d: Sum(rhs),rhsMax =  -2.49999999999996E+01  6.03492218443698E-05
 cg2d: Sum(rhs),rhsMax =  -1.81034404639062E+01  2.18766023587219E-04
 cg2d: Sum(rhs),rhsMax =  -1.54955562831842E+01  4.32479836297446E-04
 cg2d: Sum(rhs),rhsMax =  -1.41111452333135E+01  6.49958988306237E-04
 cg2d: Sum(rhs),rhsMax =  -1.31144322338650E+01  8.30737102792754E-04
 cg2d: Sum(rhs),rhsMax =  -1.21209090327315E+01  9.52510661959526E-04
 cg2d: Sum(rhs),rhsMax =  -1.07124742327742E+01  1.02806631207943E-03
 cg2d: Sum(rhs),rhsMax =  -7.41375936882545E+00  1.27086596302230E-03
 cg2d: Sum(rhs),rhsMax =  -4.70217533737424E+00  1.51019014015638E-03
 cg2d: Sum(rhs),rhsMax =  -2.72440686210855E+00  1.65833738166715E-03
 cg2d: Sum(rhs),rhsMax =  -1.27958669276181E+00  1.70565508600088E-03
 cg2d: Sum(rhs),rhsMax =  -3.29564700529213E-01  1.66071960288624E-03
 cg2d: Sum(rhs),rhsMax =   5.21320398936886E-02  1.54812755725443E-03
 cg2d: Sum(rhs),rhsMax =  -2.86625376712708E-01  1.40338815545869E-03
 cg2d: Sum(rhs),rhsMax =  -1.30315844034383E+00  1.44268599099667E-03
 cg2d: Sum(rhs),rhsMax =  -2.68067691635122E+00  1.50836885963426E-03
 cg2d: Sum(rhs),rhsMax =  -4.07407455240991E+00  1.58424366247232E-03
 cg2d: Sum(rhs),rhsMax =  -5.18272349987090E+00  1.66593592285687E-03
 cg2d: Sum(rhs),rhsMax =  -5.80990599970296E+00  1.74846174923101E-03
 cg2d: Sum(rhs),rhsMax =  -5.87740628698515E+00  1.82725970924885E-03
 cg2d: Sum(rhs),rhsMax =  -5.41358311996388E+00  1.89900434568603E-03
 cg2d: Sum(rhs),rhsMax =  -4.53080677140204E+00  1.96213934536738E-03
 cg2d: Sum(rhs),rhsMax =  -3.22587901332772E+00  2.12611201366444E-03
 cg2d: Sum(rhs),rhsMax =  -2.04447213604625E+00  2.24837952427468E-03
 cg2d: Sum(rhs),rhsMax =  -1.10818138505527E+00  2.30404047727565E-03
 cg2d: Sum(rhs),rhsMax =  -4.90484889619694E-01  2.29576530848390E-03
 cg2d: Sum(rhs),rhsMax =  -2.61247072487561E-01  2.23814840459169E-03
 cg2d: Sum(rhs),rhsMax =  -4.50921977701929E-01  2.26266905964124E-03
 cg2d: Sum(rhs),rhsMax =  -1.00469611903913E+00  2.31946121809224E-03
 cg2d: Sum(rhs),rhsMax =  -1.78565333243087E+00  2.37599940176370E-03
 cg2d: Sum(rhs),rhsMax =  -2.62429311243154E+00  2.42805541917312E-03
 cg2d: Sum(rhs),rhsMax =  -3.35748489558077E+00  2.47123043540824E-03
 cg2d: Sum(rhs),rhsMax =  -3.85508920899013E+00  2.50195596913012E-03
 cg2d: Sum(rhs),rhsMax =  -4.03589981203296E+00  2.51830321235737E-03
 cg2d: Sum(rhs),rhsMax =  -3.87512850927087E+00  2.52047517917280E-03
 cg2d: Sum(rhs),rhsMax =  -3.40600371280908E+00  2.51092920685983E-03
 cg2d: Sum(rhs),rhsMax =  -2.61682441433671E+00  2.58874090333970E-03
 cg2d: Sum(rhs),rhsMax =  -1.83238711178818E+00  2.61669733119645E-03
 cg2d: Sum(rhs),rhsMax =  -1.17513337957537E+00  2.56005949517909E-03
 cg2d: Sum(rhs),rhsMax =  -7.11994641930904E-01  2.47855826922836E-03
 cg2d: Sum(rhs),rhsMax =  -5.26422170646677E-01  2.47042090856331E-03
 cg2d: Sum(rhs),rhsMax =  -6.78930237093782E-01  2.49676868358013E-03
 cg2d: Sum(rhs),rhsMax =  -1.12673724894552E+00  2.53652609221291E-03
 cg2d: Sum(rhs),rhsMax =  -1.75981629102954E+00  2.58504761402118E-03
 cg2d: Sum(rhs),rhsMax =  -2.43940640429435E+00  2.63568087659283E-03
 cg2d: Sum(rhs),rhsMax =  -3.03203014835950E+00  2.68092811129351E-03
 cg2d: Sum(rhs),rhsMax =  -3.40991308030855E+00  2.73286308816061E-03
 cg2d: Sum(rhs),rhsMax =  -3.48046019256626E+00  2.80943927458321E-03
 cg2d: Sum(rhs),rhsMax =  -3.32063069263456E+00  2.84054013925918E-03
 cg2d: Sum(rhs),rhsMax =  -2.96079444227097E+00  2.82589063041622E-03
 cg2d: Sum(rhs),rhsMax =  -2.32992808462796E+00  2.92147980884122E-03
 cg2d: Sum(rhs),rhsMax =  -1.72242454622952E+00  2.94384969234570E-03
 cg2d: Sum(rhs),rhsMax =  -1.21221903014208E+00  2.89157786401949E-03
 cg2d: Sum(rhs),rhsMax =  -8.69698394877537E-01  2.78046464192149E-03
 cg2d: Sum(rhs),rhsMax =  -7.64867807574362E-01  2.63730956970685E-03
 cg2d: Sum(rhs),rhsMax =  -9.31747849864142E-01  2.54529708974782E-03
 cg2d: Sum(rhs),rhsMax =  -1.31074338067529E+00  2.59464774322396E-03
 cg2d: Sum(rhs),rhsMax =  -1.82960841225178E+00  2.67470094074605E-03
 cg2d: Sum(rhs),rhsMax =  -2.36415406138202E+00  2.77096218223368E-03
 cg2d: Sum(rhs),rhsMax =  -2.80794775462384E+00  2.86583712268524E-03
 cg2d: Sum(rhs),rhsMax =  -3.09076533299374E+00  2.94225360488746E-03
 cg2d: Sum(rhs),rhsMax =  -3.17911018909631E+00  2.98708413484652E-03
 cg2d: Sum(rhs),rhsMax =  -3.06968975823422E+00  2.99369708481394E-03
 cg2d: Sum(rhs),rhsMax =  -2.74200025223610E+00  3.00868124426903E-03
 cg2d: Sum(rhs),rhsMax =  -2.22987014263591E+00  3.08320505112404E-03
 cg2d: Sum(rhs),rhsMax =  -1.72892381307510E+00  3.09216611390990E-03
 cg2d: Sum(rhs),rhsMax =  -1.30661124232146E+00  3.03707933191868E-03
 cg2d: Sum(rhs),rhsMax =  -1.02724586306880E+00  2.93201264029778E-03
 cg2d: Sum(rhs),rhsMax =  -9.49612070369574E-01  2.80059577994800E-03
 cg2d: Sum(rhs),rhsMax =  -1.10546680276283E+00  2.68802019404836E-03
 cg2d: Sum(rhs),rhsMax =  -1.41911843643215E+00  2.73183511487460E-03
 cg2d: Sum(rhs),rhsMax =  -1.85263648881792E+00  2.80075131753606E-03
 cg2d: Sum(rhs),rhsMax =  -2.30607100605304E+00  2.88121992196646E-03
 cg2d: Sum(rhs),rhsMax =  -2.69038327312888E+00  2.95745906574302E-03
 cg2d: Sum(rhs),rhsMax =  -2.94313278540563E+00  3.01465317740979E-03
 cg2d: Sum(rhs),rhsMax =  -3.03123916970468E+00  3.04190034088862E-03
 cg2d: Sum(rhs),rhsMax =  -2.94785315247837E+00  3.03433148478837E-03
 cg2d: Sum(rhs),rhsMax =  -2.61356647223189E+00  3.10365988973686E-03
 cg2d: Sum(rhs),rhsMax =  -2.18161310604926E+00  3.16115516059232E-03
 cg2d: Sum(rhs),rhsMax =  -1.75526118017850E+00  3.15966324696570E-03
 cg2d: Sum(rhs),rhsMax =  -1.39603738401836E+00  3.10114923623109E-03
 cg2d: Sum(rhs),rhsMax =  -1.16177135386530E+00  2.99876557038006E-03
 cg2d: Sum(rhs),rhsMax =  -1.10293742221945E+00  2.87411094997958E-03
 cg2d: Sum(rhs),rhsMax =  -1.24975128070666E+00  2.75286366398885E-03
 cg2d: Sum(rhs),rhsMax =  -1.53840863312563E+00  2.75098224954647E-03
 cg2d: Sum(rhs),rhsMax =  -1.91301865641610E+00  2.81271677542960E-03
 cg2d: Sum(rhs),rhsMax =  -2.30705932706719E+00  2.88449389687863E-03
 cg2d: Sum(rhs),rhsMax =  -2.64297544599007E+00  2.95188734206000E-03
 cg2d: Sum(rhs),rhsMax =  -2.86495120206143E+00  3.00154127380650E-03
 cg2d: Sum(rhs),rhsMax =  -2.94238798968552E+00  3.02377935090824E-03
 cg2d: Sum(rhs),rhsMax =  -2.84207299032112E+00  3.04217219821641E-03
 cg2d: Sum(rhs),rhsMax =  -2.51902162932613E+00  3.13830818353357E-03
 cg2d: Sum(rhs),rhsMax =  -2.14123718635777E+00  3.18959337081186E-03
 cg2d: Sum(rhs),rhsMax =  -1.76835908481303E+00  3.18714946254607E-03
 cg2d: Sum(rhs),rhsMax =  -1.45590339848423E+00  3.13272243372217E-03
 cg2d: Sum(rhs),rhsMax =  -1.25508061181148E+00  3.03818431679838E-03
 cg2d: Sum(rhs),rhsMax =  -1.20874893679706E+00  2.92306006707289E-03
 cg2d: Sum(rhs),rhsMax =  -1.34034298943511E+00  2.81059321163009E-03
 cg2d: Sum(rhs),rhsMax =  -1.62624319504735E+00  2.74190582798928E-03
(PID.TID 0000.0001) %CHECKPOINT       100 ckptB
 --> objf_test(bi,bj)   =  0.509071984256261E-01
 --> objf_tracer(bi,bj) =  0.000000000000000E+00
 --> objf_atl(bi,bj)    =  0.000000000000000E+00
  local fc =  0.509071984256261E-01
 global fc =  0.509071984256261E-01
(PID.TID 0000.0001)  MDS_READ_FIELD: opening file: xx_depth.0000000000.001.001.data
grad-res -------------------------------
 grad-res     0   24    4    5    1    1    1    1   0.509071982062E-01 0.509071979867E-01 0.509071984256E-01
 grad-res     0   24   24   24   25    1    1    1   -.219466379717E-05 -.219474591279E-05 -.374160361103E-04
(PID.TID 0000.0001)   ADM  precision_derivative_cost =    5.09071982061515E-02
(PID.TID 0000.0001)   ADM  precision_derivative_grad =   -2.19466379716701E-06
 ph-grd  ierr ---------------------------
 ph-grd  ierr =  0, icomp =  24, ichknum =  24
 ph-grd -->hit<--  5 5 1 1
(PID.TID 0000.0001)  MDS_READ_FIELD: opening file: adxx_depth.0000000000.001.001.data
(PID.TID 0000.0001)  MDS_READ_FIELD: opening file: xx_depth.0000000000.001.001.data
(PID.TID 0000.0001)  MDS_READ_FIELD: opening global file: noWalls.bigRidge
(PID.TID 0000.0001) // =======================================================
(PID.TID 0000.0001) // Field Model R_low (ini_masks_etc) at iteration          1
(PID.TID 0000.0001) // CMIN =         -5.000000000000000E+03
(PID.TID 0000.0001) // CMAX =         -2.000000000000000E+03
(PID.TID 0000.0001) // CINT =          1.111111111111111E+02
(PID.TID 0000.0001) // SYMBOLS (CMIN->CMAX): -abcdefghijklmnopqrstuvwxyz+
(PID.TID 0000.0001) //                  0.0: .
(PID.TID 0000.0001) // RANGE I (Lo:Hi:Step):(  -1:   7:   1)
(PID.TID 0000.0001) // RANGE J (Lo:Hi:Step):(   7:  -1:  -1)
(PID.TID 0000.0001) // RANGE K (Lo:Hi:Step):(   1:   1:   1)
(PID.TID 0000.0001) // =======================================================
(PID.TID 0000.0001) K =   1
(PID.TID 0000.0001) //
(PID.TID 0000.0001) // |--J--|101234567
(PID.TID 0000.0001) //      7 ----+----
(PID.TID 0000.0001) //      6 ----+----
(PID.TID 0000.0001) //      5 ----+----
(PID.TID 0000.0001) //      4 ----+----
(PID.TID 0000.0001) //      3 ----+----
(PID.TID 0000.0001) //      2 ----+----
(PID.TID 0000.0001) //      1 ----+----
(PID.TID 0000.0001) //      0 ----+----
(PID.TID 0000.0001) //     -1 ----+----
(PID.TID 0000.0001) // =======================================================
(PID.TID 0000.0001) // END OF FIELD                                          =
(PID.TID 0000.0001) // =======================================================
(PID.TID 0000.0001) 
(PID.TID 0000.0001) // =======================================================
(PID.TID 0000.0001) // Field Model Ro_surf (ini_masks_etc) at iteration          1
(PID.TID 0000.0001) // CMIN =          1.000000000000000E+32
(PID.TID 0000.0001) // CMAX =         -1.000000000000000E+32
(PID.TID 0000.0001) // CINT =          0.000000000000000E+00
(PID.TID 0000.0001) // SYMBOLS (CMIN->CMAX): -abcdefghijklmnopqrstuvwxyz+
(PID.TID 0000.0001) //                  0.0: .
(PID.TID 0000.0001) // RANGE I (Lo:Hi:Step):(  -1:   7:   1)
(PID.TID 0000.0001) // RANGE J (Lo:Hi:Step):(   7:  -1:  -1)
(PID.TID 0000.0001) // RANGE K (Lo:Hi:Step):(   1:   1:   1)
(PID.TID 0000.0001) // =======================================================
(PID.TID 0000.0001) // =======================================================
(PID.TID 0000.0001) // END OF FIELD                                          =
(PID.TID 0000.0001) // =======================================================
(PID.TID 0000.0001) 
(PID.TID 0000.0001) // =======================================================
(PID.TID 0000.0001) // Field hFacC at iteration          1
(PID.TID 0000.0001) // CMIN =          1.000000000000000E+00
(PID.TID 0000.0001) // CMAX =          1.000000000000000E+00
(PID.TID 0000.0001) // CINT =          0.000000000000000E+00
(PID.TID 0000.0001) // SYMBOLS (CMIN->CMAX): -abcdefghijklmnopqrstuvwxyz+
(PID.TID 0000.0001) //                  0.0: .
(PID.TID 0000.0001) // RANGE I (Lo:Hi:Step):(  -1:   7:   1)
(PID.TID 0000.0001) // RANGE J (Lo:Hi:Step):(   7:  -1:  -1)
(PID.TID 0000.0001) // RANGE K (Lo:Hi:Step):(   1:   1:   1)
(PID.TID 0000.0001) // =======================================================
(PID.TID 0000.0001) // =======================================================
(PID.TID 0000.0001) // END OF FIELD                                          =
(PID.TID 0000.0001) // =======================================================
(PID.TID 0000.0001) 
(PID.TID 0000.0001) // =======================================================
(PID.TID 0000.0001) // Field hFacW at iteration          1
(PID.TID 0000.0001) // CMIN =          1.000000000000000E+00
(PID.TID 0000.0001) // CMAX =          1.000000000000000E+00
(PID.TID 0000.0001) // CINT =          0.000000000000000E+00
(PID.TID 0000.0001) // SYMBOLS (CMIN->CMAX): -abcdefghijklmnopqrstuvwxyz+
(PID.TID 0000.0001) //                  0.0: .
(PID.TID 0000.0001) // RANGE I (Lo:Hi:Step):(  -1:   7:   1)
(PID.TID 0000.0001) // RANGE J (Lo:Hi:Step):(   7:  -1:  -1)
(PID.TID 0000.0001) // RANGE K (Lo:Hi:Step):(   1:   1:   1)
(PID.TID 0000.0001) // =======================================================
(PID.TID 0000.0001) // =======================================================
(PID.TID 0000.0001) // END OF FIELD                                          =
(PID.TID 0000.0001) // =======================================================
(PID.TID 0000.0001) 
(PID.TID 0000.0001) // =======================================================
(PID.TID 0000.0001) // Field hFacS at iteration          1
(PID.TID 0000.0001) // CMIN =          1.000000000000000E+00
(PID.TID 0000.0001) // CMAX =          1.000000000000000E+00
(PID.TID 0000.0001) // CINT =          0.000000000000000E+00
(PID.TID 0000.0001) // SYMBOLS (CMIN->CMAX): -abcdefghijklmnopqrstuvwxyz+
(PID.TID 0000.0001) //                  0.0: .
(PID.TID 0000.0001) // RANGE I (Lo:Hi:Step):(  -1:   7:   1)
(PID.TID 0000.0001) // RANGE J (Lo:Hi:Step):(   7:  -1:  -1)
(PID.TID 0000.0001) // RANGE K (Lo:Hi:Step):(   1:   1:   1)
(PID.TID 0000.0001) // =======================================================
(PID.TID 0000.0001) // =======================================================
(PID.TID 0000.0001) // END OF FIELD                                          =
(PID.TID 0000.0001) // =======================================================
(PID.TID 0000.0001) 
(PID.TID 0000.0001) %MON surfExpanfCori_max           =  -1.0735540000000E-04
(PID.TID 0000.0001) %MON surfExpanfCori_min           =  -1.1783060000000E-04
(PID.TID 0000.0001) %MON surfExpanfCori_mean          =  -1.1259300000000E-04
(PID.TID 0000.0001) %MON surfExpanfCori_sd            =   3.7035424771427E-06
(PID.TID 0000.0001) %MON surfExpanfCoriG_max          =  -1.0866480000000E-04
(PID.TID 0000.0001) %MON surfExpanfCoriG_min          =  -1.1914000000000E-04
(PID.TID 0000.0001) %MON surfExpanfCoriG_mean         =  -1.1390240000000E-04
(PID.TID 0000.0001) %MON surfExpanfCoriG_sd           =   3.7035424771427E-06
(PID.TID 0000.0001) %MON surfExpanfCoriCos_max        =   0.0000000000000E+00
(PID.TID 0000.0001) %MON surfExpanfCoriCos_min        =   0.0000000000000E+00
(PID.TID 0000.0001) %MON surfExpanfCoriCos_mean       =   0.0000000000000E+00
(PID.TID 0000.0001) %MON surfExpanfCoriCos_sd         =   0.0000000000000E+00
(PID.TID 0000.0001) INI_CG2D: CG2D normalisation factor =  1.9999999999999996E-04
(PID.TID 0000.0001) 
                     ctrl_depth_ini: ctrl update R_low,
                                     adding the control vector.
(PID.TID 0000.0001)  MDS_READ_FIELD: opening file: xx_depth.0000000000.001.001.data
(PID.TID 0000.0001) // =======================================================
(PID.TID 0000.0001) // Field Model Ro_surf (update_masks_etc) at iteration          1
(PID.TID 0000.0001) // CMIN =          1.000000000000000E+32
(PID.TID 0000.0001) // CMAX =         -1.000000000000000E+32
(PID.TID 0000.0001) // CINT =          0.000000000000000E+00
(PID.TID 0000.0001) // SYMBOLS (CMIN->CMAX): -abcdefghijklmnopqrstuvwxyz+
(PID.TID 0000.0001) //                  0.0: .
(PID.TID 0000.0001) // RANGE I (Lo:Hi:Step):(  -1:   7:   1)
(PID.TID 0000.0001) // RANGE J (Lo:Hi:Step):(   7:  -1:  -1)
(PID.TID 0000.0001) // RANGE K (Lo:Hi:Step):(   1:   1:   1)
(PID.TID 0000.0001) // =======================================================
(PID.TID 0000.0001) // =======================================================
(PID.TID 0000.0001) // END OF FIELD                                          =
(PID.TID 0000.0001) // =======================================================
(PID.TID 0000.0001) 
(PID.TID 0000.0001) // =======================================================
(PID.TID 0000.0001) // Field hFacC at iteration          1
(PID.TID 0000.0001) // CMIN =          1.000000000000000E+00
(PID.TID 0000.0001) // CMAX =          1.000000000000000E+00
(PID.TID 0000.0001) // CINT =          0.000000000000000E+00
(PID.TID 0000.0001) // SYMBOLS (CMIN->CMAX): -abcdefghijklmnopqrstuvwxyz+
(PID.TID 0000.0001) //                  0.0: .
(PID.TID 0000.0001) // RANGE I (Lo:Hi:Step):(  -1:   7:   1)
(PID.TID 0000.0001) // RANGE J (Lo:Hi:Step):(   7:  -1:  -1)
(PID.TID 0000.0001) // RANGE K (Lo:Hi:Step):(   1:   1:   1)
(PID.TID 0000.0001) // =======================================================
(PID.TID 0000.0001) // =======================================================
(PID.TID 0000.0001) // END OF FIELD                                          =
(PID.TID 0000.0001) // =======================================================
(PID.TID 0000.0001) 
(PID.TID 0000.0001) // =======================================================
(PID.TID 0000.0001) // Field hFacW at iteration          1
(PID.TID 0000.0001) // CMIN =          1.000000000000000E+00
(PID.TID 0000.0001) // CMAX =          1.000000000000000E+00
(PID.TID 0000.0001) // CINT =          0.000000000000000E+00
(PID.TID 0000.0001) // SYMBOLS (CMIN->CMAX): -abcdefghijklmnopqrstuvwxyz+
(PID.TID 0000.0001) //                  0.0: .
(PID.TID 0000.0001) // RANGE I (Lo:Hi:Step):(  -1:   7:   1)
(PID.TID 0000.0001) // RANGE J (Lo:Hi:Step):(   7:  -1:  -1)
(PID.TID 0000.0001) // RANGE K (Lo:Hi:Step):(   1:   1:   1)
(PID.TID 0000.0001) // =======================================================
(PID.TID 0000.0001) // =======================================================
(PID.TID 0000.0001) // END OF FIELD                                          =
(PID.TID 0000.0001) // =======================================================
(PID.TID 0000.0001) 
(PID.TID 0000.0001) // =======================================================
(PID.TID 0000.0001) // Field hFacS at iteration          1
(PID.TID 0000.0001) // CMIN =          1.000000000000000E+00
(PID.TID 0000.0001) // CMAX =          1.000000000000000E+00
(PID.TID 0000.0001) // CINT =          0.000000000000000E+00
(PID.TID 0000.0001) // SYMBOLS (CMIN->CMAX): -abcdefghijklmnopqrstuvwxyz+
(PID.TID 0000.0001) //                  0.0: .
(PID.TID 0000.0001) // RANGE I (Lo:Hi:Step):(  -1:   7:   1)
(PID.TID 0000.0001) // RANGE J (Lo:Hi:Step):(   7:  -1:  -1)
(PID.TID 0000.0001) // RANGE K (Lo:Hi:Step):(   1:   1:   1)
(PID.TID 0000.0001) // =======================================================
(PID.TID 0000.0001) // =======================================================
(PID.TID 0000.0001) // END OF FIELD                                          =
(PID.TID 0000.0001) // =======================================================
(PID.TID 0000.0001) 
(PID.TID 0000.0001) // =======================================================
(PID.TID 0000.0001) // Field Initial Temperature at iteration          1
(PID.TID 0000.0001) // CMIN =          4.000000000000000E+00
(PID.TID 0000.0001) // CMAX =          4.000000000000000E+00
(PID.TID 0000.0001) // CINT =          0.000000000000000E+00
(PID.TID 0000.0001) // SYMBOLS (CMIN->CMAX): -abcdefghijklmnopqrstuvwxyz+
(PID.TID 0000.0001) //                  0.0: .
(PID.TID 0000.0001) // RANGE I (Lo:Hi:Step):(   1:   5:   1)
(PID.TID 0000.0001) // RANGE J (Lo:Hi:Step):(   5:   1:  -1)
(PID.TID 0000.0001) // RANGE K (Lo:Hi:Step):(   1:   1:   1)
(PID.TID 0000.0001) // =======================================================
(PID.TID 0000.0001) // =======================================================
(PID.TID 0000.0001) // END OF FIELD                                          =
(PID.TID 0000.0001) // =======================================================
(PID.TID 0000.0001) 
(PID.TID 0000.0001) // =======================================================
(PID.TID 0000.0001) // Field Initial Salinity at iteration          1
(PID.TID 0000.0001) // CMIN =          3.500000000000000E+01
(PID.TID 0000.0001) // CMAX =          3.500000000000000E+01
(PID.TID 0000.0001) // CINT =          0.000000000000000E+00
(PID.TID 0000.0001) // SYMBOLS (CMIN->CMAX): -abcdefghijklmnopqrstuvwxyz+
(PID.TID 0000.0001) //                  0.0: .
(PID.TID 0000.0001) // RANGE I (Lo:Hi:Step):(   1:   5:   1)
(PID.TID 0000.0001) // RANGE J (Lo:Hi:Step):(   5:   1:  -1)
(PID.TID 0000.0001) // RANGE K (Lo:Hi:Step):(   1:   1:   1)
(PID.TID 0000.0001) // =======================================================
(PID.TID 0000.0001) // =======================================================
(PID.TID 0000.0001) // END OF FIELD                                          =
(PID.TID 0000.0001) // =======================================================
(PID.TID 0000.0001) 
(PID.TID 0000.0001) Start initial hydrostatic pressure computation
(PID.TID 0000.0001) Pressure is predetermined for buoyancyRelation OCEANIC
(PID.TID 0000.0001) 
(PID.TID 0000.0001)  MDS_READ_FIELD: opening global file: windx.sin_y
(PID.TID 0000.0001) // =======================================================
(PID.TID 0000.0001) // Model current state
(PID.TID 0000.0001) // =======================================================
(PID.TID 0000.0001) 
 cg2d: Sum(rhs),rhsMax =   0.00000000000000E+00  0.00000000000000E+00
 cg2d: Sum(rhs),rhsMax =  -2.49999999999996E+01  6.03492218443698E-05
 cg2d: Sum(rhs),rhsMax =  -1.81034404639062E+01  2.18766023587219E-04
 cg2d: Sum(rhs),rhsMax =  -1.54955562832178E+01  4.32479836297446E-04
 cg2d: Sum(rhs),rhsMax =  -1.41111452327970E+01  6.49958988329158E-04
 cg2d: Sum(rhs),rhsMax =  -1.31144322329655E+01  8.30737102842627E-04
 cg2d: Sum(rhs),rhsMax =  -1.21209090321915E+01  9.52510661983321E-04
 cg2d: Sum(rhs),rhsMax =  -1.07124742375993E+01  1.02806631157914E-03
 cg2d: Sum(rhs),rhsMax =  -7.41375936628331E+00  1.27086596337885E-03
 cg2d: Sum(rhs),rhsMax =  -4.70217533429862E+00  1.51019014098279E-03
 cg2d: Sum(rhs),rhsMax =  -2.72440685916938E+00  1.65833738313249E-03
 cg2d: Sum(rhs),rhsMax =  -1.27958669051853E+00  1.70565508826079E-03
 cg2d: Sum(rhs),rhsMax =  -3.29564699351024E-01  1.66071960605867E-03
 cg2d: Sum(rhs),rhsMax =   5.21320402882054E-02  1.54812756140622E-03
 cg2d: Sum(rhs),rhsMax =  -2.86625375151105E-01  1.40338816059652E-03
 cg2d: Sum(rhs),rhsMax =  -1.30315843038125E+00  1.44268600153611E-03
 cg2d: Sum(rhs),rhsMax =  -2.68067689427339E+00  1.50836887181649E-03
 cg2d: Sum(rhs),rhsMax =  -4.07407451850213E+00  1.58424367546264E-03
 cg2d: Sum(rhs),rhsMax =  -5.18272345887794E+00  1.66593593581575E-03
 cg2d: Sum(rhs),rhsMax =  -5.80990595797369E+00  1.74846176150217E-03
 cg2d: Sum(rhs),rhsMax =  -5.87740624943445E+00  1.82725972051472E-03
 cg2d: Sum(rhs),rhsMax =  -5.41358308866267E+00  1.89900435605781E-03
 cg2d: Sum(rhs),rhsMax =  -4.53080674607387E+00  1.96213935539037E-03
 cg2d: Sum(rhs),rhsMax =  -3.22587899452956E+00  2.12611202440853E-03
 cg2d: Sum(rhs),rhsMax =  -2.04447212273039E+00  2.24837953584227E-03
 cg2d: Sum(rhs),rhsMax =  -1.10818137589494E+00  2.30404048985162E-03
 cg2d: Sum(rhs),rhsMax =  -4.90484883237574E-01  2.29576532223560E-03
 cg2d: Sum(rhs),rhsMax =  -2.61247066938736E-01  2.23814841964127E-03
 cg2d: Sum(rhs),rhsMax =  -4.50921968289101E-01  2.26266908708498E-03
 cg2d: Sum(rhs),rhsMax =  -1.00469610136241E+00  2.31946124969567E-03
 cg2d: Sum(rhs),rhsMax =  -1.78565330205608E+00  2.37599943685311E-03
 cg2d: Sum(rhs),rhsMax =  -2.62429306770066E+00  2.42805545683657E-03
 cg2d: Sum(rhs),rhsMax =  -3.35748483815183E+00  2.47123047468095E-03
 cg2d: Sum(rhs),rhsMax =  -3.85508914310416E+00  2.50195600918657E-03
 cg2d: Sum(rhs),rhsMax =  -4.03589974311224E+00  2.51830325267248E-03
 cg2d: Sum(rhs),rhsMax =  -3.87512844258238E+00  2.52047521962129E-03
 cg2d: Sum(rhs),rhsMax =  -3.40600365264352E+00  2.51092924773582E-03
 cg2d: Sum(rhs),rhsMax =  -2.61682447203681E+00  2.58874084155331E-03
 cg2d: Sum(rhs),rhsMax =  -1.83238715287015E+00  2.61669726561023E-03
 cg2d: Sum(rhs),rhsMax =  -1.17513340647803E+00  2.56005942560224E-03
 cg2d: Sum(rhs),rhsMax =  -7.11994629669241E-01  2.47855829380373E-03
 cg2d: Sum(rhs),rhsMax =  -5.26422153819437E-01  2.47042096348154E-03
 cg2d: Sum(rhs),rhsMax =  -6.78930216038267E-01  2.49676874308015E-03
 cg2d: Sum(rhs),rhsMax =  -1.12673721602479E+00  2.53652615617333E-03
 cg2d: Sum(rhs),rhsMax =  -1.75981624070108E+00  2.58504768200445E-03
 cg2d: Sum(rhs),rhsMax =  -2.43940633473089E+00  2.63568094795302E-03
 cg2d: Sum(rhs),rhsMax =  -3.03203006170061E+00  2.68092818531931E-03
 cg2d: Sum(rhs),rhsMax =  -3.40991311078459E+00  2.73286306188881E-03
 cg2d: Sum(rhs),rhsMax =  -3.48046022606716E+00  2.80943924623862E-03
 cg2d: Sum(rhs),rhsMax =  -3.32063072739291E+00  2.84054010874980E-03
 cg2d: Sum(rhs),rhsMax =  -2.96079447614772E+00  2.82589059794299E-03
 cg2d: Sum(rhs),rhsMax =  -2.32992817100239E+00  2.92147970138628E-03
 cg2d: Sum(rhs),rhsMax =  -1.72242461270220E+00  2.94384958142136E-03
 cg2d: Sum(rhs),rhsMax =  -1.21221908079909E+00  2.89157774941397E-03
 cg2d: Sum(rhs),rhsMax =  -8.69698435786941E-01  2.78046452351781E-03
 cg2d: Sum(rhs),rhsMax =  -7.64867848437088E-01  2.63730944750423E-03
 cg2d: Sum(rhs),rhsMax =  -9.31747869380799E-01  2.54529705590212E-03
 cg2d: Sum(rhs),rhsMax =  -1.31074340612916E+00  2.59464770984971E-03
 cg2d: Sum(rhs),rhsMax =  -1.82960844501271E+00  2.67470090748860E-03
 cg2d: Sum(rhs),rhsMax =  -2.36415410144838E+00  2.77096214863124E-03
 cg2d: Sum(rhs),rhsMax =  -2.80794780114894E+00  2.86583708827706E-03
 cg2d: Sum(rhs),rhsMax =  -3.09076538470040E+00  2.94225356931816E-03
 cg2d: Sum(rhs),rhsMax =  -3.17911024445268E+00  2.98708409794448E-03
 cg2d: Sum(rhs),rhsMax =  -3.06968981551271E+00  2.99369704662784E-03
 cg2d: Sum(rhs),rhsMax =  -2.74200040769600E+00  3.00868109588524E-03
 cg2d: Sum(rhs),rhsMax =  -2.22987027404179E+00  3.08320489986547E-03
 cg2d: Sum(rhs),rhsMax =  -1.72892392371600E+00  3.09216595956308E-03
 cg2d: Sum(rhs),rhsMax =  -1.30661133747804E+00  3.03707917430573E-03
 cg2d: Sum(rhs),rhsMax =  -1.02724595058447E+00  2.93201247931641E-03
 cg2d: Sum(rhs),rhsMax =  -9.49612161717755E-01  2.80059561559647E-03
 cg2d: Sum(rhs),rhsMax =  -1.10546685879591E+00  2.68802015606595E-03
 cg2d: Sum(rhs),rhsMax =  -1.41911849918598E+00  2.73183507710067E-03
 cg2d: Sum(rhs),rhsMax =  -1.85263655942628E+00  2.80075127953044E-03
 cg2d: Sum(rhs),rhsMax =  -2.30607108464652E+00  2.88121988326138E-03
 cg2d: Sum(rhs),rhsMax =  -2.69038335916180E+00  2.95745902594563E-03
 cg2d: Sum(rhs),rhsMax =  -2.94313287792991E+00  3.01465313629002E-03
 cg2d: Sum(rhs),rhsMax =  -3.03123926751241E+00  3.04190029843392E-03
 cg2d: Sum(rhs),rhsMax =  -2.94785325418660E+00  3.03433144121309E-03
 cg2d: Sum(rhs),rhsMax =  -2.61356669182175E+00  3.10365970240269E-03
 cg2d: Sum(rhs),rhsMax =  -2.18161330168830E+00  3.16115497067354E-03
 cg2d: Sum(rhs),rhsMax =  -1.75526135584057E+00  3.15966305423552E-03
 cg2d: Sum(rhs),rhsMax =  -1.39603754622508E+00  3.10114904050091E-03
 cg2d: Sum(rhs),rhsMax =  -1.16177151200098E+00  2.99876537154223E-03
 cg2d: Sum(rhs),rhsMax =  -1.10293758913110E+00  2.87411074803494E-03
 cg2d: Sum(rhs),rhsMax =  -1.24975147222152E+00  2.75286345905337E-03
 cg2d: Sum(rhs),rhsMax =  -1.53840875949477E+00  2.75098220915280E-03
 cg2d: Sum(rhs),rhsMax =  -1.91301879076260E+00  2.81271673481235E-03
 cg2d: Sum(rhs),rhsMax =  -2.30705946942126E+00  2.88449385548843E-03
 cg2d: Sum(rhs),rhsMax =  -2.64297559605596E+00  2.95188729945053E-03
 cg2d: Sum(rhs),rhsMax =  -2.86495135937565E+00  3.00154122972345E-03
 cg2d: Sum(rhs),rhsMax =  -2.94238815365600E+00  3.02377930534079E-03
 cg2d: Sum(rhs),rhsMax =  -2.84207331970710E+00  3.04217197861129E-03
 cg2d: Sum(rhs),rhsMax =  -2.51902193284388E+00  3.13830796198607E-03
 cg2d: Sum(rhs),rhsMax =  -2.14123746551872E+00  3.18959314707757E-03
 cg2d: Sum(rhs),rhsMax =  -1.76835934478521E+00  3.18714923635665E-03
 cg2d: Sum(rhs),rhsMax =  -1.45590364727581E+00  3.13272220483999E-03
 cg2d: Sum(rhs),rhsMax =  -1.25508086028038E+00  3.03818408506541E-03
 cg2d: Sum(rhs),rhsMax =  -1.20874919878970E+00  2.92305983244461E-03
 cg2d: Sum(rhs),rhsMax =  -1.34034328078891E+00  2.81059297418772E-03
 cg2d: Sum(rhs),rhsMax =  -1.62624341006273E+00  2.74190578476214E-03
(PID.TID 0000.0001) %CHECKPOINT       100 ckptA
 --> objf_test(bi,bj)   =  0.509071969914177E-01
 --> objf_tracer(bi,bj) =  0.000000000000000E+00
 --> objf_atl(bi,bj)    =  0.000000000000000E+00
  local fc =  0.509071969914177E-01
 global fc =  0.509071969914177E-01
 ph-check fcpertplus =   0.050907197
(PID.TID 0000.0001)  MDS_READ_FIELD: opening file: xx_depth.0000000000.001.001.data
 ph-check fcpertminus =   0.0509071982
(PID.TID 0000.0001)  MDS_READ_FIELD: opening file: xx_depth.0000000000.001.001.data
(PID.TID 0000.0001)  MDS_READ_FIELD: opening global file: noWalls.bigRidge
(PID.TID 0000.0001) // =======================================================
(PID.TID 0000.0001) // Field Model R_low (ini_masks_etc) at iteration          1
(PID.TID 0000.0001) // CMIN =         -5.000000000000000E+03
(PID.TID 0000.0001) // CMAX =         -2.000000000000000E+03
(PID.TID 0000.0001) // CINT =          1.111111111111111E+02
(PID.TID 0000.0001) // SYMBOLS (CMIN->CMAX): -abcdefghijklmnopqrstuvwxyz+
(PID.TID 0000.0001) //                  0.0: .
(PID.TID 0000.0001) // RANGE I (Lo:Hi:Step):(  -1:   7:   1)
(PID.TID 0000.0001) // RANGE J (Lo:Hi:Step):(   7:  -1:  -1)
(PID.TID 0000.0001) // RANGE K (Lo:Hi:Step):(   1:   1:   1)
(PID.TID 0000.0001) // =======================================================
(PID.TID 0000.0001) K =   1
(PID.TID 0000.0001) //
(PID.TID 0000.0001) // |--J--|101234567
(PID.TID 0000.0001) //      7 ----+----
(PID.TID 0000.0001) //      6 ----+----
(PID.TID 0000.0001) //      5 ----+----
(PID.TID 0000.0001) //      4 ----+----
(PID.TID 0000.0001) //      3 ----+----
(PID.TID 0000.0001) //      2 ----+----
(PID.TID 0000.0001) //      1 ----+----
(PID.TID 0000.0001) //      0 ----+----
(PID.TID 0000.0001) //     -1 ----+----
(PID.TID 0000.0001) // =======================================================
(PID.TID 0000.0001) // END OF FIELD                                          =
(PID.TID 0000.0001) // =======================================================
(PID.TID 0000.0001) 
(PID.TID 0000.0001) // =======================================================
(PID.TID 0000.0001) // Field Model Ro_surf (ini_masks_etc) at iteration          1
(PID.TID 0000.0001) // CMIN =          1.000000000000000E+32
(PID.TID 0000.0001) // CMAX =         -1.000000000000000E+32
(PID.TID 0000.0001) // CINT =          0.000000000000000E+00
(PID.TID 0000.0001) // SYMBOLS (CMIN->CMAX): -abcdefghijklmnopqrstuvwxyz+
(PID.TID 0000.0001) //                  0.0: .
(PID.TID 0000.0001) // RANGE I (Lo:Hi:Step):(  -1:   7:   1)
(PID.TID 0000.0001) // RANGE J (Lo:Hi:Step):(   7:  -1:  -1)
(PID.TID 0000.0001) // RANGE K (Lo:Hi:Step):(   1:   1:   1)
(PID.TID 0000.0001) // =======================================================
(PID.TID 0000.0001) // =======================================================
(PID.TID 0000.0001) // END OF FIELD                                          =
(PID.TID 0000.0001) // =======================================================
(PID.TID 0000.0001) 
(PID.TID 0000.0001) // =======================================================
(PID.TID 0000.0001) // Field hFacC at iteration          1
(PID.TID 0000.0001) // CMIN =          1.000000000000000E+00
(PID.TID 0000.0001) // CMAX =          1.000000000000000E+00
(PID.TID 0000.0001) // CINT =          0.000000000000000E+00
(PID.TID 0000.0001) // SYMBOLS (CMIN->CMAX): -abcdefghijklmnopqrstuvwxyz+
(PID.TID 0000.0001) //                  0.0: .
(PID.TID 0000.0001) // RANGE I (Lo:Hi:Step):(  -1:   7:   1)
(PID.TID 0000.0001) // RANGE J (Lo:Hi:Step):(   7:  -1:  -1)
(PID.TID 0000.0001) // RANGE K (Lo:Hi:Step):(   1:   1:   1)
(PID.TID 0000.0001) // =======================================================
(PID.TID 0000.0001) // =======================================================
(PID.TID 0000.0001) // END OF FIELD                                          =
(PID.TID 0000.0001) // =======================================================
(PID.TID 0000.0001) 
(PID.TID 0000.0001) // =======================================================
(PID.TID 0000.0001) // Field hFacW at iteration          1
(PID.TID 0000.0001) // CMIN =          1.000000000000000E+00
(PID.TID 0000.0001) // CMAX =          1.000000000000000E+00
(PID.TID 0000.0001) // CINT =          0.000000000000000E+00
(PID.TID 0000.0001) // SYMBOLS (CMIN->CMAX): -abcdefghijklmnopqrstuvwxyz+
(PID.TID 0000.0001) //                  0.0: .
(PID.TID 0000.0001) // RANGE I (Lo:Hi:Step):(  -1:   7:   1)
(PID.TID 0000.0001) // RANGE J (Lo:Hi:Step):(   7:  -1:  -1)
(PID.TID 0000.0001) // RANGE K (Lo:Hi:Step):(   1:   1:   1)
(PID.TID 0000.0001) // =======================================================
(PID.TID 0000.0001) // =======================================================
(PID.TID 0000.0001) // END OF FIELD                                          =
(PID.TID 0000.0001) // =======================================================
(PID.TID 0000.0001) 
(PID.TID 0000.0001) // =======================================================
(PID.TID 0000.0001) // Field hFacS at iteration          1
(PID.TID 0000.0001) // CMIN =          1.000000000000000E+00
(PID.TID 0000.0001) // CMAX =          1.000000000000000E+00
(PID.TID 0000.0001) // CINT =          0.000000000000000E+00
(PID.TID 0000.0001) // SYMBOLS (CMIN->CMAX): -abcdefghijklmnopqrstuvwxyz+
(PID.TID 0000.0001) //                  0.0: .
(PID.TID 0000.0001) // RANGE I (Lo:Hi:Step):(  -1:   7:   1)
(PID.TID 0000.0001) // RANGE J (Lo:Hi:Step):(   7:  -1:  -1)
(PID.TID 0000.0001) // RANGE K (Lo:Hi:Step):(   1:   1:   1)
(PID.TID 0000.0001) // =======================================================
(PID.TID 0000.0001) // =======================================================
(PID.TID 0000.0001) // END OF FIELD                                          =
(PID.TID 0000.0001) // =======================================================
(PID.TID 0000.0001) 
(PID.TID 0000.0001) %MON surfExpanfCori_max           =  -1.0735540000000E-04
(PID.TID 0000.0001) %MON surfExpanfCori_min           =  -1.1783060000000E-04
(PID.TID 0000.0001) %MON surfExpanfCori_mean          =  -1.1259300000000E-04
(PID.TID 0000.0001) %MON surfExpanfCori_sd            =   3.7035424771427E-06
(PID.TID 0000.0001) %MON surfExpanfCoriG_max          =  -1.0866480000000E-04
(PID.TID 0000.0001) %MON surfExpanfCoriG_min          =  -1.1914000000000E-04
(PID.TID 0000.0001) %MON surfExpanfCoriG_mean         =  -1.1390240000000E-04
(PID.TID 0000.0001) %MON surfExpanfCoriG_sd           =   3.7035424771427E-06
(PID.TID 0000.0001) %MON surfExpanfCoriCos_max        =   0.0000000000000E+00
(PID.TID 0000.0001) %MON surfExpanfCoriCos_min        =   0.0000000000000E+00
(PID.TID 0000.0001) %MON surfExpanfCoriCos_mean       =   0.0000000000000E+00
(PID.TID 0000.0001) %MON surfExpanfCoriCos_sd         =   0.0000000000000E+00
(PID.TID 0000.0001) INI_CG2D: CG2D normalisation factor =  1.9999999999999996E-04
(PID.TID 0000.0001) 
                     ctrl_depth_ini: ctrl update R_low,
                                     adding the control vector.
(PID.TID 0000.0001)  MDS_READ_FIELD: opening file: xx_depth.0000000000.001.001.data
(PID.TID 0000.0001) // =======================================================
(PID.TID 0000.0001) // Field Model Ro_surf (update_masks_etc) at iteration          1
(PID.TID 0000.0001) // CMIN =          1.000000000000000E+32
(PID.TID 0000.0001) // CMAX =         -1.000000000000000E+32
(PID.TID 0000.0001) // CINT =          0.000000000000000E+00
(PID.TID 0000.0001) // SYMBOLS (CMIN->CMAX): -abcdefghijklmnopqrstuvwxyz+
(PID.TID 0000.0001) //                  0.0: .
(PID.TID 0000.0001) // RANGE I (Lo:Hi:Step):(  -1:   7:   1)
(PID.TID 0000.0001) // RANGE J (Lo:Hi:Step):(   7:  -1:  -1)
(PID.TID 0000.0001) // RANGE K (Lo:Hi:Step):(   1:   1:   1)
(PID.TID 0000.0001) // =======================================================
(PID.TID 0000.0001) // =======================================================
(PID.TID 0000.0001) // END OF FIELD                                          =
(PID.TID 0000.0001) // =======================================================
(PID.TID 0000.0001) 
(PID.TID 0000.0001) // =======================================================
(PID.TID 0000.0001) // Field hFacC at iteration          1
(PID.TID 0000.0001) // CMIN =          1.000000000000000E+00
(PID.TID 0000.0001) // CMAX =          1.000000000000000E+00
(PID.TID 0000.0001) // CINT =          0.000000000000000E+00
(PID.TID 0000.0001) // SYMBOLS (CMIN->CMAX): -abcdefghijklmnopqrstuvwxyz+
(PID.TID 0000.0001) //                  0.0: .
(PID.TID 0000.0001) // RANGE I (Lo:Hi:Step):(  -1:   7:   1)
(PID.TID 0000.0001) // RANGE J (Lo:Hi:Step):(   7:  -1:  -1)
(PID.TID 0000.0001) // RANGE K (Lo:Hi:Step):(   1:   1:   1)
(PID.TID 0000.0001) // =======================================================
(PID.TID 0000.0001) // =======================================================
(PID.TID 0000.0001) // END OF FIELD                                          =
(PID.TID 0000.0001) // =======================================================
(PID.TID 0000.0001) 
(PID.TID 0000.0001) // =======================================================
(PID.TID 0000.0001) // Field hFacW at iteration          1
(PID.TID 0000.0001) // CMIN =          1.000000000000000E+00
(PID.TID 0000.0001) // CMAX =          1.000000000000000E+00
(PID.TID 0000.0001) // CINT =          0.000000000000000E+00
(PID.TID 0000.0001) // SYMBOLS (CMIN->CMAX): -abcdefghijklmnopqrstuvwxyz+
(PID.TID 0000.0001) //                  0.0: .
(PID.TID 0000.0001) // RANGE I (Lo:Hi:Step):(  -1:   7:   1)
(PID.TID 0000.0001) // RANGE J (Lo:Hi:Step):(   7:  -1:  -1)
(PID.TID 0000.0001) // RANGE K (Lo:Hi:Step):(   1:   1:   1)
(PID.TID 0000.0001) // =======================================================
(PID.TID 0000.0001) // =======================================================
(PID.TID 0000.0001) // END OF FIELD                                          =
(PID.TID 0000.0001) // =======================================================
(PID.TID 0000.0001) 
(PID.TID 0000.0001) // =======================================================
(PID.TID 0000.0001) // Field hFacS at iteration          1
(PID.TID 0000.0001) // CMIN =          1.000000000000000E+00
(PID.TID 0000.0001) // CMAX =          1.000000000000000E+00
(PID.TID 0000.0001) // CINT =          0.000000000000000E+00
(PID.TID 0000.0001) // SYMBOLS (CMIN->CMAX): -abcdefghijklmnopqrstuvwxyz+
(PID.TID 0000.0001) //                  0.0: .
(PID.TID 0000.0001) // RANGE I (Lo:Hi:Step):(  -1:   7:   1)
(PID.TID 0000.0001) // RANGE J (Lo:Hi:Step):(   7:  -1:  -1)
(PID.TID 0000.0001) // RANGE K (Lo:Hi:Step):(   1:   1:   1)
(PID.TID 0000.0001) // =======================================================
(PID.TID 0000.0001) // =======================================================
(PID.TID 0000.0001) // END OF FIELD                                          =
(PID.TID 0000.0001) // =======================================================
(PID.TID 0000.0001) 
(PID.TID 0000.0001) // =======================================================
(PID.TID 0000.0001) // Field Initial Temperature at iteration          1
(PID.TID 0000.0001) // CMIN =          4.000000000000000E+00
(PID.TID 0000.0001) // CMAX =          4.000000000000000E+00
(PID.TID 0000.0001) // CINT =          0.000000000000000E+00
(PID.TID 0000.0001) // SYMBOLS (CMIN->CMAX): -abcdefghijklmnopqrstuvwxyz+
(PID.TID 0000.0001) //                  0.0: .
(PID.TID 0000.0001) // RANGE I (Lo:Hi:Step):(   1:   5:   1)
(PID.TID 0000.0001) // RANGE J (Lo:Hi:Step):(   5:   1:  -1)
(PID.TID 0000.0001) // RANGE K (Lo:Hi:Step):(   1:   1:   1)
(PID.TID 0000.0001) // =======================================================
(PID.TID 0000.0001) // =======================================================
(PID.TID 0000.0001) // END OF FIELD                                          =
(PID.TID 0000.0001) // =======================================================
(PID.TID 0000.0001) 
(PID.TID 0000.0001) // =======================================================
(PID.TID 0000.0001) // Field Initial Salinity at iteration          1
(PID.TID 0000.0001) // CMIN =          3.500000000000000E+01
(PID.TID 0000.0001) // CMAX =          3.500000000000000E+01
(PID.TID 0000.0001) // CINT =          0.000000000000000E+00
(PID.TID 0000.0001) // SYMBOLS (CMIN->CMAX): -abcdefghijklmnopqrstuvwxyz+
(PID.TID 0000.0001) //                  0.0: .
(PID.TID 0000.0001) // RANGE I (Lo:Hi:Step):(   1:   5:   1)
(PID.TID 0000.0001) // RANGE J (Lo:Hi:Step):(   5:   1:  -1)
(PID.TID 0000.0001) // RANGE K (Lo:Hi:Step):(   1:   1:   1)
(PID.TID 0000.0001) // =======================================================
(PID.TID 0000.0001) // =======================================================
(PID.TID 0000.0001) // END OF FIELD                                          =
(PID.TID 0000.0001) // =======================================================
(PID.TID 0000.0001) 
(PID.TID 0000.0001) Start initial hydrostatic pressure computation
(PID.TID 0000.0001) Pressure is predetermined for buoyancyRelation OCEANIC
(PID.TID 0000.0001) 
(PID.TID 0000.0001)  MDS_READ_FIELD: opening global file: windx.sin_y
(PID.TID 0000.0001) // =======================================================
(PID.TID 0000.0001) // Model current state
(PID.TID 0000.0001) // =======================================================
(PID.TID 0000.0001) 
 cg2d: Sum(rhs),rhsMax =   0.00000000000000E+00  0.00000000000000E+00
 cg2d: Sum(rhs),rhsMax =  -2.49999999999996E+01  6.03492218443698E-05
 cg2d: Sum(rhs),rhsMax =  -1.81034404639062E+01  2.18766023587219E-04
 cg2d: Sum(rhs),rhsMax =  -1.54955562832117E+01  4.32479836297446E-04
 cg2d: Sum(rhs),rhsMax =  -1.41111452331023E+01  6.49958988317668E-04
 cg2d: Sum(rhs),rhsMax =  -1.31144322335569E+01  8.30737102814148E-04
 cg2d: Sum(rhs),rhsMax =  -1.21209090328861E+01  9.52510661947260E-04
 cg2d: Sum(rhs),rhsMax =  -1.07124742368145E+01  1.02806631168499E-03
 cg2d: Sum(rhs),rhsMax =  -7.41375936703079E+00  1.27086596330257E-03
 cg2d: Sum(rhs),rhsMax =  -4.70217533480943E+00  1.51019014089337E-03
 cg2d: Sum(rhs),rhsMax =  -2.72440685938893E+00  1.65833738306772E-03
 cg2d: Sum(rhs),rhsMax =  -1.27958669042748E+00  1.70565508828188E-03
 cg2d: Sum(rhs),rhsMax =  -3.29564698953915E-01  1.66071960624912E-03
 cg2d: Sum(rhs),rhsMax =   5.21320410427901E-02  1.54812756186641E-03
 cg2d: Sum(rhs),rhsMax =  -2.86625373649794E-01  1.40338816143459E-03
 cg2d: Sum(rhs),rhsMax =  -1.30315843702229E+00  1.44268599222124E-03
 cg2d: Sum(rhs),rhsMax =  -2.68067691171496E+00  1.50836886080861E-03
 cg2d: Sum(rhs),rhsMax =  -4.07407454852860E+00  1.58424366286873E-03
 cg2d: Sum(rhs),rhsMax =  -5.18272350010059E+00  1.66593592176587E-03
 cg2d: Sum(rhs),rhsMax =  -5.80990600658764E+00  1.74846174611339E-03
 cg2d: Sum(rhs),rhsMax =  -5.87740630051669E+00  1.82725970385643E-03
 cg2d: Sum(rhs),rhsMax =  -5.41358313732301E+00  1.89900433812373E-03
 cg2d: Sum(rhs),rhsMax =  -4.53080678819704E+00  1.96213933608146E-03
 cg2d: Sum(rhs),rhsMax =  -3.22587898364005E+00  2.12611203000066E-03
 cg2d: Sum(rhs),rhsMax =  -2.04447211493427E+00  2.24837954167547E-03
 cg2d: Sum(rhs),rhsMax =  -1.10818137022346E+00  2.30404049589795E-03
 cg2d: Sum(rhs),rhsMax =  -4.90484878655001E-01  2.29576532851833E-03
 cg2d: Sum(rhs),rhsMax =  -2.61247062228124E-01  2.23814842623789E-03
 cg2d: Sum(rhs),rhsMax =  -4.50921970353942E-01  2.26266905348524E-03
 cg2d: Sum(rhs),rhsMax =  -1.00469611207821E+00  2.31946121265205E-03
 cg2d: Sum(rhs),rhsMax =  -1.78565332651898E+00  2.37599939623462E-03
 cg2d: Sum(rhs),rhsMax =  -2.62429310868243E+00  2.42805541261325E-03
 cg2d: Sum(rhs),rhsMax =  -3.35748489546489E+00  2.47123042691396E-03
 cg2d: Sum(rhs),rhsMax =  -3.85508921358432E+00  2.50195595800576E-03
 cg2d: Sum(rhs),rhsMax =  -4.03589982111364E+00  2.51830319824486E-03
 cg2d: Sum(rhs),rhsMax =  -3.87512852084849E+00  2.52047516211530E-03
 cg2d: Sum(rhs),rhsMax =  -3.40600372346844E+00  2.51092918728666E-03
 cg2d: Sum(rhs),rhsMax =  -2.61682439423296E+00  2.58874090677525E-03
 cg2d: Sum(rhs),rhsMax =  -1.83238709114117E+00  2.61669733536731E-03
 cg2d: Sum(rhs),rhsMax =  -1.17513335771998E+00  2.56005950033149E-03
 cg2d: Sum(rhs),rhsMax =  -7.11994608321454E-01  2.47855831097287E-03
 cg2d: Sum(rhs),rhsMax =  -5.26422151819348E-01  2.47042088783629E-03
 cg2d: Sum(rhs),rhsMax =  -6.78930217870542E-01  2.49676866383864E-03
 cg2d: Sum(rhs),rhsMax =  -1.12673723161780E+00  2.53652607310042E-03
 cg2d: Sum(rhs),rhsMax =  -1.75981627709373E+00  2.58504759490571E-03
 cg2d: Sum(rhs),rhsMax =  -2.43940639466238E+00  2.63568085669939E-03
 cg2d: Sum(rhs),rhsMax =  -3.03203014341863E+00  2.68092808986123E-03
 cg2d: Sum(rhs),rhsMax =  -3.40991312629326E+00  2.73286302708079E-03
 cg2d: Sum(rhs),rhsMax =  -3.48046023864907E+00  2.80943921237283E-03
 cg2d: Sum(rhs),rhsMax =  -3.32063073436640E+00  2.84054007598127E-03
 cg2d: Sum(rhs),rhsMax =  -2.96079447581932E+00  2.82589056590415E-03
 cg2d: Sum(rhs),rhsMax =  -2.32992805110047E+00  2.92147980756254E-03
 cg2d: Sum(rhs),rhsMax =  -1.72242451121508E+00  2.94384969078489E-03
 cg2d: Sum(rhs),rhsMax =  -1.21221899249583E+00  2.89157786249022E-03
 cg2d: Sum(rhs),rhsMax =  -8.69698353657922E-01  2.78046464060470E-03
 cg2d: Sum(rhs),rhsMax =  -7.64867762055246E-01  2.63730956861865E-03
 cg2d: Sum(rhs),rhsMax =  -9.31747829459308E-01  2.54529701018970E-03
 cg2d: Sum(rhs),rhsMax =  -1.31074337170204E+00  2.59464766082785E-03
 cg2d: Sum(rhs),rhsMax =  -1.82960841928800E+00  2.67470085584753E-03
 cg2d: Sum(rhs),rhsMax =  -2.36415408446762E+00  2.77096209522534E-03
 cg2d: Sum(rhs),rhsMax =  -2.80794779032064E+00  2.86583703392516E-03
 cg2d: Sum(rhs),rhsMax =  -3.09076537612240E+00  2.94225351461709E-03
 cg2d: Sum(rhs),rhsMax =  -3.17911023405454E+00  2.98708404313566E-03
 cg2d: Sum(rhs),rhsMax =  -3.06968979962081E+00  2.99369699154473E-03
 cg2d: Sum(rhs),rhsMax =  -2.74200020507158E+00  3.00868123491529E-03
 cg2d: Sum(rhs),rhsMax =  -2.22987009397769E+00  3.08320504095365E-03
 cg2d: Sum(rhs),rhsMax =  -1.72892376151887E+00  3.09216610324037E-03
 cg2d: Sum(rhs),rhsMax =  -1.30661118674509E+00  3.03707932100744E-03
 cg2d: Sum(rhs),rhsMax =  -1.02724580272728E+00  2.93201262928771E-03
 cg2d: Sum(rhs),rhsMax =  -9.49612005077137E-01  2.80059576883639E-03
 cg2d: Sum(rhs),rhsMax =  -1.10546677497833E+00  2.68802008199296E-03
 cg2d: Sum(rhs),rhsMax =  -1.41911842144807E+00  2.73183500020878E-03
 cg2d: Sum(rhs),rhsMax =  -1.85263649161660E+00  2.80075120066170E-03
 cg2d: Sum(rhs),rhsMax =  -2.30607102690815E+00  2.88121980327249E-03
 cg2d: Sum(rhs),rhsMax =  -2.69038330862345E+00  2.95745894552030E-03
 cg2d: Sum(rhs),rhsMax =  -2.94313283010160E+00  3.01465305578583E-03
 cg2d: Sum(rhs),rhsMax =  -3.03123921745944E+00  3.04190021779672E-03
 cg2d: Sum(rhs),rhsMax =  -2.94785319713846E+00  3.03433135997764E-03
 cg2d: Sum(rhs),rhsMax =  -2.61356641343985E+00  3.10365986891568E-03
 cg2d: Sum(rhs),rhsMax =  -2.18161304453789E+00  3.16115513911527E-03
 cg2d: Sum(rhs),rhsMax =  -1.75526111451589E+00  3.15966322520922E-03
 cg2d: Sum(rhs),rhsMax =  -1.39603731319870E+00  3.10114921449446E-03
 cg2d: Sum(rhs),rhsMax =  -1.16177127744034E+00  2.99876554882594E-03
 cg2d: Sum(rhs),rhsMax =  -1.10293734051306E+00  2.87411092860006E-03
 cg2d: Sum(rhs),rhsMax =  -1.24975119504882E+00  2.75286364260427E-03
 cg2d: Sum(rhs),rhsMax =  -1.53840861891676E+00  2.75098210168870E-03
 cg2d: Sum(rhs),rhsMax =  -1.91301866226712E+00  2.81271662544291E-03
 cg2d: Sum(rhs),rhsMax =  -2.30705935332218E+00  2.88449374517161E-03
 cg2d: Sum(rhs),rhsMax =  -2.64297548895733E+00  2.95188718891273E-03
 cg2d: Sum(rhs),rhsMax =  -2.86495125575123E+00  3.00154111931303E-03
 cg2d: Sum(rhs),rhsMax =  -2.94238804722854E+00  3.02377919495684E-03
 cg2d: Sum(rhs),rhsMax =  -2.84207292336290E+00  3.04217216849665E-03
 cg2d: Sum(rhs),rhsMax =  -2.51902156123357E+00  3.13830815270477E-03
 cg2d: Sum(rhs),rhsMax =  -2.14123711518717E+00  3.18959333931135E-03
 cg2d: Sum(rhs),rhsMax =  -1.76835900907374E+00  3.18714943082833E-03
 cg2d: Sum(rhs),rhsMax =  -1.45590331724189E+00  3.13272240217575E-03
 cg2d: Sum(rhs),rhsMax =  -1.25508052482947E+00  3.03818428567467E-03
 cg2d: Sum(rhs),rhsMax =  -1.20874884472695E+00  2.92306003644061E-03
 cg2d: Sum(rhs),rhsMax =  -1.34034289396325E+00  2.81059318136411E-03
 cg2d: Sum(rhs),rhsMax =  -1.62624318885248E+00  2.74190564685292E-03
(PID.TID 0000.0001) %CHECKPOINT       100 ckptB
 --> objf_test(bi,bj)   =  0.509071994208854E-01
 --> objf_tracer(bi,bj) =  0.000000000000000E+00
 --> objf_atl(bi,bj)    =  0.000000000000000E+00
  local fc =  0.509071994208854E-01
 global fc =  0.509071994208854E-01
(PID.TID 0000.0001)  MDS_READ_FIELD: opening file: xx_depth.0000000000.001.001.data
grad-res -------------------------------
 grad-res     0   25    5    5    1    1    1    1   0.509071982062E-01 0.509071969914E-01 0.509071994209E-01
 grad-res     0   25   25   25   25    1    1    1   -.121475485330E-04 -.121473388986E-04 0.172573388648E-04
(PID.TID 0000.0001)   ADM  precision_derivative_cost =    5.09071982061515E-02
(PID.TID 0000.0001)   ADM  precision_derivative_grad =   -1.21475485330107E-05
 ph-grd  ierr ---------------------------
 ph-grd  ierr =  0, icomp =  25, ichknum =  25
(PID.TID 0000.0001) 
(PID.TID 0000.0001) // =======================================================
(PID.TID 0000.0001) // Gradient check results  >>> START <<<
(PID.TID 0000.0001) // =======================================================
(PID.TID 0000.0001) 
(PID.TID 0000.0001) 
(PID.TID 0000.0001)  EPS =  0.100E-03
(PID.TID 0000.0001) grdchk output:            procId               I        ITILEPOS        JTILEPOS           LAYER            X(I)      X(I)+/-EPS
(PID.TID 0000.0001) grdchk output:                                FC             FC1             FC2 FC1-FC2/(2*EPS)    ADJ GRAD(FC)   1-FDGRD/ADGRD
(PID.TID 0000.0001) grdchk output:                 0               1               1               1               1 0.000000000E+00 -.100000000E-03
(PID.TID 0000.0001) grdchk output:                   0.509071982E-01 0.509071990E-01 0.509071975E-01 0.749375555E-05 0.749377789E-05 0.298126307E-05
(PID.TID 0000.0001) 
(PID.TID 0000.0001) grdchk output:                 0               2               2               1               1 0.000000000E+00 -.100000000E-03
(PID.TID 0000.0001) grdchk output:                   0.509071982E-01 0.509071977E-01 0.509071987E-01 -.467963720E-05 -.467928413E-05 -.754536221E-04
(PID.TID 0000.0001) 
(PID.TID 0000.0001) grdchk output:                 0               3               3               1               1 0.000000000E+00 -.100000000E-03
(PID.TID 0000.0001) grdchk output:                   0.509071982E-01 0.509071978E-01 0.509071986E-01 -.437250455E-05 -.437083369E-05 -.382273357E-03
(PID.TID 0000.0001) 
(PID.TID 0000.0001) grdchk output:                 0               4               4               1               1 0.000000000E+00 -.100000000E-03
(PID.TID 0000.0001) grdchk output:                   0.509071982E-01 0.509071983E-01 0.509071982E-01 0.461980940E-06 0.462340818E-06 0.778383019E-03
(PID.TID 0000.0001) 
(PID.TID 0000.0001) grdchk output:                 0               5               5               1               1 0.000000000E+00 -.100000000E-03
(PID.TID 0000.0001) grdchk output:                   0.509071982E-01 0.509071988E-01 0.509071976E-01 0.611649908E-05 0.611644824E-05 -.831118608E-05
(PID.TID 0000.0001) 
(PID.TID 0000.0001) grdchk output:                 0               6               1               2               1 0.000000000E+00 -.100000000E-03
(PID.TID 0000.0001) grdchk output:                   0.509071982E-01 0.509071983E-01 0.509071981E-01 0.135653665E-05 0.135640536E-05 -.967984628E-04
(PID.TID 0000.0001) 
(PID.TID 0000.0001) grdchk output:                 0               7               2               2               1 0.000000000E+00 -.100000000E-03
(PID.TID 0000.0001) grdchk output:                   0.509071982E-01 0.509071982E-01 0.509071982E-01 0.318144400E-06 0.317833266E-06 -.978921888E-03
(PID.TID 0000.0001) 
(PID.TID 0000.0001) grdchk output:                 0               8               3               2               1 0.000000000E+00 -.100000000E-03
(PID.TID 0000.0001) grdchk output:                   0.509071982E-01 0.509071986E-01 0.509071978E-01 0.434576278E-05 0.434611528E-05 0.811072937E-04
(PID.TID 0000.0001) 
(PID.TID 0000.0001) grdchk output:                 0               9               4               2               1 0.000000000E+00 -.100000000E-03
(PID.TID 0000.0001) grdchk output:                   0.509071982E-01 0.509071981E-01 0.509071983E-01 -.619306967E-06 -.619713099E-06 0.655355572E-03
(PID.TID 0000.0001) 
(PID.TID 0000.0001) grdchk output:                 0              10               5               2               1 0.000000000E+00 -.100000000E-03
(PID.TID 0000.0001) grdchk output:                   0.509071982E-01 0.509071983E-01 0.509071981E-01 0.109146026E-05 0.109132588E-05 -.123127421E-03
(PID.TID 0000.0001) 
(PID.TID 0000.0001) grdchk output:                 0              11               1               3               1 0.000000000E+00 -.100000000E-03
(PID.TID 0000.0001) grdchk output:                   0.509071982E-01 0.509071983E-01 0.509071981E-01 0.112844525E-05 0.112863032E-05 0.163974585E-03
(PID.TID 0000.0001) 
(PID.TID 0000.0001) grdchk output:                 0              12               2               3               1 0.000000000E+00 -.100000000E-03
(PID.TID 0000.0001) grdchk output:                   0.509071982E-01 0.509071981E-01 0.509071983E-01 -.613150052E-06 -.612913591E-06 -.385797541E-03
(PID.TID 0000.0001) 
(PID.TID 0000.0001) grdchk output:                 0              13               3               3               1 0.000000000E+00 -.100000000E-03
(PID.TID 0000.0001) grdchk output:                   0.509071982E-01 0.509071985E-01 0.509071979E-01 0.301133948E-05 0.301354900E-05 0.733197368E-03
(PID.TID 0000.0001) 
(PID.TID 0000.0001) grdchk output:                 0              14               4               3               1 0.000000000E+00 -.100000000E-03
(PID.TID 0000.0001) grdchk output:                   0.509071982E-01 0.509071980E-01 0.509071984E-01 -.231793577E-05 -.231773627E-05 -.860760986E-04
(PID.TID 0000.0001) 
(PID.TID 0000.0001) grdchk output:                 0              15               5               3               1 0.000000000E+00 -.100000000E-03
(PID.TID 0000.0001) grdchk output:                   0.509071982E-01 0.509071980E-01 0.509071984E-01 -.215929392E-05 -.215910803E-05 -.860978934E-04
(PID.TID 0000.0001) 
(PID.TID 0000.0001) grdchk output:                 0              16               1               4               1 0.000000000E+00 -.100000000E-03
(PID.TID 0000.0001) grdchk output:                   0.509071982E-01 0.509071982E-01 0.509071982E-01 0.179289812E-06 0.179081974E-06 -.116057827E-02
(PID.TID 0000.0001) 
(PID.TID 0000.0001) grdchk output:                 0              17               2               4               1 0.000000000E+00 -.100000000E-03
(PID.TID 0000.0001) grdchk output:                   0.509071982E-01 0.509071983E-01 0.509071981E-01 0.126734720E-05 0.126704929E-05 -.235117048E-03
(PID.TID 0000.0001) 
(PID.TID 0000.0001) grdchk output:                 0              18               3               4               1 0.000000000E+00 -.100000000E-03
(PID.TID 0000.0001) grdchk output:                   0.509071982E-01 0.509071987E-01 0.509071977E-01 0.528457448E-05 0.528181669E-05 -.522129258E-03
(PID.TID 0000.0001) 
(PID.TID 0000.0001) grdchk output:                 0              19               4               4               1 0.000000000E+00 -.100000000E-03
(PID.TID 0000.0001) grdchk output:                   0.509071982E-01 0.509071982E-01 0.509071982E-01 -.271280012E-06 -.271513194E-06 0.858821958E-03
(PID.TID 0000.0001) 
(PID.TID 0000.0001) grdchk output:                 0              20               5               4               1 0.000000000E+00 -.100000000E-03
(PID.TID 0000.0001) grdchk output:                   0.509071982E-01 0.509071981E-01 0.509071983E-01 -.114964462E-05 -.114980291E-05 0.137669548E-03
(PID.TID 0000.0001) 
(PID.TID 0000.0001) grdchk output:                 0              21               1               5               1 0.000000000E+00 -.100000000E-03
(PID.TID 0000.0001) grdchk output:                   0.509071982E-01 0.509071977E-01 0.509071987E-01 -.467367360E-05 -.467381058E-05 0.293073838E-04
(PID.TID 0000.0001) 
(PID.TID 0000.0001) grdchk output:                 0              22               2               5               1 0.000000000E+00 -.100000000E-03
(PID.TID 0000.0001) grdchk output:                   0.509071982E-01 0.509071987E-01 0.509071977E-01 0.456983645E-05 0.457003966E-05 0.444647623E-04
(PID.TID 0000.0001) 
(PID.TID 0000.0001) grdchk output:                 0              23               3               5               1 0.000000000E+00 -.100000000E-03
(PID.TID 0000.0001) grdchk output:                   0.509071982E-01 0.509071992E-01 0.509071972E-01 0.100933886E-04 0.100921756E-04 -.120190156E-03
(PID.TID 0000.0001) 
(PID.TID 0000.0001) grdchk output:                 0              24               4               5               1 0.000000000E+00 -.100000000E-03
(PID.TID 0000.0001) grdchk output:                   0.509071982E-01 0.509071980E-01 0.509071984E-01 -.219474591E-05 -.219466380E-05 -.374160361E-04
(PID.TID 0000.0001) 
(PID.TID 0000.0001) grdchk output:                 0              25               5               5               1 0.000000000E+00 -.100000000E-03
(PID.TID 0000.0001) grdchk output:                   0.509071982E-01 0.509071970E-01 0.509071994E-01 -.121473389E-04 -.121475485E-04 0.172573389E-04
(PID.TID 0000.0001) 
(PID.TID 0000.0001) 
(PID.TID 0000.0001) // =======================================================
(PID.TID 0000.0001) // Gradient check results  >>> END <<<
(PID.TID 0000.0001) // =======================================================
(PID.TID 0000.0001) 
(PID.TID 0000.0001)   Seconds in section "ALL                    [THE_MODEL_MAIN]":
(PID.TID 0000.0001)           User time:  21.0817946
(PID.TID 0000.0001)         System time:  0.76488399
(PID.TID 0000.0001)     Wall clock time:  21.8506401
(PID.TID 0000.0001)          No. starts: 1
(PID.TID 0000.0001)           No. stops: 1
(PID.TID 0000.0001)   Seconds in section "INITIALISE_FIXED       [THE_MODEL_MAIN]":
(PID.TID 0000.0001)           User time:  0.0449930001
(PID.TID 0000.0001)         System time:  0.00699900044
(PID.TID 0000.0001)     Wall clock time:  0.052200079
(PID.TID 0000.0001)          No. starts: 1
(PID.TID 0000.0001)           No. stops: 1
(PID.TID 0000.0001)   Seconds in section "ADTHE_MAIN_LOOP          [ADJOINT RUN]":
(PID.TID 0000.0001)           User time:  2.25365788
(PID.TID 0000.0001)         System time:  0.0539919985
(PID.TID 0000.0001)     Wall clock time:  2.30729294
(PID.TID 0000.0001)          No. starts: 1
(PID.TID 0000.0001)           No. stops: 1
(PID.TID 0000.0001)   Seconds in section "LOAD_FIELDS_DRIVER  [FORWARD_STEP]":
(PID.TID 0000.0001)           User time:  0.629883148
(PID.TID 0000.0001)         System time:  0.0349961147
(PID.TID 0000.0001)     Wall clock time:  0.61715579
(PID.TID 0000.0001)          No. starts: 5200
(PID.TID 0000.0001)           No. stops: 5200
(PID.TID 0000.0001)   Seconds in section "EXTERNAL_FLDS_LOAD [LOAD_FLDS_DRIVER]":
(PID.TID 0000.0001)           User time:  0.218970604
(PID.TID 0000.0001)         System time:  0.0159981176
(PID.TID 0000.0001)     Wall clock time:  0.213482857
(PID.TID 0000.0001)          No. starts: 5400
(PID.TID 0000.0001)           No. stops: 5400
(PID.TID 0000.0001)   Seconds in section "DO_ATMOSPHERIC_PHYS [FORWARD_STEP]":
(PID.TID 0000.0001)           User time:  0.152971879
(PID.TID 0000.0001)         System time:  0.0159970038
(PID.TID 0000.0001)     Wall clock time:  0.204899788
(PID.TID 0000.0001)          No. starts: 5200
(PID.TID 0000.0001)           No. stops: 5200
(PID.TID 0000.0001)   Seconds in section "DO_OCEANIC_PHYS     [FORWARD_STEP]":
(PID.TID 0000.0001)           User time:  1.02384889
(PID.TID 0000.0001)         System time:  0.0139980465
(PID.TID 0000.0001)     Wall clock time:  1.00774431
(PID.TID 0000.0001)          No. starts: 5200
(PID.TID 0000.0001)           No. stops: 5200
(PID.TID 0000.0001)   Seconds in section "THERMODYNAMICS      [FORWARD_STEP]":
(PID.TID 0000.0001)           User time:  2.64964481
(PID.TID 0000.0001)         System time:  0.015997
(PID.TID 0000.0001)     Wall clock time:  2.71763182
(PID.TID 0000.0001)          No. starts: 5200
(PID.TID 0000.0001)           No. stops: 5200
(PID.TID 0000.0001)   Seconds in section "DYNAMICS            [FORWARD_STEP]":
(PID.TID 0000.0001)           User time:  5.45416436
(PID.TID 0000.0001)         System time:  0.0249969289
(PID.TID 0000.0001)     Wall clock time:  5.47162795
(PID.TID 0000.0001)          No. starts: 5200
(PID.TID 0000.0001)           No. stops: 5200
(PID.TID 0000.0001)   Seconds in section "SOLVE_FOR_PRESSURE  [FORWARD_STEP]":
(PID.TID 0000.0001)           User time:  2.92755166
(PID.TID 0000.0001)         System time:  0.0139960647
(PID.TID 0000.0001)     Wall clock time:  2.98567772
(PID.TID 0000.0001)          No. starts: 5200
(PID.TID 0000.0001)           No. stops: 5200
(PID.TID 0000.0001)   Seconds in section "MOM_CORRECTION_STEP [FORWARD_STEP]":
(PID.TID 0000.0001)           User time:  0.491930574
(PID.TID 0000.0001)         System time:  0.013998121
(PID.TID 0000.0001)     Wall clock time:  0.481102228
(PID.TID 0000.0001)          No. starts: 5200
(PID.TID 0000.0001)           No. stops: 5200
(PID.TID 0000.0001)   Seconds in section "TRC_CORRECTION_STEP [FORWARD_STEP]":
(PID.TID 0000.0001)           User time:  0.235969782
(PID.TID 0000.0001)         System time:  0.0139960926
(PID.TID 0000.0001)     Wall clock time:  0.2865839
(PID.TID 0000.0001)          No. starts: 5200
(PID.TID 0000.0001)           No. stops: 5200
(PID.TID 0000.0001)   Seconds in section "BLOCKING_EXCHANGES  [FORWARD_STEP]":
(PID.TID 0000.0001)           User time:  0.900858827
(PID.TID 0000.0001)         System time:  0.0189969987
(PID.TID 0000.0001)     Wall clock time:  0.868405104
(PID.TID 0000.0001)          No. starts: 5200
(PID.TID 0000.0001)           No. stops: 5200
(PID.TID 0000.0001)   Seconds in section "DO_STATEVARS_TAVE   [FORWARD_STEP]":
(PID.TID 0000.0001)           User time:  0.159969658
(PID.TID 0000.0001)         System time:  0.0109999701
(PID.TID 0000.0001)     Wall clock time:  0.206501484
(PID.TID 0000.0001)          No. starts: 5200
(PID.TID 0000.0001)           No. stops: 5200
(PID.TID 0000.0001)   Seconds in section "MONITOR             [FORWARD_STEP]":
(PID.TID 0000.0001)           User time:  0.483955495
(PID.TID 0000.0001)         System time:  0.0149960089
(PID.TID 0000.0001)     Wall clock time:  0.511300802
(PID.TID 0000.0001)          No. starts: 5200
(PID.TID 0000.0001)           No. stops: 5200
(PID.TID 0000.0001)   Seconds in section "COST_TILE           [FORWARD_STEP]":
(PID.TID 0000.0001)           User time:  0.403937332
(PID.TID 0000.0001)         System time:  0.0139960051
(PID.TID 0000.0001)     Wall clock time:  0.391731501
(PID.TID 0000.0001)          No. starts: 5200
(PID.TID 0000.0001)           No. stops: 5200
(PID.TID 0000.0001)   Seconds in section "DO_THE_MODEL_IO     [FORWARD_STEP]":
(PID.TID 0000.0001)           User time:  0.301950067
(PID.TID 0000.0001)         System time:  0.105980858
(PID.TID 0000.0001)     Wall clock time:  0.384959221
(PID.TID 0000.0001)          No. starts: 5200
(PID.TID 0000.0001)           No. stops: 5200
(PID.TID 0000.0001)   Seconds in section "DO_WRITE_PICKUP     [FORWARD_STEP]":
(PID.TID 0000.0001)           User time:  0.258961163
(PID.TID 0000.0001)         System time:  0.0989881828
(PID.TID 0000.0001)     Wall clock time:  0.396071672
(PID.TID 0000.0001)          No. starts: 5200
(PID.TID 0000.0001)           No. stops: 5200
(PID.TID 0000.0001)   Seconds in section "CTRL_PACK           [THE_MODEL_MAIN]":
(PID.TID 0000.0001)           User time:  0.00100016594
(PID.TID 0000.0001)         System time:  0.000999003649
(PID.TID 0000.0001)     Wall clock time:  0.00198698044
(PID.TID 0000.0001)          No. starts: 1
(PID.TID 0000.0001)           No. stops: 1
(PID.TID 0000.0001)   Seconds in section "CTRL_PACK     [THE_MODEL_MAIN]":
(PID.TID 0000.0001)           User time:  0.00199890137
(PID.TID 0000.0001)         System time:  0.
(PID.TID 0000.0001)     Wall clock time:  0.00191283226
(PID.TID 0000.0001)          No. starts: 1
(PID.TID 0000.0001)           No. stops: 1
(PID.TID 0000.0001)   Seconds in section "GRDCHK_MAIN         [THE_MODEL_MAIN]":
(PID.TID 0000.0001)           User time:  18.7801447
(PID.TID 0000.0001)         System time:  0.702893987
(PID.TID 0000.0001)     Wall clock time:  19.4869709
(PID.TID 0000.0001)          No. starts: 1
(PID.TID 0000.0001)           No. stops: 1
(PID.TID 0000.0001)   Seconds in section "INITIALISE_VARIA    [THE_MAIN_LOOP]":
(PID.TID 0000.0001)           User time:  0.439935446
(PID.TID 0000.0001)         System time:  0.111983821
(PID.TID 0000.0001)     Wall clock time:  0.553824425
(PID.TID 0000.0001)          No. starts: 50
(PID.TID 0000.0001)           No. stops: 50
(PID.TID 0000.0001)   Seconds in section "MAIN LOOP           [THE_MAIN_LOOP]":
(PID.TID 0000.0001)           User time:  18.2972169
(PID.TID 0000.0001)         System time:  0.572913095
(PID.TID 0000.0001)     Wall clock time:  18.8721142
(PID.TID 0000.0001)          No. starts: 50
(PID.TID 0000.0001)           No. stops: 50
(PID.TID 0000.0001)   Seconds in section "FORWARD_STEP        [THE_MAIN_LOOP]":
(PID.TID 0000.0001)           User time:  18.0132682
(PID.TID 0000.0001)         System time:  0.563914023
(PID.TID 0000.0001)     Wall clock time:  18.5831573
(PID.TID 0000.0001)          No. starts: 5000
(PID.TID 0000.0001)           No. stops: 5000
(PID.TID 0000.0001)   Seconds in section "COST_FINAL         [ADJOINT SPIN-DOWN]":
(PID.TID 0000.0001)           User time:  0.00399827957
(PID.TID 0000.0001)         System time:  0.
(PID.TID 0000.0001)     Wall clock time:  0.00409865379
(PID.TID 0000.0001)          No. starts: 50
(PID.TID 0000.0001)           No. stops: 50
(PID.TID 0000.0001) // ======================================================
(PID.TID 0000.0001) // Tile <-> Tile communication statistics
(PID.TID 0000.0001) // ======================================================
(PID.TID 0000.0001) // o Tile number: 000001
(PID.TID 0000.0001) //         No. X exchanges =              0
(PID.TID 0000.0001) //            Max. X spins =              0
(PID.TID 0000.0001) //            Min. X spins =     1000000000
(PID.TID 0000.0001) //          Total. X spins =              0
(PID.TID 0000.0001) //            Avg. X spins =       0.00E+00
(PID.TID 0000.0001) //         No. Y exchanges =              0
(PID.TID 0000.0001) //            Max. Y spins =              0
(PID.TID 0000.0001) //            Min. Y spins =     1000000000
(PID.TID 0000.0001) //          Total. Y spins =              0
(PID.TID 0000.0001) //            Avg. Y spins =       0.00E+00
(PID.TID 0000.0001) // o Thread number: 000001
(PID.TID 0000.0001) //            No. barriers =        1017124
(PID.TID 0000.0001) //      Max. barrier spins =              1
(PID.TID 0000.0001) //      Min. barrier spins =              1
(PID.TID 0000.0001) //     Total barrier spins =        1017124
(PID.TID 0000.0001) //      Avg. barrier spins =       1.00E+00
