(PID.TID 0000.0001) 
(PID.TID 0000.0001) // ======================================================
(PID.TID 0000.0001) //                      MITgcm UV
(PID.TID 0000.0001) //                      =========
(PID.TID 0000.0001) // ======================================================
(PID.TID 0000.0001) // execution environment starting up...
(PID.TID 0000.0001) 
(PID.TID 0000.0001) // MITgcmUV version:  checkpoint68w
(PID.TID 0000.0001) // Build user:        mlosch
(PID.TID 0000.0001) // Build host:        bkli04m056
(PID.TID 0000.0001) // Build date:        Fri Apr 19 18:19:22 CEST 2024
(PID.TID 0000.0001) 
(PID.TID 0000.0001) // =======================================================
(PID.TID 0000.0001) // Execution Environment parameter file "eedata"
(PID.TID 0000.0001) // =======================================================
(PID.TID 0000.0001) ># Example "eedata" file
(PID.TID 0000.0001) ># Lines beginning "#" are comments
(PID.TID 0000.0001) ># nTx - No. threads per process in X
(PID.TID 0000.0001) ># nTy - No. threads per process in Y
(PID.TID 0000.0001) > &EEPARMS
(PID.TID 0000.0001) > nTx=1,
(PID.TID 0000.0001) > nTy=1,
(PID.TID 0000.0001) > /
(PID.TID 0000.0001) ># Note: Some systems use & as the namelist terminator (as shown here).
(PID.TID 0000.0001) >#       Other systems use a / character.
(PID.TID 0000.0001) 
(PID.TID 0000.0001) // =======================================================
(PID.TID 0000.0001) // Computational Grid Specification ( see files "SIZE.h" )
(PID.TID 0000.0001) //                                  ( and "eedata"       )
(PID.TID 0000.0001) // =======================================================
(PID.TID 0000.0001)      nPx =    1 ; /* No. processes in X */
(PID.TID 0000.0001)      nPy =    1 ; /* No. processes in Y */
(PID.TID 0000.0001)      nSx =    2 ; /* No. tiles in X per process */
(PID.TID 0000.0001)      nSy =    1 ; /* No. tiles in Y per process */
(PID.TID 0000.0001)      sNx =    5 ; /* Tile size in X */
(PID.TID 0000.0001)      sNy =    8 ; /* Tile size in Y */
(PID.TID 0000.0001)      OLx =    4 ; /* Tile overlap distance in X */
(PID.TID 0000.0001)      OLy =    4 ; /* Tile overlap distance in Y */
(PID.TID 0000.0001)      nTx =    1 ; /* No. threads in X per process */
(PID.TID 0000.0001)      nTy =    1 ; /* No. threads in Y per process */
(PID.TID 0000.0001)       Nr =   23 ; /* No. levels in the vertical   */
(PID.TID 0000.0001)       Nx =   10 ; /* Total domain size in X ( = nPx*nSx*sNx ) */
(PID.TID 0000.0001)       Ny =    8 ; /* Total domain size in Y ( = nPy*nSy*sNy ) */
(PID.TID 0000.0001)   nTiles =    2 ; /* Total no. tiles per process ( = nSx*nSy ) */
(PID.TID 0000.0001)   nProcs =    1 ; /* Total no. processes ( = nPx*nPy ) */
(PID.TID 0000.0001) nThreads =    1 ; /* Total no. threads per process ( = nTx*nTy ) */
(PID.TID 0000.0001) usingMPI =    F ; /* Flag used to control whether MPI is in use */
(PID.TID 0000.0001)                   /*  note: To execute a program with MPI calls */
(PID.TID 0000.0001)                   /*  it must be launched appropriately e.g     */
(PID.TID 0000.0001)                   /*  "mpirun -np 64 ......"                    */
(PID.TID 0000.0001) useCoupler=   F ; /* Flag used to control communications with   */
(PID.TID 0000.0001)                   /*  other model components, through a coupler */
(PID.TID 0000.0001) useNest2W_parent =    F ;/* Control 2-W Nesting comm */
(PID.TID 0000.0001) useNest2W_child  =    F ;/* Control 2-W Nesting comm */
(PID.TID 0000.0001) debugMode =    F ; /* print debug msg. (sequence of S/R calls)  */
(PID.TID 0000.0001) printMapIncludesZeros=    F ; /* print zeros in Std.Output maps */
(PID.TID 0000.0001) maxLengthPrt1D=   65 /* maxLength of 1D array printed to StdOut */
(PID.TID 0000.0001) 
(PID.TID 0000.0001) // ======================================================
(PID.TID 0000.0001) // Mapping of tiles to threads
(PID.TID 0000.0001) // ======================================================
(PID.TID 0000.0001) // -o- Thread   1, tiles (   1:   2,   1:   1)
(PID.TID 0000.0001) 
(PID.TID 0000.0001) // ======================================================
(PID.TID 0000.0001) // Tile <-> Tile connectvity table
(PID.TID 0000.0001) // ======================================================
(PID.TID 0000.0001) // Tile number: 000001 (process no. = 000000)
(PID.TID 0000.0001) //        WEST: Tile = 000002, Process = 000000, Comm = put
(PID.TID 0000.0001) //                bi = 000002, bj = 000001
(PID.TID 0000.0001) //        EAST: Tile = 000002, Process = 000000, Comm = put
(PID.TID 0000.0001) //                bi = 000002, bj = 000001
(PID.TID 0000.0001) //       SOUTH: Tile = 000001, Process = 000000, Comm = put
(PID.TID 0000.0001) //                bi = 000001, bj = 000001
(PID.TID 0000.0001) //       NORTH: Tile = 000001, Process = 000000, Comm = put
(PID.TID 0000.0001) //                bi = 000001, bj = 000001
(PID.TID 0000.0001) // Tile number: 000002 (process no. = 000000)
(PID.TID 0000.0001) //        WEST: Tile = 000001, Process = 000000, Comm = put
(PID.TID 0000.0001) //                bi = 000001, bj = 000001
(PID.TID 0000.0001) //        EAST: Tile = 000001, Process = 000000, Comm = put
(PID.TID 0000.0001) //                bi = 000001, bj = 000001
(PID.TID 0000.0001) //       SOUTH: Tile = 000002, Process = 000000, Comm = put
(PID.TID 0000.0001) //                bi = 000002, bj = 000001
(PID.TID 0000.0001) //       NORTH: Tile = 000002, Process = 000000, Comm = put
(PID.TID 0000.0001) //                bi = 000002, bj = 000001
(PID.TID 0000.0001) 
(PID.TID 0000.0001)  INI_PARMS: opening model parameter file "data"
(PID.TID 0000.0001)  OPEN_COPY_DATA_FILE: opening file data
(PID.TID 0000.0001) // =======================================================
(PID.TID 0000.0001) // Parameter file "data"
(PID.TID 0000.0001) // =======================================================
(PID.TID 0000.0001) ># ====================
(PID.TID 0000.0001) ># | Model parameters |
(PID.TID 0000.0001) ># ====================
(PID.TID 0000.0001) >#
(PID.TID 0000.0001) ># Continuous equation parameters
(PID.TID 0000.0001) >#
(PID.TID 0000.0001) >#   tRef            - Reference vertical potential temperature          (deg C)
(PID.TID 0000.0001) >#   sRef            - Reference vertical salinity                         (PSU)
(PID.TID 0000.0001) >#   viscAh          - Horizontal eddy viscosity coefficient             (m^2/s)
(PID.TID 0000.0001) >#   viscAz          - Vertical eddy viscosity coefficient               (m^2/s)
(PID.TID 0000.0001) >#   diffKhT         - Horizontal temperature diffusivity                (m^2/s)
(PID.TID 0000.0001) >#   diffKzT         - Vertical temperature diffusivity                  (m^2/s)
(PID.TID 0000.0001) >#   diffKhS         - Horizontal salt diffusivity                       (m^2/s)
(PID.TID 0000.0001) >#   diffKzS         - Vertical salt diffusivity                         (m^2/s)
(PID.TID 0000.0001) >#   gravity         - Acceleration due to gravity                       (m/s^2)
(PID.TID 0000.0001) >#   rigidLid        - Set to true to use rigid lid
(PID.TID 0000.0001) >#   implicitFreeSurface - Set to true to use implicit free surface
(PID.TID 0000.0001) >#   eosType         - Flag for linear or polynomial equation of state
(PID.TID 0000.0001) >#   momAdvection    - On/Off flag for momentum self transport
(PID.TID 0000.0001) >#   momViscosity    - On/Off flag for momentum mixing
(PID.TID 0000.0001) >#
(PID.TID 0000.0001) > &PARM01
(PID.TID 0000.0001) > tRef= 24.0 , 23.0 , 22.0 , 21.0 , 20.0 ,
(PID.TID 0000.0001) >       19.0 , 18.0 , 17.0 , 16.0 , 15.0 ,
(PID.TID 0000.0001) >       14.0 , 13.0 , 12.0 , 11.0 , 10.0 ,
(PID.TID 0000.0001) >        9.0 ,  8.0 ,  7.0 ,  6.0,   5.0 ,
(PID.TID 0000.0001) >        4.0 ,  3.0 ,  2.0 ,
(PID.TID 0000.0001) > sRef= 34.65, 34.75, 34.82, 34.87, 34.90,
(PID.TID 0000.0001) >       34.90, 34.86, 34.78, 34.69, 34.60,
(PID.TID 0000.0001) >       34.58, 34.62, 34.68, 34.72, 34.73,
(PID.TID 0000.0001) >       34.74, 34.73, 34.73, 34.72, 34.72,
(PID.TID 0000.0001) >       34.71, 34.70, 34.69,
(PID.TID 0000.0001) > no_slip_sides=.FALSE.,
(PID.TID 0000.0001) > no_slip_bottom=.TRUE.,
(PID.TID 0000.0001) > viscAz=1.93e-5,
(PID.TID 0000.0001) > viscAh=5.E4,
(PID.TID 0000.0001) > diffKhT=0.0,
(PID.TID 0000.0001) > diffKzT=1.46e-5,
(PID.TID 0000.0001) > diffKhS=0.0,
(PID.TID 0000.0001) > diffKzS=1.46e-5,
(PID.TID 0000.0001) > rigidLid=.FALSE.,
(PID.TID 0000.0001) > implicitFreeSurface=.TRUE.,
(PID.TID 0000.0001) > eosType='JMD95Z',
(PID.TID 0000.0001) > saltStepping=.TRUE.,
(PID.TID 0000.0001) > tempStepping=.TRUE.,
(PID.TID 0000.0001) > momStepping=.TRUE.,
(PID.TID 0000.0001) > implicitDiffusion=.TRUE.,
(PID.TID 0000.0001) > implicitViscosity=.TRUE.,
(PID.TID 0000.0001) > staggerTimeStep=.TRUE.,
(PID.TID 0000.0001) > tempAdvScheme =33,
(PID.TID 0000.0001) > saltAdvScheme =33,
(PID.TID 0000.0001) > convertFW2Salt=-1,
(PID.TID 0000.0001) > allowFreezing=.FALSE.,
(PID.TID 0000.0001) >#- set wrong celsius2K to reproduce old results:
(PID.TID 0000.0001) > celsius2K=273.16,
(PID.TID 0000.0001) > HeatCapacity_Cp = 3986.D0,
(PID.TID 0000.0001) > gravity         = 9.8156,
(PID.TID 0000.0001) > rhoConst        = 1027.D0,
(PID.TID 0000.0001) > rhoConstFresh   = 999.8,
(PID.TID 0000.0001) > useSingleCpuIO=.TRUE.,
(PID.TID 0000.0001) > readBinaryPrec=32,
(PID.TID 0000.0001) > writeBinaryPrec=32,
(PID.TID 0000.0001) > /
(PID.TID 0000.0001) >
(PID.TID 0000.0001) ># Elliptic solver parameters
(PID.TID 0000.0001) >#
(PID.TID 0000.0001) >#   cg2dMaxIters       - Maximum number of 2d solver iterations
(PID.TID 0000.0001) >#   cg2dTargetResidual - Solver target residual
(PID.TID 0000.0001) >#
(PID.TID 0000.0001) > &PARM02
(PID.TID 0000.0001) > cg2dMaxIters=500,
(PID.TID 0000.0001) > cg2dTargetResidual=1.E-12,
(PID.TID 0000.0001) > /
(PID.TID 0000.0001) >
(PID.TID 0000.0001) ># Time stepping parameters
(PID.TID 0000.0001) >#
(PID.TID 0000.0001) >#   startTime         - Integration starting time                (s)
(PID.TID 0000.0001) >#   endTime           - Integration ending time                  (s)
(PID.TID 0000.0001) >#   deltaTMom         - Timestep for momemtum equations          (s)
(PID.TID 0000.0001) >#   deltaTtracer      - Tracer timestep                          (s)
(PID.TID 0000.0001) >#   deltaTClock       - Timestep used as model "clock"           (s)
(PID.TID 0000.0001) >#   abEps             - Adams-Bashforth stabilising factor
(PID.TID 0000.0001) >#   pChkPtFreq        - Frequency of permanent check pointing    (s)
(PID.TID 0000.0001) >#   chkPtFreq         - Frequency of rolling check pointing      (s)
(PID.TID 0000.0001) >#   dumpFreq          - Frequency at which model state is stored (s)
(PID.TID 0000.0001) >#   tauThetaClimRelax - Relaxation to climatology time scale     (s)
(PID.TID 0000.0001) >#   tauSaltClimRelax  - Relaxation to climatology time scale     (s)
(PID.TID 0000.0001) >#
(PID.TID 0000.0001) > &PARM03
(PID.TID 0000.0001) > startTime=0.0,
(PID.TID 0000.0001) > endTime=21600.,
(PID.TID 0000.0001) > deltaT=3600.0,
(PID.TID 0000.0001) ># treat pickup at timestep 1 as if at timestep 0
(PID.TID 0000.0001) > pickupSuff='0000000001',
(PID.TID 0000.0001) > cAdjFreq=0.,
(PID.TID 0000.0001) > abEps=0.1,
(PID.TID 0000.0001) > forcing_In_AB = .FALSE.,
(PID.TID 0000.0001) > pChkptFreq=36000.,
(PID.TID 0000.0001) > chkptFreq= 0.,
(PID.TID 0000.0001) > dumpFreq = 0.,
(PID.TID 0000.0001) >#ADJdumpFreq = 1.,
(PID.TID 0000.0001) > monitorFreq=1.,
(PID.TID 0000.0001) > adjMonitorFreq=1.,
(PID.TID 0000.0001) > pickupStrictlyMatch=.FALSE.,
(PID.TID 0000.0001) > /
(PID.TID 0000.0001) >
(PID.TID 0000.0001) ># Gridding parameters
(PID.TID 0000.0001) >#
(PID.TID 0000.0001) >#   usingSphericalPolarGrid - On/Off flag for spherical polar coordinates
(PID.TID 0000.0001) >#   delX                    - Zonal grid spacing         (degrees)
(PID.TID 0000.0001) >#   delY                    - Meridional grid spacing    (degrees)
(PID.TID 0000.0001) >#   delZ                    - Vertical grid spacing      (m)
(PID.TID 0000.0001) >#   ygOrigin                - Southern boundary latitude (degrees)
(PID.TID 0000.0001) >#
(PID.TID 0000.0001) > &PARM04
(PID.TID 0000.0001) > usingSphericalPolarGrid=.TRUE.,
(PID.TID 0000.0001) > delX=10*2.E0,
(PID.TID 0000.0001) > delY= 8*2.E0,
(PID.TID 0000.0001) > delZ= 10., 10., 15., 20., 20., 25., 35., 50., 75.,
(PID.TID 0000.0001) >       100., 150., 200., 275., 350., 415., 450.,
(PID.TID 0000.0001) >       500., 500., 500., 500., 500., 500., 500.,
(PID.TID 0000.0001) > ygOrigin=46.,
(PID.TID 0000.0001) > xgOrigin=280.,
(PID.TID 0000.0001) > rSphere = 6371.D3,
(PID.TID 0000.0001) > /
(PID.TID 0000.0001) >
(PID.TID 0000.0001) ># Input datasets
(PID.TID 0000.0001) >#
(PID.TID 0000.0001) >#   bathyFile       - File containing bathymetry
(PID.TID 0000.0001) >#   hydrogThetaFile - File containing initial potential temperature data
(PID.TID 0000.0001) >#   hydrogSaltFile  - File containing initial salinity data
(PID.TID 0000.0001) >#   zonalWindFile   - File containing zonal wind data
(PID.TID 0000.0001) >#   meridWindFile   - File containing meridional wind data
(PID.TID 0000.0001) >#   thetaClimFile   - File containing theta climatology used for relaxation
(PID.TID 0000.0001) >#   saltClimFile    - File containing salt climatology used for relaxation
(PID.TID 0000.0001) >#
(PID.TID 0000.0001) > &PARM05
(PID.TID 0000.0001) > bathyFile       = 'bathy.seaice_obcs',
(PID.TID 0000.0001) > /
(PID.TID 0000.0001) 
(PID.TID 0000.0001)  INI_PARMS ; starts to read PARM01
(PID.TID 0000.0001)  INI_PARMS ; read PARM01 : OK
(PID.TID 0000.0001)  INI_PARMS ; starts to read PARM02
(PID.TID 0000.0001)  INI_PARMS ; read PARM02 : OK
(PID.TID 0000.0001)  INI_PARMS ; starts to read PARM03
(PID.TID 0000.0001)  INI_PARMS ; read PARM03 : OK
(PID.TID 0000.0001)  INI_PARMS ; starts to read PARM04
(PID.TID 0000.0001)  INI_PARMS ; read PARM04 : OK
(PID.TID 0000.0001)  INI_PARMS ; starts to read PARM05
(PID.TID 0000.0001)  INI_PARMS ; read PARM05 : OK
(PID.TID 0000.0001)  INI_PARMS: finished reading file "data"
(PID.TID 0000.0001)  PACKAGES_BOOT: opening data.pkg
(PID.TID 0000.0001)  OPEN_COPY_DATA_FILE: opening file data.pkg
(PID.TID 0000.0001) // =======================================================
(PID.TID 0000.0001) // Parameter file "data.pkg"
(PID.TID 0000.0001) // =======================================================
(PID.TID 0000.0001) ># Packages
(PID.TID 0000.0001) > &PACKAGES
(PID.TID 0000.0001) >  useGMRedi = .TRUE.,
(PID.TID 0000.0001) >  useKPP    = .TRUE.,
(PID.TID 0000.0001) >  useEXF    = .TRUE.,
(PID.TID 0000.0001) >  useCAL    = .TRUE.,
(PID.TID 0000.0001) >  useSEAICE = .TRUE.,
(PID.TID 0000.0001) >  useSALT_PLUME  = .TRUE.,
(PID.TID 0000.0001) >  useOBCS        = .TRUE.,
(PID.TID 0000.0001) >  useCTRL  = .TRUE.,
(PID.TID 0000.0001) >  useGrdchk = .TRUE.,
(PID.TID 0000.0001) > /
(PID.TID 0000.0001) 
(PID.TID 0000.0001)  PACKAGES_BOOT: finished reading data.pkg
(PID.TID 0000.0001)  PACKAGES_BOOT: On/Off package Summary
 --------  pkgs with a standard "usePKG" On/Off switch in "data.pkg":  --------
 pkg/obcs                 compiled   and   used ( useOBCS                  = T )
 pkg/kpp                  compiled   and   used ( useKPP                   = T )
 pkg/gmredi               compiled   and   used ( useGMRedi                = T )
 pkg/cal                  compiled   and   used ( useCAL                   = T )
 pkg/exf                  compiled   and   used ( useEXF                   = T )
 pkg/autodiff             compiled   and   used ( useAUTODIFF              = T )
 pkg/grdchk               compiled   and   used ( useGrdchk                = T )
 pkg/ctrl                 compiled   and   used ( useCTRL                  = T )
 pkg/seaice               compiled   and   used ( useSEAICE                = T )
 pkg/salt_plume           compiled   and   used ( useSALT_PLUME            = T )
 -------- pkgs without standard "usePKG" On/Off switch in "data.pkg":  --------
 pkg/generic_advdiff      compiled   and   used ( useGAD                   = T )
 pkg/mom_common           compiled   and   used ( momStepping              = T )
 pkg/mom_vecinv           compiled but not used ( +vectorInvariantMomentum = F )
 pkg/mom_fluxform         compiled   and   used ( & not vectorInvariantMom = T )
 pkg/monitor              compiled   and   used ( monitorFreq > 0.         = T )
 pkg/debug                compiled but not used ( debugMode                = F )
 pkg/rw                   compiled   and   used
 pkg/mdsio                compiled   and   used
 pkg/autodiff             compiled   and   used
 pkg/cost                 compiled   and   used
(PID.TID 0000.0001)  PACKAGES_BOOT: End of package Summary
(PID.TID 0000.0001) 
(PID.TID 0000.0001) CAL_READPARMS: opening data.cal
(PID.TID 0000.0001)  OPEN_COPY_DATA_FILE: opening file data.cal
(PID.TID 0000.0001) // =======================================================
(PID.TID 0000.0001) // Parameter file "data.cal"
(PID.TID 0000.0001) // =======================================================
(PID.TID 0000.0001) >#
(PID.TID 0000.0001) ># *******************
(PID.TID 0000.0001) ># Calendar Parameters
(PID.TID 0000.0001) ># *******************
(PID.TID 0000.0001) > &CAL_NML
(PID.TID 0000.0001) > TheCalendar='gregorian',
(PID.TID 0000.0001) > startDate_1=19790101,
(PID.TID 0000.0001) > startDate_2=000000,
(PID.TID 0000.0001) > /
(PID.TID 0000.0001) 
(PID.TID 0000.0001) CAL_READPARMS: finished reading data.cal
(PID.TID 0000.0001) EXF_READPARMS: opening data.exf
(PID.TID 0000.0001)  OPEN_COPY_DATA_FILE: opening file data.exf
(PID.TID 0000.0001) // =======================================================
(PID.TID 0000.0001) // Parameter file "data.exf"
(PID.TID 0000.0001) // =======================================================
(PID.TID 0000.0001) >#
(PID.TID 0000.0001) ># *********************
(PID.TID 0000.0001) ># External Forcing Data
(PID.TID 0000.0001) ># *********************
(PID.TID 0000.0001) > &EXF_NML_01
(PID.TID 0000.0001) >#
(PID.TID 0000.0001) > useExfCheckRange  = .TRUE.,
(PID.TID 0000.0001) > repeatPeriod      = 31622400.0,
(PID.TID 0000.0001) > exf_iprec         = 32,
(PID.TID 0000.0001) >#
(PID.TID 0000.0001) > /
(PID.TID 0000.0001) >
(PID.TID 0000.0001) ># *********************
(PID.TID 0000.0001) > &EXF_NML_02
(PID.TID 0000.0001) >#
(PID.TID 0000.0001) > hfluxstartdate1   = 19781216,
(PID.TID 0000.0001) > hfluxstartdate2   = 180000,
(PID.TID 0000.0001) > hfluxperiod       = 2635200.0,
(PID.TID 0000.0001) >#
(PID.TID 0000.0001) > sfluxstartdate1   = 19781216,
(PID.TID 0000.0001) > sfluxstartdate2   = 180000,
(PID.TID 0000.0001) > sfluxperiod       = 2635200.0,
(PID.TID 0000.0001) >#
(PID.TID 0000.0001) > ustressstartdate1 = 19781216,
(PID.TID 0000.0001) > ustressstartdate2 = 180000,
(PID.TID 0000.0001) > ustressperiod     = 2635200.0,
(PID.TID 0000.0001) >#
(PID.TID 0000.0001) > vstressstartdate1 = 19781216,
(PID.TID 0000.0001) > vstressstartdate2 = 180000,
(PID.TID 0000.0001) > vstressperiod     = 2635200.0,
(PID.TID 0000.0001) >#
(PID.TID 0000.0001) > atempstartdate1   = 19781216,
(PID.TID 0000.0001) > atempstartdate2   = 180000,
(PID.TID 0000.0001) > atempperiod       = 2635200.0,
(PID.TID 0000.0001) >#
(PID.TID 0000.0001) > aqhstartdate1     = 19781216,
(PID.TID 0000.0001) > aqhstartdate2     = 180000,
(PID.TID 0000.0001) > aqhperiod         = 2635200.0,
(PID.TID 0000.0001) >#
(PID.TID 0000.0001) >#evapstartdate1    = 19781216,
(PID.TID 0000.0001) >#evapstartdate2    = 180000,
(PID.TID 0000.0001) >#evapperiod        = 2635200.0,
(PID.TID 0000.0001) >#
(PID.TID 0000.0001) > precipstartdate1  = 19781216,
(PID.TID 0000.0001) > precipstartdate2  = 180000,
(PID.TID 0000.0001) > precipperiod      = 2635200.0,
(PID.TID 0000.0001) >#
(PID.TID 0000.0001) > uwindstartdate1   = 19781216,
(PID.TID 0000.0001) > uwindstartdate2   = 180000,
(PID.TID 0000.0001) > uwindperiod       = 2635200.0,
(PID.TID 0000.0001) >#
(PID.TID 0000.0001) > vwindstartdate1   = 19781216,
(PID.TID 0000.0001) > vwindstartdate2   = 180000,
(PID.TID 0000.0001) > vwindperiod       = 2635200.0,
(PID.TID 0000.0001) >#
(PID.TID 0000.0001) > swfluxstartdate1  = 19781216,
(PID.TID 0000.0001) > swfluxstartdate2  = 180000,
(PID.TID 0000.0001) > swfluxperiod      = 2635200.0,
(PID.TID 0000.0001) >#
(PID.TID 0000.0001) > lwfluxstartdate1  = 19781216,
(PID.TID 0000.0001) > lwfluxstartdate2  = 180000,
(PID.TID 0000.0001) > lwfluxperiod      = 2635200.0,
(PID.TID 0000.0001) >#
(PID.TID 0000.0001) > swdownstartdate1  = 19781216,
(PID.TID 0000.0001) > swdownstartdate2  = 180000,
(PID.TID 0000.0001) > swdownperiod      = 2635200.0,
(PID.TID 0000.0001) >#
(PID.TID 0000.0001) > lwdownstartdate1  = 19781216,
(PID.TID 0000.0001) > lwdownstartdate2  = 180000,
(PID.TID 0000.0001) > lwdownperiod      = 2635200.0,
(PID.TID 0000.0001) >#
(PID.TID 0000.0001) > climsststartdate1  = 19781216,
(PID.TID 0000.0001) > climsststartdate2  = 180000,
(PID.TID 0000.0001) > climsstperiod      = 2635200.0,
(PID.TID 0000.0001) > climsstTauRelax    = 0.0,
(PID.TID 0000.0001) >#
(PID.TID 0000.0001) > climsssstartdate1  = 19781216,
(PID.TID 0000.0001) > climsssstartdate2  = 180000,
(PID.TID 0000.0001) > climsssperiod      = 2635200.0,
(PID.TID 0000.0001) > climsssTauRelax    = 4142330.0,
(PID.TID 0000.0001) >#
(PID.TID 0000.0001) > hfluxfile         = ' ',
(PID.TID 0000.0001) > sfluxfile         = ' ',
(PID.TID 0000.0001) > ustressfile       = ' ',
(PID.TID 0000.0001) > vstressfile       = ' ',
(PID.TID 0000.0001) > atempfile         = 'tair.labsea1979',
(PID.TID 0000.0001) > aqhfile           = 'qa.labsea1979',
(PID.TID 0000.0001) > uwindfile         = 'u10m.labsea1979',
(PID.TID 0000.0001) > vwindfile         = 'v10m.labsea1979',
(PID.TID 0000.0001) >#evapfile          = 'evap.labsea1979',
(PID.TID 0000.0001) > precipfile        = 'prate.labsea1979',
(PID.TID 0000.0001) > lwfluxfile        = ' ',
(PID.TID 0000.0001) > swfluxfile        = ' ',
(PID.TID 0000.0001) > lwdownfile        = 'flo.labsea1979',
(PID.TID 0000.0001) > swdownfile        = 'fsh.labsea1979',
(PID.TID 0000.0001) > runoffFile        = ' '
(PID.TID 0000.0001) > climsstfile       = ' ',
(PID.TID 0000.0001) > climsssfile       = 'SSS_monthly.labsea1979',
(PID.TID 0000.0001) >#
(PID.TID 0000.0001) > /
(PID.TID 0000.0001) >
(PID.TID 0000.0001) ># *********************
(PID.TID 0000.0001) > &EXF_NML_03
(PID.TID 0000.0001) > /
(PID.TID 0000.0001) >
(PID.TID 0000.0001) ># *********************
(PID.TID 0000.0001) ># old open64 compiler (4.2.1) cannot skip this namelist to read in the next one;
(PID.TID 0000.0001) ># comment out this namelist (not read).
(PID.TID 0000.0001) >#&EXF_NML_04
(PID.TID 0000.0001) >#&
(PID.TID 0000.0001) >
(PID.TID 0000.0001) ># *********************
(PID.TID 0000.0001) > &EXF_NML_OBCS
(PID.TID 0000.0001) > obcsSstartdate1   = 19790101,
(PID.TID 0000.0001) > obcsSstartdate2   = 000000,
(PID.TID 0000.0001) > obcsSperiod       = 3600.0,
(PID.TID 0000.0001) >#
(PID.TID 0000.0001) > obcsNstartdate1   = 19790101,
(PID.TID 0000.0001) > obcsNstartdate2   = 000000,
(PID.TID 0000.0001) > obcsNperiod       = 3600.0,
(PID.TID 0000.0001) >#
(PID.TID 0000.0001) > obcsWstartdate1   = 19790101,
(PID.TID 0000.0001) > obcsWstartdate2   = 000000,
(PID.TID 0000.0001) > obcsWperiod       = 3600.0,
(PID.TID 0000.0001) >#
(PID.TID 0000.0001) > obcsEstartdate1   = 19790101,
(PID.TID 0000.0001) > obcsEstartdate2   = 000000,
(PID.TID 0000.0001) > obcsEperiod       = 3600.0,
(PID.TID 0000.0001) >#
(PID.TID 0000.0001) > siobSstartdate1   = 19790101,
(PID.TID 0000.0001) > siobSstartdate2   = 000000,
(PID.TID 0000.0001) > siobSperiod       = 3600.0,
(PID.TID 0000.0001) >#
(PID.TID 0000.0001) > siobNstartdate1   = 19790101,
(PID.TID 0000.0001) > siobNstartdate2   = 000000,
(PID.TID 0000.0001) > siobNperiod       = 3600.0,
(PID.TID 0000.0001) >#
(PID.TID 0000.0001) > siobWstartdate1   = 19790101,
(PID.TID 0000.0001) > siobWstartdate2   = 000000,
(PID.TID 0000.0001) > siobWperiod       = 3600.0,
(PID.TID 0000.0001) > /
(PID.TID 0000.0001) 
(PID.TID 0000.0001) EXF_READPARMS: reading EXF_NML_01
(PID.TID 0000.0001) EXF_READPARMS: reading EXF_NML_02
(PID.TID 0000.0001) EXF_READPARMS: reading EXF_NML_03
(PID.TID 0000.0001) EXF_READPARMS: reading EXF_NML_OBCS
(PID.TID 0000.0001) EXF_READPARMS: finished reading data.exf
(PID.TID 0000.0001)  OBCS_READPARMS: opening data.obcs
(PID.TID 0000.0001)  OPEN_COPY_DATA_FILE: opening file data.obcs
(PID.TID 0000.0001) // =======================================================
(PID.TID 0000.0001) // Parameter file "data.obcs"
(PID.TID 0000.0001) // =======================================================
(PID.TID 0000.0001) ># ***************
(PID.TID 0000.0001) ># Open boundaries
(PID.TID 0000.0001) ># ***************
(PID.TID 0000.0001) > &OBCS_PARM01
(PID.TID 0000.0001) > OB_Jsouth =   10*1,
(PID.TID 0000.0001) > OB_Jnorth =   10*8,
(PID.TID 0000.0001) > OB_Iwest  =   8*1,
(PID.TID 0000.0001) > OB_Ieast  =   8*10,
(PID.TID 0000.0001) ># This flag check and equalise topography across open boundaries:
(PID.TID 0000.0001) > OBCSfixTopo = .TRUE.,
(PID.TID 0000.0001) > useOBCSprescribe=.TRUE.,
(PID.TID 0000.0001) > useSeaiceNeumann=.TRUE.,
(PID.TID 0000.0001) >#
(PID.TID 0000.0001) > OBSsFile='OBSs.seaice_obcs',
(PID.TID 0000.0001) > OBStFile='OBSt.seaice_obcs',
(PID.TID 0000.0001) > OBSuFile='OBSu.seaice_obcs',
(PID.TID 0000.0001) > OBSvFile='OBSv.seaice_obcs',
(PID.TID 0000.0001) > OBNsFile='OBNs.seaice_obcs',
(PID.TID 0000.0001) > OBNtFile='OBNt.seaice_obcs',
(PID.TID 0000.0001) > OBNuFile='OBNu.seaice_obcs',
(PID.TID 0000.0001) > OBNvFile='OBNv.seaice_obcs',
(PID.TID 0000.0001) > OBWsFile='OBWs.seaice_obcs',
(PID.TID 0000.0001) > OBWtFile='OBWt.seaice_obcs',
(PID.TID 0000.0001) > OBWuFile='OBWu.seaice_obcs',
(PID.TID 0000.0001) > OBWvFile='OBWv.seaice_obcs',
(PID.TID 0000.0001) > OBEsFile='OBEs.seaice_obcs',
(PID.TID 0000.0001) > OBEtFile='OBEt.seaice_obcs',
(PID.TID 0000.0001) > OBEuFile='OBEu.seaice_obcs',
(PID.TID 0000.0001) > OBEvFile='OBEv.seaice_obcs',
(PID.TID 0000.0001) > /
(PID.TID 0000.0001) 
(PID.TID 0000.0001)  OBCS_READPARMS: finished reading data.obcs
(PID.TID 0000.0001)  OB_indexUnset = /* unset OB index value (i.e. no OB) */
(PID.TID 0000.0001)                       0
(PID.TID 0000.0001)     ;
(PID.TID 0000.0001)  Northern OB global indices : OB_Jnorth =
(PID.TID 0000.0001)    10 @        8                            /* I =  1: 10 */
(PID.TID 0000.0001)  Southern OB global indices : OB_Jsouth =
(PID.TID 0000.0001)    10 @        1                            /* I =  1: 10 */
(PID.TID 0000.0001)  Eastern  OB global indices : OB_Ieast =
(PID.TID 0000.0001)     8 @       10                            /* J =  1:  8 */
(PID.TID 0000.0001)  Western  OB global indices : OB_Iwest =
(PID.TID 0000.0001)     8 @        1                            /* J =  1:  8 */
(PID.TID 0000.0001) 
(PID.TID 0000.0001)  KPP_READPARMS: opening data.kpp
(PID.TID 0000.0001)  OPEN_COPY_DATA_FILE: opening file data.kpp
(PID.TID 0000.0001) // =======================================================
(PID.TID 0000.0001) // Parameter file "data.kpp"
(PID.TID 0000.0001) // =======================================================
(PID.TID 0000.0001) ># KPP parameters
(PID.TID 0000.0001) > &KPP_PARM01
(PID.TID 0000.0001) > KPPmixingMaps   = .FALSE.,
(PID.TID 0000.0001) > KPPwriteState   = .TRUE.,
(PID.TID 0000.0001) > KPP_ghatUseTotalDiffus=.TRUE.,
(PID.TID 0000.0001) > /
(PID.TID 0000.0001) 
(PID.TID 0000.0001)  KPP_READPARMS ; starts to read KPP_PARM01
(PID.TID 0000.0001)  KPP_READPARMS ; read KPP_PARM01 : OK
(PID.TID 0000.0001)  KPP_READPARMS: finished reading data.kpp
(PID.TID 0000.0001)  GM_READPARMS: opening data.gmredi
(PID.TID 0000.0001)  OPEN_COPY_DATA_FILE: opening file data.gmredi
(PID.TID 0000.0001) // =======================================================
(PID.TID 0000.0001) // Parameter file "data.gmredi"
(PID.TID 0000.0001) // =======================================================
(PID.TID 0000.0001) ># GMREDI parameters
(PID.TID 0000.0001) > &GM_PARM01
(PID.TID 0000.0001) >  GM_background_K    = 571.0,
(PID.TID 0000.0001) >  GM_taper_scheme    = 'ldd97',
(PID.TID 0000.0001) >  GM_Small_Number    = 1.D-12,
(PID.TID 0000.0001) >  GM_slopeSqCutoff   = 1.D+08,
(PID.TID 0000.0001) >  GM_AdvForm         = .TRUE.,
(PID.TID 0000.0001) >  GM_maxSlope        = 1.D-2,
(PID.TID 0000.0001) >  GM_Kmin_horiz      = 50.,
(PID.TID 0000.0001) >  GM_Scrit           = 4.D-3,
(PID.TID 0000.0001) >  GM_Sd              = 1.D-3,
(PID.TID 0000.0001) > /
(PID.TID 0000.0001) 
(PID.TID 0000.0001)  GM_READPARMS: finished reading data.gmredi
(PID.TID 0000.0001) 
(PID.TID 0000.0001)  SEAICE_READPARMS: opening data.seaice
(PID.TID 0000.0001)  OPEN_COPY_DATA_FILE: opening file data.seaice
(PID.TID 0000.0001) // =======================================================
(PID.TID 0000.0001) // Parameter file "data.seaice"
(PID.TID 0000.0001) // =======================================================
(PID.TID 0000.0001) ># SEAICE parameters
(PID.TID 0000.0001) > &SEAICE_PARM01
(PID.TID 0000.0001) ># turn on aEVP with some sensible parameters
(PID.TID 0000.0001) >  SEAICEaEVPcoeff     = 0.5,
(PID.TID 0000.0001) >  SEAICEnEVPstarSteps = 500,
(PID.TID 0000.0001) ># end of aEVP parameters
(PID.TID 0000.0001) >#- seaice state & transport params:
(PID.TID 0000.0001) >  SEAICEadvScheme    = 77,
(PID.TID 0000.0001) ># add small diffKh to test diffusion with multi-dim advect.
(PID.TID 0000.0001) >  SEAICEdiffKhArea   = 20.,
(PID.TID 0000.0001) >  SEAICE_salinityTracer = .FALSE.,
(PID.TID 0000.0001) >  SEAICE_saltFrac    = 0.3,
(PID.TID 0000.0001) >#- seaice thermodyn params:
(PID.TID 0000.0001) >  SEAICE_multDim     = 7,
(PID.TID 0000.0001) ># use the new standard way of specifying ocean-ice turb. flux coeff:
(PID.TID 0000.0001) >  SEAICE_mcPheePiston= 0.00004,
(PID.TID 0000.0001) >  SEAICE_frazilFrac  = 0.3,
(PID.TID 0000.0001) >#- seaice I/O params:
(PID.TID 0000.0001) >  SEAICEwriteState   = .TRUE.,
(PID.TID 0000.0001) > /
(PID.TID 0000.0001) >
(PID.TID 0000.0001) > &SEAICE_PARM02
(PID.TID 0000.0001) > mult_ice   = 1.E-15,
(PID.TID 0000.0001) > cost_ice_flag = 1,
(PID.TID 0000.0001) > /
(PID.TID 0000.0001) >
(PID.TID 0000.0001) > &SEAICE_PARM03
(PID.TID 0000.0001) > /
(PID.TID 0000.0001) 
(PID.TID 0000.0001)  SEAICE_READPARMS: finished reading data.seaice
(PID.TID 0000.0001) SALT_PLUME_READPARMS: opening data.salt_plume
(PID.TID 0000.0001)  OPEN_COPY_DATA_FILE: opening file data.salt_plume
(PID.TID 0000.0001) // =======================================================
(PID.TID 0000.0001) // Parameter file "data.salt_plume"
(PID.TID 0000.0001) // =======================================================
(PID.TID 0000.0001) > &SALT_PLUME_PARM01
(PID.TID 0000.0001) > SaltPlumeCriterion = 0.4D0
(PID.TID 0000.0001) > /
(PID.TID 0000.0001) 
(PID.TID 0000.0001) SALT_PLUME_READPARMS: finished reading data.salt_plume
(PID.TID 0000.0001) AUTODIFF_READPARMS: opening data.autodiff
(PID.TID 0000.0001)  OPEN_COPY_DATA_FILE: opening file data.autodiff
(PID.TID 0000.0001) // =======================================================
(PID.TID 0000.0001) // Parameter file "data.autodiff"
(PID.TID 0000.0001) // =======================================================
(PID.TID 0000.0001) > &AUTODIFF_PARM01
(PID.TID 0000.0001) > /
(PID.TID 0000.0001) 
(PID.TID 0000.0001) AUTODIFF_READPARMS: finished reading data.autodiff
(PID.TID 0000.0001) // ===================================
(PID.TID 0000.0001) // AUTODIFF parameters :
(PID.TID 0000.0001) // ===================================
(PID.TID 0000.0001) inAdExact = /* get an exact adjoint (no approximation) */
(PID.TID 0000.0001)                   T
(PID.TID 0000.0001)     ;
(PID.TID 0000.0001) useApproxAdvectionInAdMode = /* approximate AD-advection */
(PID.TID 0000.0001)                   F
(PID.TID 0000.0001)     ;
(PID.TID 0000.0001) cg2dFullAdjoint = /* use full hand written cg2d adjoint (no approximation) */
(PID.TID 0000.0001)                   F
(PID.TID 0000.0001)     ;
(PID.TID 0000.0001) useKPPinAdMode = /* use KPP in adjoint mode */
(PID.TID 0000.0001)                   T
(PID.TID 0000.0001)     ;
(PID.TID 0000.0001) useGMRediInAdMode = /* use GMRedi in adjoint mode */
(PID.TID 0000.0001)                   T
(PID.TID 0000.0001)     ;
(PID.TID 0000.0001) useSEAICEinAdMode = /* use SEAICE in adjoint mode */
(PID.TID 0000.0001)                   T
(PID.TID 0000.0001)     ;
(PID.TID 0000.0001) useGGL90inAdMode = /* use GGL90 in adjoint mode */
(PID.TID 0000.0001)                   F
(PID.TID 0000.0001)     ;
(PID.TID 0000.0001) useSALT_PLUMEinAdMode = /* use SALT_PLUME in adjoint mode */
(PID.TID 0000.0001)                   T
(PID.TID 0000.0001)     ;
(PID.TID 0000.0001) SEAICEuseDYNAMICSswitchInAd = /* switch On/Off SEAICE Dyn in AD mode */
(PID.TID 0000.0001)                   F
(PID.TID 0000.0001)     ;
(PID.TID 0000.0001) SEAICEuseFREEDRIFTswitchInAd= /* switch On/Off Free-Drift in AD mode */
(PID.TID 0000.0001)                   F
(PID.TID 0000.0001)     ;
(PID.TID 0000.0001) SEAICEapproxLevInAd = /* -1:SEAICE_FAKE, >0:other adjoint approximation */
(PID.TID 0000.0001)                       0
(PID.TID 0000.0001)     ;
(PID.TID 0000.0001) dumpAdVarExch = /* control adexch before dumpinp */
(PID.TID 0000.0001)                       2
(PID.TID 0000.0001)     ;
(PID.TID 0000.0001) mon_AdVarExch = /* control adexch before monitor */
(PID.TID 0000.0001)                       2
(PID.TID 0000.0001)     ;
(PID.TID 0000.0001) viscFacInFw = /* viscosity factor for forward model */
(PID.TID 0000.0001)                 1.000000000000000E+00
(PID.TID 0000.0001)     ;
(PID.TID 0000.0001) viscFacInAd = /* viscosity factor for adjoint */
(PID.TID 0000.0001)                 1.000000000000000E+00
(PID.TID 0000.0001)     ;
(PID.TID 0000.0001) SIregFacInAd = /* sea ice factor for adjoint model */
(PID.TID 0000.0001)                 1.234567000000000E+05
(PID.TID 0000.0001)     ;
(PID.TID 0000.0001) SIregFacInFw = /* sea ice factor for forward model */
(PID.TID 0000.0001)                 1.234567000000000E+05
(PID.TID 0000.0001)     ;
(PID.TID 0000.0001) 
(PID.TID 0000.0001) OPTIM_READPARMS: opening data.optim
(PID.TID 0000.0001)  OPEN_COPY_DATA_FILE: opening file data.optim
(PID.TID 0000.0001) // =======================================================
(PID.TID 0000.0001) // Parameter file "data.optim"
(PID.TID 0000.0001) // =======================================================
(PID.TID 0000.0001) >#
(PID.TID 0000.0001) ># ********************************
(PID.TID 0000.0001) ># Off-line optimization parameters
(PID.TID 0000.0001) ># ********************************
(PID.TID 0000.0001) > &OPTIM
(PID.TID 0000.0001) > optimcycle=0,
(PID.TID 0000.0001) > /
(PID.TID 0000.0001) 
(PID.TID 0000.0001) OPTIM_READPARMS: finished reading data.optim
(PID.TID 0000.0001) CTRL_READPARMS: opening data.ctrl
(PID.TID 0000.0001)  OPEN_COPY_DATA_FILE: opening file data.ctrl
(PID.TID 0000.0001) // =======================================================
(PID.TID 0000.0001) // Parameter file "data.ctrl"
(PID.TID 0000.0001) // =======================================================
(PID.TID 0000.0001) ># *********************
(PID.TID 0000.0001) ># general parameters and
(PID.TID 0000.0001) ># non-default ECCO legacy control variables
(PID.TID 0000.0001) ># *********************
(PID.TID 0000.0001) > &CTRL_NML
(PID.TID 0000.0001) >  doMainUnpack=.FALSE.,
(PID.TID 0000.0001) >  doMainPack=.FALSE.,
(PID.TID 0000.0001) >  ctrlprec = 32,
(PID.TID 0000.0001) > xx_obcsestartdate1 = 19790101,
(PID.TID 0000.0001) > xx_obcsestartdate2 =    00000,
(PID.TID 0000.0001) > xx_obcseperiod     =      0.0,
(PID.TID 0000.0001) > xx_obcse_file = 'xx_obcse',
(PID.TID 0000.0001) > /
(PID.TID 0000.0001) >#
(PID.TID 0000.0001) ># *********************
(PID.TID 0000.0001) ># names for ctrl_pack/unpack
(PID.TID 0000.0001) ># *********************
(PID.TID 0000.0001) > &CTRL_PACKNAMES
(PID.TID 0000.0001) > /
(PID.TID 0000.0001) >#
(PID.TID 0000.0001) ># *********************
(PID.TID 0000.0001) ># names for CTRL_GENARR, CTRL_GENTIM
(PID.TID 0000.0001) ># *********************
(PID.TID 0000.0001) > &CTRL_NML_GENARR
(PID.TID 0000.0001) > xx_gentim2d_file(1)       = 'xx_atemp',
(PID.TID 0000.0001) > xx_gentim2d_weight(1)     = 'ones_32b.bin',
(PID.TID 0000.0001) >#
(PID.TID 0000.0001) > xx_gentim2d_file(2)       = 'xx_swdown',
(PID.TID 0000.0001) > xx_gentim2d_weight(2)     = 'ones_32b.bin',
(PID.TID 0000.0001) >#
(PID.TID 0000.0001) > xx_genarr3d_file(1)       = 'xx_theta',
(PID.TID 0000.0001) > xx_genarr3d_weight(1)     = 'ones_32b.bin',
(PID.TID 0000.0001) > /
(PID.TID 0000.0001) 
(PID.TID 0000.0001) CTRL_READPARMS: finished reading data.ctrl
(PID.TID 0000.0001) read-write ctrl files from current run directory
(PID.TID 0000.0001) COST_READPARMS: opening data.cost
(PID.TID 0000.0001)  OPEN_COPY_DATA_FILE: opening file data.cost
(PID.TID 0000.0001) // =======================================================
(PID.TID 0000.0001) // Parameter file "data.cost"
(PID.TID 0000.0001) // =======================================================
(PID.TID 0000.0001) > &COST_NML
(PID.TID 0000.0001) > /
(PID.TID 0000.0001) 
(PID.TID 0000.0001) COST_READPARMS: finished reading data.cost
(PID.TID 0000.0001) // =======================================================
(PID.TID 0000.0001) // cost configuration  >>> START <<<
(PID.TID 0000.0001) // =======================================================
(PID.TID 0000.0001) lastinterval =   /* cost interval over which to average ( s ). */
(PID.TID 0000.0001)                 2.592000000000000E+06
(PID.TID 0000.0001)     ;
(PID.TID 0000.0001) cost_mask_file = /* file name of cost mask file */
(PID.TID 0000.0001)               ''
(PID.TID 0000.0001)     ;
(PID.TID 0000.0001) // =======================================================
(PID.TID 0000.0001) // cost configuration  >>> END <<<
(PID.TID 0000.0001) // =======================================================
(PID.TID 0000.0001) 
(PID.TID 0000.0001) GRDCHK_READPARMS: opening data.grdchk
(PID.TID 0000.0001)  OPEN_COPY_DATA_FILE: opening file data.grdchk
(PID.TID 0000.0001) // =======================================================
(PID.TID 0000.0001) // Parameter file "data.grdchk"
(PID.TID 0000.0001) // =======================================================
(PID.TID 0000.0001) > &GRDCHK_NML
(PID.TID 0000.0001) > grdchk_eps       = 1.d-2,
(PID.TID 0000.0001) > iglopos          = 2,
(PID.TID 0000.0001) > jglopos          = 4,
(PID.TID 0000.0001) > kGloPos          = 1,
(PID.TID 0000.0001) > nbeg             = 1,
(PID.TID 0000.0001) > nstep            = 1,
(PID.TID 0000.0001) > nend             = 4,
(PID.TID 0000.0001) >#grdchkvarname    = "xx_theta",
(PID.TID 0000.0001) > grdchkvarname    = "xx_atemp",
(PID.TID 0000.0001) > /
(PID.TID 0000.0001) 
(PID.TID 0000.0001) GRDCHK_READPARMS: finished reading data.grdchk
(PID.TID 0000.0001) SET_PARMS: done
(PID.TID 0000.0001) Enter INI_VERTICAL_GRID: setInterFDr=    T ; setCenterDr=    F
(PID.TID 0000.0001) %MON XC_max                       =   2.9900000000000E+02
(PID.TID 0000.0001) %MON XC_min                       =   2.8100000000000E+02
(PID.TID 0000.0001) %MON XC_mean                      =   2.9000000000000E+02
(PID.TID 0000.0001) %MON XC_sd                        =   5.7445626465380E+00
(PID.TID 0000.0001) %MON XG_max                       =   2.9800000000000E+02
(PID.TID 0000.0001) %MON XG_min                       =   2.8000000000000E+02
(PID.TID 0000.0001) %MON XG_mean                      =   2.8900000000000E+02
(PID.TID 0000.0001) %MON XG_sd                        =   5.7445626465380E+00
(PID.TID 0000.0001) %MON DXC_max                      =   1.5166951523772E+05
(PID.TID 0000.0001) %MON DXC_min                      =   1.0781674031974E+05
(PID.TID 0000.0001) %MON DXC_mean                     =   1.3029977093092E+05
(PID.TID 0000.0001) %MON DXC_sd                       =   1.4367575782905E+04
(PID.TID 0000.0001) %MON DXF_max                      =   1.5166951523772E+05
(PID.TID 0000.0001) %MON DXF_min                      =   1.0781674031974E+05
(PID.TID 0000.0001) %MON DXF_mean                     =   1.3029977093092E+05
(PID.TID 0000.0001) %MON DXF_sd                       =   1.4367575782905E+04
(PID.TID 0000.0001) %MON DXG_max                      =   1.5448497309243E+05
(PID.TID 0000.0001) %MON DXG_min                      =   1.1119492664456E+05
(PID.TID 0000.0001) %MON DXG_mean                     =   1.3340987946475E+05
(PID.TID 0000.0001) %MON DXG_sd                       =   1.4183553519597E+04
(PID.TID 0000.0001) %MON DXV_max                      =   1.5448497309243E+05
(PID.TID 0000.0001) %MON DXV_min                      =   1.1119492664456E+05
(PID.TID 0000.0001) %MON DXV_mean                     =   1.3340987946475E+05
(PID.TID 0000.0001) %MON DXV_sd                       =   1.4183553519597E+04
(PID.TID 0000.0001) %MON YC_max                       =   6.1000000000000E+01
(PID.TID 0000.0001) %MON YC_min                       =   4.7000000000000E+01
(PID.TID 0000.0001) %MON YC_mean                      =   5.4000000000000E+01
(PID.TID 0000.0001) %MON YC_sd                        =   4.5825756949558E+00
(PID.TID 0000.0001) %MON YG_max                       =   6.0000000000000E+01
(PID.TID 0000.0001) %MON YG_min                       =   4.6000000000000E+01
(PID.TID 0000.0001) %MON YG_mean                      =   5.3000000000000E+01
(PID.TID 0000.0001) %MON YG_sd                        =   4.5825756949558E+00
(PID.TID 0000.0001) %MON DYC_max                      =   2.2238985328912E+05
(PID.TID 0000.0001) %MON DYC_min                      =   2.2238985328912E+05
(PID.TID 0000.0001) %MON DYC_mean                     =   2.2238985328912E+05
(PID.TID 0000.0001) %MON DYC_sd                       =   8.7311491370201E-11
(PID.TID 0000.0001) %MON DYF_max                      =   2.2238985328912E+05
(PID.TID 0000.0001) %MON DYF_min                      =   2.2238985328912E+05
(PID.TID 0000.0001) %MON DYF_mean                     =   2.2238985328912E+05
(PID.TID 0000.0001) %MON DYF_sd                       =   8.7311491370201E-11
(PID.TID 0000.0001) %MON DYG_max                      =   2.2238985328912E+05
(PID.TID 0000.0001) %MON DYG_min                      =   2.2238985328912E+05
(PID.TID 0000.0001) %MON DYG_mean                     =   2.2238985328912E+05
(PID.TID 0000.0001) %MON DYG_sd                       =   8.7311491370201E-11
(PID.TID 0000.0001) %MON DYU_max                      =   2.2238985328912E+05
(PID.TID 0000.0001) %MON DYU_min                      =   2.2238985328912E+05
(PID.TID 0000.0001) %MON DYU_mean                     =   2.2238985328912E+05
(PID.TID 0000.0001) %MON DYU_sd                       =   8.7311491370201E-11
(PID.TID 0000.0001) %MON RA_max                       =   3.3728048822756E+10
(PID.TID 0000.0001) %MON RA_min                       =   2.3976131760657E+10
(PID.TID 0000.0001) %MON RA_mean                      =   2.8975875795896E+10
(PID.TID 0000.0001) %MON RA_sd                        =   3.1950408538653E+09
(PID.TID 0000.0001) %MON RAW_max                      =   3.3728048822756E+10
(PID.TID 0000.0001) %MON RAW_min                      =   2.3976131760657E+10
(PID.TID 0000.0001) %MON RAW_mean                     =   2.8975875795896E+10
(PID.TID 0000.0001) %MON RAW_sd                       =   3.1950408538653E+09
(PID.TID 0000.0001) %MON RAS_max                      =   3.4354146294179E+10
(PID.TID 0000.0001) %MON RAS_min                      =   2.4727367980522E+10
(PID.TID 0000.0001) %MON RAS_mean                     =   2.9667497261876E+10
(PID.TID 0000.0001) %MON RAS_sd                       =   3.1541182474235E+09
(PID.TID 0000.0001) %MON RAZ_max                      =   3.4354146294179E+10
(PID.TID 0000.0001) %MON RAZ_min                      =   2.4727367980522E+10
(PID.TID 0000.0001) %MON RAZ_mean                     =   2.9667497261876E+10
(PID.TID 0000.0001) %MON RAZ_sd                       =   3.1541182474235E+09
(PID.TID 0000.0001) %MON AngleCS_max                  =   1.0000000000000E+00
(PID.TID 0000.0001) %MON AngleCS_min                  =   1.0000000000000E+00
(PID.TID 0000.0001) %MON AngleCS_mean                 =   1.0000000000000E+00
(PID.TID 0000.0001) %MON AngleCS_sd                   =   0.0000000000000E+00
(PID.TID 0000.0001) %MON AngleSN_max                  =   0.0000000000000E+00
(PID.TID 0000.0001) %MON AngleSN_min                  =   0.0000000000000E+00
(PID.TID 0000.0001) %MON AngleSN_mean                 =   0.0000000000000E+00
(PID.TID 0000.0001) %MON AngleSN_sd                   =   0.0000000000000E+00
(PID.TID 0000.0001) OBCS_CHECK_DEPTHS: fixed topography at (i,j,bi,bj)=     3     8   1   1
(PID.TID 0000.0001) OBCS_CHECK_DEPTHS: fixed topography at (i,j,bi,bj)=     4     8   1   1
(PID.TID 0000.0001) OBCS_CHECK_DEPTHS: fixed topography at (i,j,bi,bj)=     5     1   2   1
(PID.TID 0000.0001) OBCS_CHECK_DEPTHS: Topography gradients normal to open boundaries:
(PID.TID 0000.0001) OBCS_CHECK_DEPTHS: ==> corrected       3 problematic grid-points
(PID.TID 0000.0001) 
(PID.TID 0000.0001) // =======================================================
(PID.TID 0000.0001) // Calendar configuration >>> START <<<
(PID.TID 0000.0001) // =======================================================
(PID.TID 0000.0001) 
(PID.TID 0000.0001) modelstart = /* Start time of the model integration [s] */
(PID.TID 0000.0001)                 0.000000000000000E+00
(PID.TID 0000.0001)     ;
(PID.TID 0000.0001) modelend  = /* End time of the model integration [s] */
(PID.TID 0000.0001)                 2.160000000000000E+04
(PID.TID 0000.0001)     ;
(PID.TID 0000.0001) modelStep = /* Time interval for a model forward step [s] */
(PID.TID 0000.0001)                 3.600000000000000E+03
(PID.TID 0000.0001)     ;
(PID.TID 0000.0001) usingGregorianCalendar= /* Calendar Type: Gregorian Calendar */
(PID.TID 0000.0001)                   T
(PID.TID 0000.0001)     ;
(PID.TID 0000.0001) usingJulianCalendar = /* Calendar Type: Julian Calendar */
(PID.TID 0000.0001)                   F
(PID.TID 0000.0001)     ;
(PID.TID 0000.0001) usingNoLeapYearCal  = /* Calendar Type: without Leap Year */
(PID.TID 0000.0001)                   F
(PID.TID 0000.0001)     ;
(PID.TID 0000.0001) usingModelCalendar  = /* Calendar Type: Model Calendar */
(PID.TID 0000.0001)                   F
(PID.TID 0000.0001)     ;
(PID.TID 0000.0001) modelStartDate YYYYMMDD = /* Model start date YYYY-MM-DD */
(PID.TID 0000.0001)                19790101
(PID.TID 0000.0001)     ;
(PID.TID 0000.0001)   modelStartDate HHMMSS = /* Model start date HH-MM-SS  */
(PID.TID 0000.0001)                       0
(PID.TID 0000.0001)     ;
(PID.TID 0000.0001) modelEndDate   YYYYMMDD = /* Model end date YYYY-MM-DD */
(PID.TID 0000.0001)                19790101
(PID.TID 0000.0001)     ;
(PID.TID 0000.0001)   modelEndDate   HHMMSS = /* Model end date HH-MM-SS  */
(PID.TID 0000.0001)                   60000
(PID.TID 0000.0001)     ;
(PID.TID 0000.0001) intyears = /* Number of calendar years affected by the integration */
(PID.TID 0000.0001)                       1
(PID.TID 0000.0001)     ;
(PID.TID 0000.0001) intmonths= /* Number of calendar months affected by the integration */
(PID.TID 0000.0001)                       1
(PID.TID 0000.0001)     ;
(PID.TID 0000.0001) intdays = /* Number of calendar days affected by the integration */
(PID.TID 0000.0001)                       1
(PID.TID 0000.0001)     ;
(PID.TID 0000.0001) modelIter0 = /* Base timestep number  */
(PID.TID 0000.0001)                       0
(PID.TID 0000.0001)     ;
(PID.TID 0000.0001) modelIterEnd = /* Final timestep number  */
(PID.TID 0000.0001)                       6
(PID.TID 0000.0001)     ;
(PID.TID 0000.0001) modelIntSteps= /* Number of model timesteps  */
(PID.TID 0000.0001)                       6
(PID.TID 0000.0001)     ;
(PID.TID 0000.0001) 
(PID.TID 0000.0001) // =======================================================
(PID.TID 0000.0001) // Calendar configuration  >>> END <<<
(PID.TID 0000.0001) // =======================================================
(PID.TID 0000.0001) 
(PID.TID 0000.0001) GAD_INIT_FIXED: GAD_OlMinSize=  2  0  1
(PID.TID 0000.0001) 
(PID.TID 0000.0001) // ===================================
(PID.TID 0000.0001) // GAD parameters :
(PID.TID 0000.0001) // ===================================
(PID.TID 0000.0001) tempAdvScheme =   /* Temp. Horiz.Advection scheme selector */
(PID.TID 0000.0001)                      33
(PID.TID 0000.0001)     ;
(PID.TID 0000.0001) tempVertAdvScheme =   /* Temp. Vert. Advection scheme selector */
(PID.TID 0000.0001)                      33
(PID.TID 0000.0001)     ;
(PID.TID 0000.0001) tempMultiDimAdvec =   /* use Muti-Dim Advec method for Temp */
(PID.TID 0000.0001)                   T
(PID.TID 0000.0001)     ;
(PID.TID 0000.0001) tempSOM_Advection = /* use 2nd Order Moment Advection for Temp */
(PID.TID 0000.0001)                   F
(PID.TID 0000.0001)     ;
(PID.TID 0000.0001) AdamsBashforthGt = /* apply Adams-Bashforth extrapolation on Gt */
(PID.TID 0000.0001)                   F
(PID.TID 0000.0001)     ;
(PID.TID 0000.0001) AdamsBashforth_T = /* apply Adams-Bashforth extrapolation on Temp */
(PID.TID 0000.0001)                   F
(PID.TID 0000.0001)     ;
(PID.TID 0000.0001) saltAdvScheme =   /* Salt. Horiz.advection scheme selector */
(PID.TID 0000.0001)                      33
(PID.TID 0000.0001)     ;
(PID.TID 0000.0001) saltVertAdvScheme =   /* Salt. Vert. Advection scheme selector */
(PID.TID 0000.0001)                      33
(PID.TID 0000.0001)     ;
(PID.TID 0000.0001) saltMultiDimAdvec =   /* use Muti-Dim Advec method for Salt */
(PID.TID 0000.0001)                   T
(PID.TID 0000.0001)     ;
(PID.TID 0000.0001) saltSOM_Advection = /* use 2nd Order Moment Advection for Salt */
(PID.TID 0000.0001)                   F
(PID.TID 0000.0001)     ;
(PID.TID 0000.0001) AdamsBashforthGs = /* apply Adams-Bashforth extrapolation on Gs */
(PID.TID 0000.0001)                   F
(PID.TID 0000.0001)     ;
(PID.TID 0000.0001) AdamsBashforth_S = /* apply Adams-Bashforth extrapolation on Salt */
(PID.TID 0000.0001)                   F
(PID.TID 0000.0001)     ;
(PID.TID 0000.0001) // ===================================
(PID.TID 0000.0001) 
(PID.TID 0000.0001) // =======================================================
(PID.TID 0000.0001) // External forcing (EXF) configuration >>> START <<<
(PID.TID 0000.0001) // =======================================================
(PID.TID 0000.0001) 
(PID.TID 0000.0001)  EXF general parameters:
(PID.TID 0000.0001) 
(PID.TID 0000.0001) exf_iprec = /* exf file precision */
(PID.TID 0000.0001)                      32
(PID.TID 0000.0001)     ;
(PID.TID 0000.0001) useExfYearlyFields = /* add extension _YEAR to input file names */
(PID.TID 0000.0001)                   F
(PID.TID 0000.0001)     ;
(PID.TID 0000.0001) twoDigitYear = /* use 2-digit year extension */
(PID.TID 0000.0001)                   F
(PID.TID 0000.0001)     ;
(PID.TID 0000.0001) useExfCheckRange = /* check for fields range */
(PID.TID 0000.0001)                   T
(PID.TID 0000.0001)     ;
(PID.TID 0000.0001) diags_opOceWeighted = /* weight flux diags by open-ocean fraction */
(PID.TID 0000.0001)                   T
(PID.TID 0000.0001)     ;
(PID.TID 0000.0001) exf_debugLev = /* select EXF-debug printing level */
(PID.TID 0000.0001)                       1
(PID.TID 0000.0001)     ;
(PID.TID 0000.0001) exf_monFreq  = /* EXF monitor frequency [ s ] */
(PID.TID 0000.0001)                 1.000000000000000E+00
(PID.TID 0000.0001)     ;
(PID.TID 0000.0001) exf_adjMonSelect = /* select group of exf AD-variables to monitor */
(PID.TID 0000.0001)                       1
(PID.TID 0000.0001)     ;
(PID.TID 0000.0001) repeatPeriod = /* period for cycling forcing dataset [ s ] */
(PID.TID 0000.0001)                 3.162240000000000E+07
(PID.TID 0000.0001)     ;
(PID.TID 0000.0001) climTempFreeze= /* Minimum climatological temperature [deg.C] */
(PID.TID 0000.0001)                -1.900000000000000E+00
(PID.TID 0000.0001)     ;
(PID.TID 0000.0001) windStressMax = /* Maximum absolute windstress [ Pa ] */
(PID.TID 0000.0001)                 2.000000000000000E+00
(PID.TID 0000.0001)     ;
(PID.TID 0000.0001) stressIsOnCgrid = /* set u,v_stress on Arakawa C-grid */
(PID.TID 0000.0001)                   F
(PID.TID 0000.0001)     ;
(PID.TID 0000.0001) rotateStressOnAgrid = /* rotate u,v_stress on Arakawa A-grid */
(PID.TID 0000.0001)                   F
(PID.TID 0000.0001)     ;
(PID.TID 0000.0001) cen2kel = /* conversion of deg. Centigrade to Kelvin [K] */
(PID.TID 0000.0001)                 2.731500000000000E+02
(PID.TID 0000.0001)     ;
(PID.TID 0000.0001) gravity_mks= /* gravitational acceleration [m/s^2] */
(PID.TID 0000.0001)                 9.810000000000000E+00
(PID.TID 0000.0001)     ;
(PID.TID 0000.0001) atmrho =  /* mean atmospheric density [kg/m^3] */
(PID.TID 0000.0001)                 1.200000000000000E+00
(PID.TID 0000.0001)     ;
(PID.TID 0000.0001) atmcp =  /* mean atmospheric specific heat [J/kg/K] */
(PID.TID 0000.0001)                 1.005000000000000E+03
(PID.TID 0000.0001)     ;
(PID.TID 0000.0001) flamb =  /* latent heat of evaporation [J/kg] */
(PID.TID 0000.0001)                 2.500000000000000E+06
(PID.TID 0000.0001)     ;
(PID.TID 0000.0001) flami =  /* latent heat of pure-ice melting [J/kg] */
(PID.TID 0000.0001)                 3.340000000000000E+05
(PID.TID 0000.0001)     ;
(PID.TID 0000.0001) cvapor_fac = /* const. for Saturation calculation [?] */
(PID.TID 0000.0001)                 6.403800000000000E+05
(PID.TID 0000.0001)     ;
(PID.TID 0000.0001) cvapor_exp = /* const. for Saturation calculation [?] */
(PID.TID 0000.0001)                 5.107400000000000E+03
(PID.TID 0000.0001)     ;
(PID.TID 0000.0001) cvapor_fac_ice= /* const. for Saturation calculation [?] */
(PID.TID 0000.0001)                 1.163780000000000E+07
(PID.TID 0000.0001)     ;
(PID.TID 0000.0001) cvapor_exp_ice= /* const. for Saturation calculation [?] */
(PID.TID 0000.0001)                 5.897800000000000E+03
(PID.TID 0000.0001)     ;
(PID.TID 0000.0001) humid_fac = /* humidity coef. in virtual temp. [(kg/kg)^-1] */
(PID.TID 0000.0001)                 6.060000000000000E-01
(PID.TID 0000.0001)     ;
(PID.TID 0000.0001) gamma_blk = /* adiabatic lapse rate [?] */
(PID.TID 0000.0001)                 1.000000000000000E-02
(PID.TID 0000.0001)     ;
(PID.TID 0000.0001) saltsat = /* reduction of Qsat over salty water [-] */
(PID.TID 0000.0001)                 9.800000000000000E-01
(PID.TID 0000.0001)     ;
(PID.TID 0000.0001) noNegativeEvap = /* prevent negative Evaporation */
(PID.TID 0000.0001)                   F
(PID.TID 0000.0001)     ;
(PID.TID 0000.0001) sstExtrapol = /* extrapolation coeff from lev. 1 & 2 to surf [-] */
(PID.TID 0000.0001)                 0.000000000000000E+00
(PID.TID 0000.0001)     ;
(PID.TID 0000.0001) cDrag_1 = /* coef used in drag calculation [m/s] */
(PID.TID 0000.0001)                 2.700000000000000E-03
(PID.TID 0000.0001)     ;
(PID.TID 0000.0001) cDrag_2 = /* coef used in drag calculation [-] */
(PID.TID 0000.0001)                 1.420000000000000E-04
(PID.TID 0000.0001)     ;
(PID.TID 0000.0001) cDrag_3 = /* coef used in drag calculation [s/m] */
(PID.TID 0000.0001)                 7.640000000000000E-05
(PID.TID 0000.0001)     ;
(PID.TID 0000.0001) cDrag_8 = /* coef used in drag calculation [(s/m)^6] */
(PID.TID 0000.0001)                 1.234567000000000E+05
(PID.TID 0000.0001)     ;
(PID.TID 0000.0001) cDragMax = /* maximum drag (Large and Yeager, 2009) [-] */
(PID.TID 0000.0001)                 1.234567000000000E+05
(PID.TID 0000.0001)     ;
(PID.TID 0000.0001) umax = /* at maximum wind (Large and Yeager, 2009) [m/s] */
(PID.TID 0000.0001)                 1.234567000000000E+05
(PID.TID 0000.0001)     ;
(PID.TID 0000.0001) cStanton_1 = /* coef used in Stanton number calculation [-] */
(PID.TID 0000.0001)                 3.270000000000000E-02
(PID.TID 0000.0001)     ;
(PID.TID 0000.0001) cStanton_2 = /* coef used in Stanton number calculation [-] */
(PID.TID 0000.0001)                 1.800000000000000E-02
(PID.TID 0000.0001)     ;
(PID.TID 0000.0001) cDalton = /* Dalton number [-] */
(PID.TID 0000.0001)                 3.460000000000000E-02
(PID.TID 0000.0001)     ;
(PID.TID 0000.0001) exf_scal_BulkCdn= /* Drag coefficient scaling factor [-] */
(PID.TID 0000.0001)                 1.000000000000000E+00
(PID.TID 0000.0001)     ;
(PID.TID 0000.0001) zolmin = /* minimum stability parameter [?] */
(PID.TID 0000.0001)                -1.000000000000000E+02
(PID.TID 0000.0001)     ;
(PID.TID 0000.0001) psim_fac = /* coef used in turbulent fluxes calculation [-] */
(PID.TID 0000.0001)                 5.000000000000000E+00
(PID.TID 0000.0001)     ;
(PID.TID 0000.0001) zref =  /* reference height [ m ] */
(PID.TID 0000.0001)                 1.000000000000000E+01
(PID.TID 0000.0001)     ;
(PID.TID 0000.0001) hu =  /* height of mean wind [ m ] */
(PID.TID 0000.0001)                 1.000000000000000E+01
(PID.TID 0000.0001)     ;
(PID.TID 0000.0001) ht =  /* height of mean temperature [ m ] */
(PID.TID 0000.0001)                 2.000000000000000E+00
(PID.TID 0000.0001)     ;
(PID.TID 0000.0001) hq =  /* height of mean spec.humidity [ m ] */
(PID.TID 0000.0001)                 2.000000000000000E+00
(PID.TID 0000.0001)     ;
(PID.TID 0000.0001) uMin = /* minimum wind speed [m/s] */
(PID.TID 0000.0001)                 5.000000000000000E-01
(PID.TID 0000.0001)     ;
(PID.TID 0000.0001) useStabilityFct_overIce= /* transfert Coeffs over sea-ice depend on stability */
(PID.TID 0000.0001)                   F
(PID.TID 0000.0001)     ;
(PID.TID 0000.0001) exf_iceCd = /* drag coefficient over sea-ice (fixed) [-] */
(PID.TID 0000.0001)                 1.630000000000000E-03
(PID.TID 0000.0001)     ;
(PID.TID 0000.0001) exf_iceCe = /* transfert coeff. over sea-ice, for Evap (fixed) [-] */
(PID.TID 0000.0001)                 1.630000000000000E-03
(PID.TID 0000.0001)     ;
(PID.TID 0000.0001) exf_iceCh = /* transfert coeff. over sea-ice, Sens.Heat.(fixed)[-] */
(PID.TID 0000.0001)                 1.630000000000000E-03
(PID.TID 0000.0001)     ;
(PID.TID 0000.0001) exf_albedo =  /* Sea-water albedo [-] */
(PID.TID 0000.0001)                 1.000000000000000E-01
(PID.TID 0000.0001)     ;
(PID.TID 0000.0001) useExfZenAlbedo = /* Sea-water albedo varies with zenith angle */
(PID.TID 0000.0001)                   F
(PID.TID 0000.0001)     ;
(PID.TID 0000.0001) select_ZenAlbedo = /* Sea-water albedo computation method */
(PID.TID 0000.0001)                       0
(PID.TID 0000.0001)     ;
(PID.TID 0000.0001) useExfZenIncoming = /* compute incoming solar radiation */
(PID.TID 0000.0001)                   F
(PID.TID 0000.0001)     ;
(PID.TID 0000.0001) ocean_emissivity = /* longwave ocean-surface emissivity [-] */
(PID.TID 0000.0001)                 9.700176366843034E-01
(PID.TID 0000.0001)     ;
(PID.TID 0000.0001) ice_emissivity = /* longwave seaice emissivity [-] */
(PID.TID 0000.0001)                 9.500000000000000E-01
(PID.TID 0000.0001)     ;
(PID.TID 0000.0001) snow_emissivity = /* longwave snow  emissivity [-] */
(PID.TID 0000.0001)                 9.500000000000000E-01
(PID.TID 0000.0001)     ;
(PID.TID 0000.0001) 
(PID.TID 0000.0001)  EXF main CPP flags:
(PID.TID 0000.0001) 
(PID.TID 0000.0001) // USE_EXF_INTERPOLATION:          NOT defined
(PID.TID 0000.0001) // ALLOW_ATM_TEMP:                     defined
(PID.TID 0000.0001) // ALLOW_ATM_WIND (useAtmWind):        defined
(PID.TID 0000.0001) // ALLOW_DOWNWARD_RADIATION:           defined
(PID.TID 0000.0001) // ALLOW_BULKFORMULAE:                 defined
(PID.TID 0000.0001) 
(PID.TID 0000.0001)    Zonal wind forcing starts at                   -1317600.
(PID.TID 0000.0001)    Zonal wind forcing period is                    2635200.
(PID.TID 0000.0001)    Zonal wind forcing repeat-cycle is             31622400.
(PID.TID 0000.0001)    Zonal wind forcing is read from file:
(PID.TID 0000.0001)    >> u10m.labsea1979 <<
(PID.TID 0000.0001) 
(PID.TID 0000.0001)    Meridional wind forcing starts at              -1317600.
(PID.TID 0000.0001)    Meridional wind forcing period is               2635200.
(PID.TID 0000.0001)    Meridional wind forcing repeat-cycle is        31622400.
(PID.TID 0000.0001)    Meridional wind forcing is read from file:
(PID.TID 0000.0001)    >> v10m.labsea1979 <<
(PID.TID 0000.0001) 
(PID.TID 0000.0001)    Atmospheric temperature starts at              -1317600.
(PID.TID 0000.0001)    Atmospheric temperature period is               2635200.
(PID.TID 0000.0001)    Atmospheric temperature repeat-cycle is        31622400.
(PID.TID 0000.0001)    Atmospheric temperature is read from file:
(PID.TID 0000.0001)    >> tair.labsea1979 <<
(PID.TID 0000.0001) 
(PID.TID 0000.0001)    Atmospheric specific humidity starts at        -1317600.
(PID.TID 0000.0001)    Atmospheric specific humidity period is         2635200.
(PID.TID 0000.0001)    Atmospheric specific humidity rep-cycle is     31622400.
(PID.TID 0000.0001)    Atmospheric specific humidity is read from file:
(PID.TID 0000.0001)    >> qa.labsea1979 <<
(PID.TID 0000.0001) 
(PID.TID 0000.0001) // ALLOW_READ_TURBFLUXES:          NOT defined
(PID.TID 0000.0001) // EXF_READ_EVAP:                  NOT defined
(PID.TID 0000.0001) 
(PID.TID 0000.0001)    Precipitation data starts at                   -1317600.
(PID.TID 0000.0001)    Precipitation data period is                    2635200.
(PID.TID 0000.0001)    Precipitation data repeat-cycle is             31622400.
(PID.TID 0000.0001)    Precipitation data is read from file:
(PID.TID 0000.0001)    >> prate.labsea1979 <<
(PID.TID 0000.0001) 
(PID.TID 0000.0001) // ALLOW_RUNOFF:                       defined
(PID.TID 0000.0001) // ALLOW_RUNOFTEMP:                NOT defined
(PID.TID 0000.0001) // ALLOW_SALTFLX:                      defined
(PID.TID 0000.0001) 
(PID.TID 0000.0001)    Downward shortwave flux starts at              -1317600.
(PID.TID 0000.0001)    Downward shortwave flux period is               2635200.
(PID.TID 0000.0001)    Downward shortwave flux repeat-cycle is        31622400.
(PID.TID 0000.0001)    Downward shortwave flux is read from file:
(PID.TID 0000.0001)    >> fsh.labsea1979 <<
(PID.TID 0000.0001) 
(PID.TID 0000.0001)    Downward longwave flux starts at               -1317600.
(PID.TID 0000.0001)    Downward longwave flux period is                2635200.
(PID.TID 0000.0001)    Downward longwave flux repeat-cycle is         31622400.
(PID.TID 0000.0001)    Downward longwave flux is read from file:
(PID.TID 0000.0001)    >> flo.labsea1979 <<
(PID.TID 0000.0001) 
(PID.TID 0000.0001) // =======================================================
(PID.TID 0000.0001) // External forcing (EXF) climatology configuration :
(PID.TID 0000.0001) // =======================================================
(PID.TID 0000.0001) 
(PID.TID 0000.0001) // ALLOW_CLIMSST_RELAXATION:           defined
(PID.TID 0000.0001)    climsst relaxation is NOT used
(PID.TID 0000.0001) 
(PID.TID 0000.0001) // ALLOW_CLIMSSS_RELAXATION:           defined
(PID.TID 0000.0001)    Climatological SSS starts at                   -1317600.
(PID.TID 0000.0001)    Climatological SSS period is                    2635200.
(PID.TID 0000.0001)    Climatological SSS repeat-cycle is             31622400.
(PID.TID 0000.0001)    Climatological SSS is read from file:
(PID.TID 0000.0001)    >> SSS_monthly.labsea1979 <<
(PID.TID 0000.0001) 
(PID.TID 0000.0001) // =======================================================
(PID.TID 0000.0001) // External forcing (EXF) configuration  >>> END <<<
(PID.TID 0000.0001) // =======================================================
(PID.TID 0000.0001) 
(PID.TID 0000.0001) // =======================================================
(PID.TID 0000.0001) // Seaice configuration (SEAICE_PARM01) >>> START <<<
(PID.TID 0000.0001) // =======================================================
(PID.TID 0000.0001) 
(PID.TID 0000.0001)    Seaice time stepping configuration   > START <
(PID.TID 0000.0001)    ----------------------------------------------
(PID.TID 0000.0001) SEAICE_deltaTtherm= /* thermodynamic timestep */
(PID.TID 0000.0001)                 3.600000000000000E+03
(PID.TID 0000.0001)     ;
(PID.TID 0000.0001) SEAICE_deltaTdyn  = /* dynamic timestep */
(PID.TID 0000.0001)                 3.600000000000000E+03
(PID.TID 0000.0001)     ;
(PID.TID 0000.0001) SEAICE_deltaTevp  = /* EVP timestep */
(PID.TID 0000.0001)                 1.234567000000000E+05
(PID.TID 0000.0001)     ;
(PID.TID 0000.0001) SEAICEuseBDF2  = /* use backw. differencing for mom. eq. */
(PID.TID 0000.0001)                   F
(PID.TID 0000.0001)     ;
(PID.TID 0000.0001) SEAICEupdateOceanStress= /* update Ocean surf. stress */
(PID.TID 0000.0001)                   T
(PID.TID 0000.0001)     ;
(PID.TID 0000.0001) SEAICErestoreUnderIce  = /* restore T and S under ice */
(PID.TID 0000.0001)                   F
(PID.TID 0000.0001)     ;
(PID.TID 0000.0001) 
(PID.TID 0000.0001)    Seaice dynamics configuration   > START <
(PID.TID 0000.0001)    ------------------------------------------
(PID.TID 0000.0001) SEAICEuseDYNAMICS = /* use dynamics */
(PID.TID 0000.0001)                   T
(PID.TID 0000.0001)     ;
(PID.TID 0000.0001) model grid type   = /* type of sea ice model grid */
(PID.TID 0000.0001)               'C-GRID'
(PID.TID 0000.0001)     ;
(PID.TID 0000.0001) SEAICEuseStrImpCpl = /* use strongly implicit coupling */
(PID.TID 0000.0001)                   F
(PID.TID 0000.0001)     ;
(PID.TID 0000.0001) SEAICEusePicardAsPrecon = /* Picard as preconditioner */
(PID.TID 0000.0001)                   F
(PID.TID 0000.0001)     ;
(PID.TID 0000.0001) SEAICEuseLSR      = /* use default Picard-LSR solver */
(PID.TID 0000.0001)                   F
(PID.TID 0000.0001)     ;
(PID.TID 0000.0001) SEAICEuseLSRflex  = /* with residual norm criterion */
(PID.TID 0000.0001)                   F
(PID.TID 0000.0001)     ;
(PID.TID 0000.0001) SEAICEuseKrylov   = /* use Picard-Krylov solver */
(PID.TID 0000.0001)                   F
(PID.TID 0000.0001)     ;
(PID.TID 0000.0001) SEAICEuseEVP      = /* use EVP solver rather than LSR */
(PID.TID 0000.0001)                   T
(PID.TID 0000.0001)     ;
(PID.TID 0000.0001) SEAICEuseJFNK     = /* use JFNK solver */
(PID.TID 0000.0001)                   F
(PID.TID 0000.0001)     ;
(PID.TID 0000.0001) SEAICEuseFREEDRIFT = /* use free drift solution */
(PID.TID 0000.0001)                   F
(PID.TID 0000.0001)     ;
(PID.TID 0000.0001) OCEAN_drag        = /* air-ocean drag coefficient */
(PID.TID 0000.0001)                 1.000000000000000E-03
(PID.TID 0000.0001)     ;
(PID.TID 0000.0001) SEAICE_drag       = /* air-ice drag coefficient */
(PID.TID 0000.0001)                 1.000000000000000E-03
(PID.TID 0000.0001)     ;
(PID.TID 0000.0001) SEAICE_drag_south      = /* Southern Ocean SEAICE_drag */
(PID.TID 0000.0001)                 1.000000000000000E-03
(PID.TID 0000.0001)     ;
(PID.TID 0000.0001) SEAICE_waterDrag  = /* water-ice drag (no units) */
(PID.TID 0000.0001)                 5.500000000000000E-03
(PID.TID 0000.0001)     ;
(PID.TID 0000.0001) SEAICE_waterDrag_south = /* Southern Ocean waterDrag (no units) */
(PID.TID 0000.0001)                 5.500000000000000E-03
(PID.TID 0000.0001)     ;
(PID.TID 0000.0001) SEAICEdWatMin = /* minimum linear water-ice drag (in m/s) */
(PID.TID 0000.0001)                 2.500000000000000E-01
(PID.TID 0000.0001)     ;
(PID.TID 0000.0001) SEAICEuseTilt     = /* include surface tilt in dyna. */
(PID.TID 0000.0001)                   T
(PID.TID 0000.0001)     ;
(PID.TID 0000.0001) SEAICEuseTEM      = /* use truncated ellipse rheology */
(PID.TID 0000.0001)                   F
(PID.TID 0000.0001)     ;
(PID.TID 0000.0001) SEAICE_strength   = /* sea-ice strength Pstar */
(PID.TID 0000.0001)                 2.750000000000000E+04
(PID.TID 0000.0001)     ;
(PID.TID 0000.0001) SEAICE_cStar      = /* sea-ice strength parameter cStar */
(PID.TID 0000.0001)                 2.000000000000000E+01
(PID.TID 0000.0001)     ;
(PID.TID 0000.0001) SEAICEpressReplFac= /* press. replacement method factor */
(PID.TID 0000.0001)                 1.000000000000000E+00
(PID.TID 0000.0001)     ;
(PID.TID 0000.0001) SEAICE_tensilFac  = /* sea-ice tensile strength factor */
(PID.TID 0000.0001)                 0.000000000000000E+00
(PID.TID 0000.0001)     ;
(PID.TID 0000.0001) SEAICE_tensilDepth= /* crit. depth for tensile strength */
(PID.TID 0000.0001)                 0.000000000000000E+00
(PID.TID 0000.0001)     ;
(PID.TID 0000.0001) SEAICEpresH0   = /* sea-ice strength Heff threshold */
(PID.TID 0000.0001)                 1.000000000000000E+00
(PID.TID 0000.0001)     ;
(PID.TID 0000.0001) SEAICEpresPow0 = /* exponent for Heff<SEAICEpresH0 */
(PID.TID 0000.0001)                       1
(PID.TID 0000.0001)     ;
(PID.TID 0000.0001) SEAICEpresPow1 = /* exponent for Heff>SEAICEpresH0 */
(PID.TID 0000.0001)                       1
(PID.TID 0000.0001)     ;
(PID.TID 0000.0001) SEAICEetaZmethod = /* method computing eta at Z-point */
(PID.TID 0000.0001)                       3
(PID.TID 0000.0001)     ;
(PID.TID 0000.0001) SEAICE_zetaMaxFac = /* factor for upper viscosity bound */
(PID.TID 0000.0001)                 2.500000000000000E+08
(PID.TID 0000.0001)     ;
(PID.TID 0000.0001) SEAICE_zetaMin    = /* lower bound for viscosity */
(PID.TID 0000.0001)                 0.000000000000000E+00
(PID.TID 0000.0001)     ;
(PID.TID 0000.0001) SEAICE_eccen    = /* elliptical yield curve eccent */
(PID.TID 0000.0001)                 2.000000000000000E+00
(PID.TID 0000.0001)     ;
(PID.TID 0000.0001) SEAICEstressFactor    = /* wind stress scaling factor */
(PID.TID 0000.0001)                 1.000000000000000E+00
(PID.TID 0000.0001)     ;
(PID.TID 0000.0001) SEAICE_airTurnAngle    = /* air-ice turning angle */
(PID.TID 0000.0001)                 0.000000000000000E+00
(PID.TID 0000.0001)     ;
(PID.TID 0000.0001) SEAICE_waterTurnAngle  = /* ice-water turning angle */
(PID.TID 0000.0001)                 0.000000000000000E+00
(PID.TID 0000.0001)     ;
(PID.TID 0000.0001) SEAICEuseMetricTerms = /* use metric terms */
(PID.TID 0000.0001)                   T
(PID.TID 0000.0001)     ;
(PID.TID 0000.0001) SEAICE_no_slip    = /* no slip boundary conditions */
(PID.TID 0000.0001)                   F
(PID.TID 0000.0001)     ;
(PID.TID 0000.0001) SEAICE_2ndOrderBC = /* 2nd order no slip boundary conditions */
(PID.TID 0000.0001)                   F
(PID.TID 0000.0001)     ;
(PID.TID 0000.0001) SEAICE_clipVeloctities = /* impose max. vels. */
(PID.TID 0000.0001)                   F
(PID.TID 0000.0001)     ;
(PID.TID 0000.0001) useHB87stressCoupling  = /* altern. ice-ocean stress */
(PID.TID 0000.0001)                   F
(PID.TID 0000.0001)     ;
(PID.TID 0000.0001) SEAICEscaleSurfStress  = /* scale atm. and ocean-surface stress with AREA */
(PID.TID 0000.0001)                   T
(PID.TID 0000.0001)     ;
(PID.TID 0000.0001) SEAICE_maskRHS    = /* mask RHS of solver */
(PID.TID 0000.0001)                   F
(PID.TID 0000.0001)     ;
(PID.TID 0000.0001) SEAICEaddSnowMass = /* add snow mass to seaiceMassC/U/V */
(PID.TID 0000.0001)                   T
(PID.TID 0000.0001)     ;
(PID.TID 0000.0001) SEAICE_elasticParm= /* EVP elastic parameter */
(PID.TID 0000.0001)                 3.333333333333333E-01
(PID.TID 0000.0001)     ;
(PID.TID 0000.0001) SEAICE_evpTauRelax= /* EVP relaxation timescale */
(PID.TID 0000.0001)                 1.200000000000000E+03
(PID.TID 0000.0001)     ;
(PID.TID 0000.0001) SEAICE_evpDampC   = /* EVP damping parameter */
(PID.TID 0000.0001)                -1.000000000000000E+00
(PID.TID 0000.0001)     ;
(PID.TID 0000.0001) SEAICEuseEVPstar  = /* use EVP* solver */
(PID.TID 0000.0001)                   T
(PID.TID 0000.0001)     ;
(PID.TID 0000.0001) SEAICEuseEVPrev   = /* use "revisited EVP" solver */
(PID.TID 0000.0001)                   T
(PID.TID 0000.0001)     ;
(PID.TID 0000.0001) SEAICE_evpAlpha   = /* EVP* parameter*/
(PID.TID 0000.0001)                 1.234567000000000E+05
(PID.TID 0000.0001)     ;
(PID.TID 0000.0001) SEAICE_evpBeta    = /* EVP*  parameter */
(PID.TID 0000.0001)                 1.234567000000000E+05
(PID.TID 0000.0001)     ;
(PID.TID 0000.0001) SEAICEaEVPcoeff   = /* adaptive EVP parameter*/
(PID.TID 0000.0001)                 5.000000000000000E-01
(PID.TID 0000.0001)     ;
(PID.TID 0000.0001) SEAICEaEVPcStar   = /* adaptive EVP parameter*/
(PID.TID 0000.0001)                 4.000000000000000E+00
(PID.TID 0000.0001)     ;
(PID.TID 0000.0001) SEAICEaEVPalphaMin= /* adaptive EVP parameter*/
(PID.TID 0000.0001)                 5.000000000000000E+00
(PID.TID 0000.0001)     ;
(PID.TID 0000.0001) SEAICEnEVPstarSteps = /* num. of EVP* steps */
(PID.TID 0000.0001)                     500
(PID.TID 0000.0001)     ;
(PID.TID 0000.0001) SEAICEuseEVPpickup= /* start EVP solver with EVP pickup*/
(PID.TID 0000.0001)                   T
(PID.TID 0000.0001)     ;
(PID.TID 0000.0001) 
(PID.TID 0000.0001)    Seaice advection diffusion config,   > START <
(PID.TID 0000.0001)    -----------------------------------------------
(PID.TID 0000.0001) SEAICEmomAdvection = /* advect sea ice momentum */
(PID.TID 0000.0001)                   F
(PID.TID 0000.0001)     ;
(PID.TID 0000.0001) SEAICEadvHeff = /* advect effective ice thickness */
(PID.TID 0000.0001)                   T
(PID.TID 0000.0001)     ;
(PID.TID 0000.0001) SEAICEadvArea = /* advect fractional ice area */
(PID.TID 0000.0001)                   T
(PID.TID 0000.0001)     ;
(PID.TID 0000.0001) SEAICEadvSnow = /* advect snow layer together with ice */
(PID.TID 0000.0001)                   T
(PID.TID 0000.0001)     ;
(PID.TID 0000.0001) SEAICEadvSalt = /* advect salinity together with ice */
(PID.TID 0000.0001)                   T
(PID.TID 0000.0001)     ;
(PID.TID 0000.0001) SEAICEmultiDimAdvection = /* multidimadvec */
(PID.TID 0000.0001)                   T
(PID.TID 0000.0001)     ;
(PID.TID 0000.0001) SEAICEadvScheme   = /* advection scheme for ice */
(PID.TID 0000.0001)                      77
(PID.TID 0000.0001)     ;
(PID.TID 0000.0001) SEAICEadvSchArea  = /* advection scheme for area */
(PID.TID 0000.0001)                      77
(PID.TID 0000.0001)     ;
(PID.TID 0000.0001) SEAICEadvSchHeff  = /* advection scheme for thickness */
(PID.TID 0000.0001)                      77
(PID.TID 0000.0001)     ;
(PID.TID 0000.0001) SEAICEadvSchSnow  = /* advection scheme for snow */
(PID.TID 0000.0001)                      77
(PID.TID 0000.0001)     ;
(PID.TID 0000.0001) SEAICEadvSchSalt  = /* advection scheme for salt */
(PID.TID 0000.0001)                      77
(PID.TID 0000.0001)     ;
(PID.TID 0000.0001) SEAICEdiffKhArea  = /* diffusivity (m^2/s) for area */
(PID.TID 0000.0001)                 2.000000000000000E+01
(PID.TID 0000.0001)     ;
(PID.TID 0000.0001) SEAICEdiffKhHeff  = /* diffusivity (m^2/s) for heff */
(PID.TID 0000.0001)                 2.000000000000000E+01
(PID.TID 0000.0001)     ;
(PID.TID 0000.0001) SEAICEdiffKhSnow  = /* diffusivity (m^2/s) for snow */
(PID.TID 0000.0001)                 2.000000000000000E+01
(PID.TID 0000.0001)     ;
(PID.TID 0000.0001) SEAICEdiffKhSalt  = /* diffusivity (m^2/s) for salt */
(PID.TID 0000.0001)                 2.000000000000000E+01
(PID.TID 0000.0001)     ;
(PID.TID 0000.0001) DIFF1             = /* parameter used in advect.F [m/s] */
(PID.TID 0000.0001)                 0.000000000000000E+00
(PID.TID 0000.0001)     ;
(PID.TID 0000.0001) 
(PID.TID 0000.0001)    Seaice thermodynamics configuration   > START <
(PID.TID 0000.0001)    -----------------------------------------------
(PID.TID 0000.0001) SEAICE_rhoIce     = /* density of sea ice (kg/m3) */
(PID.TID 0000.0001)                 9.100000000000000E+02
(PID.TID 0000.0001)     ;
(PID.TID 0000.0001) SEAICE_rhoSnow    = /* density of snow (kg/m3) */
(PID.TID 0000.0001)                 3.300000000000000E+02
(PID.TID 0000.0001)     ;
(PID.TID 0000.0001) SEAICE_rhoAir     = /* density of air (kg/m3) */
(PID.TID 0000.0001)                 1.200000000000000E+00
(PID.TID 0000.0001)     ;
(PID.TID 0000.0001) usePW79thermodynamics  = /* default 0-layer TD */
(PID.TID 0000.0001)                   T
(PID.TID 0000.0001)     ;
(PID.TID 0000.0001) SEAICE_USE_GROWTH_ADX defined, using seaice_growth_adx code
(PID.TID 0000.0001)  SINegFac  =  1.00000000000000000E+00
(PID.TID 0000.0001) 
(PID.TID 0000.0001) SEAICE_lhEvap     = /* latent heat of evaporation */
(PID.TID 0000.0001)                 2.500000000000000E+06
(PID.TID 0000.0001)     ;
(PID.TID 0000.0001) SEAICE_lhFusion   = /* latent heat of fusion */
(PID.TID 0000.0001)                 3.340000000000000E+05
(PID.TID 0000.0001)     ;
(PID.TID 0000.0001) SEAICE_mcPheePiston = /* turbulent flux "piston velocity" a la McPhee (m/s) */
(PID.TID 0000.0001)                 4.000000000000000E-05
(PID.TID 0000.0001)     ;
(PID.TID 0000.0001) SEAICE_mcPheeTaper = /* tapering of turbulent flux (0.< <1.) for AREA=1. */
(PID.TID 0000.0001)                 0.000000000000000E+00
(PID.TID 0000.0001)     ;
(PID.TID 0000.0001) SEAICE_mcPheeStepFunc = /* replace linear tapering with step funct. */
(PID.TID 0000.0001)                   F
(PID.TID 0000.0001)     ;
(PID.TID 0000.0001) SEAICE_frazilFrac = /* frazil (T<tempFrz) to seaice conversion rate (0.< <1.) */
(PID.TID 0000.0001)                 3.000000000000000E-01
(PID.TID 0000.0001)     ;
(PID.TID 0000.0001) SEAICE_tempFrz0   = /* freezing temp. of sea water (intercept) */
(PID.TID 0000.0001)                 9.010000000000000E-02
(PID.TID 0000.0001)     ;
(PID.TID 0000.0001) SEAICE_dTempFrz_dS= /* freezing temp. of sea water (slope) */
(PID.TID 0000.0001)                -5.750000000000000E-02
(PID.TID 0000.0001)     ;
(PID.TID 0000.0001) SEAICE_growMeltByConv  = /* grow,melt by vert. conv. */
(PID.TID 0000.0001)                   F
(PID.TID 0000.0001)     ;
(PID.TID 0000.0001) SEAICE_doOpenWaterGrowth = /* grow by open water */
(PID.TID 0000.0001)                   T
(PID.TID 0000.0001)     ;
(PID.TID 0000.0001) SEAICE_doOpenWaterMelt = /* melt by open water */
(PID.TID 0000.0001)                   F
(PID.TID 0000.0001)     ;
(PID.TID 0000.0001) SEAICE_areaGainFormula = /* ice cover gain formula (1,2)*/
(PID.TID 0000.0001)                       1
(PID.TID 0000.0001)     1=from growth by ATM
(PID.TID 0000.0001)     2=from predicted growth by ATM
(PID.TID 0000.0001)     ;
(PID.TID 0000.0001) SEAICE_areaLossFormula = /* ice cover loss formula (1,2)*/
(PID.TID 0000.0001)                       1
(PID.TID 0000.0001)     1=from all but only melt conributions by ATM and OCN
(PID.TID 0000.0001)     2=from net melt-grow>0 by ATM and OCN
(PID.TID 0000.0001)     3=from predicted melt by ATM
(PID.TID 0000.0001)     ;
(PID.TID 0000.0001) HO                = /* nominal thickness of new ice */
(PID.TID 0000.0001)                 5.000000000000000E-01
(PID.TID 0000.0001)     ;
(PID.TID 0000.0001) HO_south               = /* Southern Ocean HO */
(PID.TID 0000.0001)                 5.000000000000000E-01
(PID.TID 0000.0001)     ;
(PID.TID 0000.0001) SEAICE_area_max        = /* set to les than 1. to mimic open leads */
(PID.TID 0000.0001)                 1.000000000000000E+00
(PID.TID 0000.0001)     ;
(PID.TID 0000.0001)    Sea ice has a variable salinity such that
(PID.TID 0000.0001) SEAICE_saltFrac = /* fraction of ocn salinity in new ice */
(PID.TID 0000.0001)                 3.000000000000000E-01
(PID.TID 0000.0001)     ;
(PID.TID 0000.0001) SEAICE_salinityTracer = /* test SITR varia. salinity */
(PID.TID 0000.0001)                   F
(PID.TID 0000.0001)     ;
(PID.TID 0000.0001) SEAICEuseFlooding = /* turn submerged snow into ice */
(PID.TID 0000.0001)                   T
(PID.TID 0000.0001)     ;
(PID.TID 0000.0001) 
(PID.TID 0000.0001)    Seaice air-sea fluxes configuration,   > START <
(PID.TID 0000.0001)    -----------------------------------------------
(PID.TID 0000.0001) SEAICEheatConsFix  = /* accound for ocn<->seaice advect. heat flux */
(PID.TID 0000.0001)                   F
(PID.TID 0000.0001)     ;
(PID.TID 0000.0001) SEAICE_multDim    = /* number of ice categories (1 or 7) */
(PID.TID 0000.0001)                       7
(PID.TID 0000.0001)     ;
(PID.TID 0000.0001) SEAICE_PDF        = /* sea-ice distribution (-) */
(PID.TID 0000.0001)     7 @  1.428571428571428E-01              /* K =  1:  7 */
(PID.TID 0000.0001)     ;
(PID.TID 0000.0001) IMAX_TICE         = /* iterations for ice surface temp */
(PID.TID 0000.0001)                      10
(PID.TID 0000.0001)     ;
(PID.TID 0000.0001) postSolvTempIter= /* flux calculation after surf. temp iter */
(PID.TID 0000.0001)                       2
(PID.TID 0000.0001)     ;
(PID.TID 0000.0001) SEAICE_dryIceAlb  = /* winter albedo */
(PID.TID 0000.0001)                 7.500000000000000E-01
(PID.TID 0000.0001)     ;
(PID.TID 0000.0001) SEAICE_wetIceAlb  = /* summer albedo */
(PID.TID 0000.0001)                 6.600000000000000E-01
(PID.TID 0000.0001)     ;
(PID.TID 0000.0001) SEAICE_drySnowAlb = /* dry snow albedo */
(PID.TID 0000.0001)                 8.400000000000000E-01
(PID.TID 0000.0001)     ;
(PID.TID 0000.0001) SEAICE_wetSnowAlb = /* wet snow albedo */
(PID.TID 0000.0001)                 7.000000000000000E-01
(PID.TID 0000.0001)     ;
(PID.TID 0000.0001) SEAICE_dryIceAlb_south = /* Southern Ocean dryIceAlb */
(PID.TID 0000.0001)                 7.500000000000000E-01
(PID.TID 0000.0001)     ;
(PID.TID 0000.0001) SEAICE_wetIceAlb_south = /* Southern Ocean wetIceAlb */
(PID.TID 0000.0001)                 6.600000000000000E-01
(PID.TID 0000.0001)     ;
(PID.TID 0000.0001) SEAICE_drySnowAlb_south= /* Southern Ocean drySnowAlb */
(PID.TID 0000.0001)                 8.400000000000000E-01
(PID.TID 0000.0001)     ;
(PID.TID 0000.0001) SEAICE_wetSnowAlb_south= /* Southern Ocean wetSnowAlb */
(PID.TID 0000.0001)                 7.000000000000000E-01
(PID.TID 0000.0001)     ;
(PID.TID 0000.0001) SEAICE_wetAlbTemp= /* Temp (o.C) threshold for wet-albedo */
(PID.TID 0000.0001)                -1.000000000000000E-03
(PID.TID 0000.0001)     ;
(PID.TID 0000.0001) SEAICE_snow_emiss = /* snow emissivity */
(PID.TID 0000.0001)                 9.500000000000000E-01
(PID.TID 0000.0001)     ;
(PID.TID 0000.0001) SEAICE_ice_emiss = /* seaice emissivity */
(PID.TID 0000.0001)                 9.500000000000000E-01
(PID.TID 0000.0001)     ;
(PID.TID 0000.0001) SEAICE_cpAir      = /* heat capacity of air */
(PID.TID 0000.0001)                 1.005000000000000E+03
(PID.TID 0000.0001)     ;
(PID.TID 0000.0001) SEAICE_dalton     = /* constant dalton number */
(PID.TID 0000.0001)                 1.750000000000000E-03
(PID.TID 0000.0001)     ;
(PID.TID 0000.0001) SEAICE_iceConduct = /* sea-ice conductivity */
(PID.TID 0000.0001)                 2.165600000000000E+00
(PID.TID 0000.0001)     ;
(PID.TID 0000.0001) SEAICE_snowConduct= /* snow conductivity */
(PID.TID 0000.0001)                 3.100000000000000E-01
(PID.TID 0000.0001)     ;
(PID.TID 0000.0001) SEAICE_snowThick  = /* cutoff snow thickness (for albedo) */
(PID.TID 0000.0001)                 1.500000000000000E-01
(PID.TID 0000.0001)     ;
(PID.TID 0000.0001) SEAICE_shortwave  = /* penetration shortwave radiation */
(PID.TID 0000.0001)                 3.000000000000000E-01
(PID.TID 0000.0001)     ;
(PID.TID 0000.0001) useMaykutSatVapPoly = /* use Maykut Polynomial for Sat.Vap.Pr */
(PID.TID 0000.0001)                   F
(PID.TID 0000.0001)     ;
(PID.TID 0000.0001) MIN_ATEMP         = /* minimum air temperature */
(PID.TID 0000.0001)                -5.000000000000000E+01
(PID.TID 0000.0001)     ;
(PID.TID 0000.0001) MIN_LWDOWN        = /* minimum downward longwave */
(PID.TID 0000.0001)                 6.000000000000000E+01
(PID.TID 0000.0001)     ;
(PID.TID 0000.0001) MIN_TICE          = /* minimum ice temperature */
(PID.TID 0000.0001)                -5.000000000000000E+01
(PID.TID 0000.0001)     ;
(PID.TID 0000.0001) 
(PID.TID 0000.0001)    Seaice initialization and IO config.,   > START <
(PID.TID 0000.0001)    -------------------------------------------------
(PID.TID 0000.0001) SEAICE_initialHEFF= /* initial sea-ice thickness */
(PID.TID 0000.0001)                 0.000000000000000E+00
(PID.TID 0000.0001)     ;
(PID.TID 0000.0001) AreaFile = /* Initial ice concentration File */
(PID.TID 0000.0001)               ''
(PID.TID 0000.0001)     ;
(PID.TID 0000.0001) HeffFile = /* Initial effective ice thickness File */
(PID.TID 0000.0001)               ''
(PID.TID 0000.0001)     ;
(PID.TID 0000.0001) HsnowFile = /* Initial snow thickness File */
(PID.TID 0000.0001)               ''
(PID.TID 0000.0001)     ;
(PID.TID 0000.0001) HsaltFile = /* Initial HSALT File */
(PID.TID 0000.0001)               ''
(PID.TID 0000.0001)     ;
(PID.TID 0000.0001) uIceFile = /* Initial U-ice velocity File */
(PID.TID 0000.0001)               ''
(PID.TID 0000.0001)     ;
(PID.TID 0000.0001) vIceFile = /* Initial V-ice velocity File */
(PID.TID 0000.0001)               ''
(PID.TID 0000.0001)     ;
(PID.TID 0000.0001) SEAICEwriteState  = /* write sea ice state to file */
(PID.TID 0000.0001)                   T
(PID.TID 0000.0001)     ;
(PID.TID 0000.0001) SEAICE_monFreq  = /* monitor frequency */
(PID.TID 0000.0001)                 1.000000000000000E+00
(PID.TID 0000.0001)     ;
(PID.TID 0000.0001) SEAICE_dumpFreq   = /* dump frequency */
(PID.TID 0000.0001)                 0.000000000000000E+00
(PID.TID 0000.0001)     ;
(PID.TID 0000.0001) SEAICE_taveFreq   = /* time-averaging frequency */
(PID.TID 0000.0001)                 0.000000000000000E+00
(PID.TID 0000.0001)     ;
(PID.TID 0000.0001) SEAICE_mon_stdio  = /* write monitor to std-outp */
(PID.TID 0000.0001)                   T
(PID.TID 0000.0001)     ;
(PID.TID 0000.0001) SEAICE_dump_mdsio = /* write snap-shot   using MDSIO */
(PID.TID 0000.0001)                   T
(PID.TID 0000.0001)     ;
(PID.TID 0000.0001) SEAICE_tave_mdsio = /* write TimeAverage using MDSIO */
(PID.TID 0000.0001)                   T
(PID.TID 0000.0001)     ;
(PID.TID 0000.0001) 
(PID.TID 0000.0001)    Seaice regularization numbers,   > START <
(PID.TID 0000.0001)    -----------------------------------------------
(PID.TID 0000.0001) SEAICE_deltaMin   = /* reduce singularities in Delta */
(PID.TID 0000.0001)                 1.000000000000000E-10
(PID.TID 0000.0001)     ;
(PID.TID 0000.0001) SEAICE_EPS        = /* small number */
(PID.TID 0000.0001)                 1.000000000000000E-10
(PID.TID 0000.0001)     ;
(PID.TID 0000.0001) SEAICE_EPS_SQ     = /* small number squared */
(PID.TID 0000.0001)                 1.000000000000000E-20
(PID.TID 0000.0001)     ;
(PID.TID 0000.0001) SEAICE_area_reg   = /* reduce derivative singularities */
(PID.TID 0000.0001)                 1.000000000000000E-05
(PID.TID 0000.0001)     ;
(PID.TID 0000.0001) SEAICE_hice_reg   = /* reduce derivative singularities */
(PID.TID 0000.0001)                 5.000000000000000E-02
(PID.TID 0000.0001)     ;
(PID.TID 0000.0001) SEAICE_area_floor = /* reduce derivative singularities */
(PID.TID 0000.0001)                 1.000000000000000E-05
(PID.TID 0000.0001)     ;
(PID.TID 0000.0001) 
(PID.TID 0000.0001) // =======================================================
(PID.TID 0000.0001) // Seaice configuration (SEAICE_PARM01) >>> END <<<
(PID.TID 0000.0001) // =======================================================
(PID.TID 0000.0001) 
(PID.TID 0000.0001) CTRL_INIT_FIXED: ivar=   7 = number of CTRL variables defined
(PID.TID 0000.0001) 
(PID.TID 0000.0001) ctrl-wet 1:    nvarlength =         1665
(PID.TID 0000.0001) ctrl-wet 2: surface wet C =           28
(PID.TID 0000.0001) ctrl-wet 3: surface wet W =           22
(PID.TID 0000.0001) ctrl-wet 4: surface wet S =           23
(PID.TID 0000.0001) ctrl-wet 5: 3D wet points =          297
(PID.TID 0000.0001) ctrl-wet 6: no recs for ivar =     1           4
(PID.TID 0000.0001) ctrl-wet 6: no recs for ivar =     2           4
(PID.TID 0000.0001) ctrl-wet 6: no recs for ivar =     3           4
(PID.TID 0000.0001) ctrl-wet 6: no recs for ivar =     4           4
(PID.TID 0000.0001) ctrl-wet 6: no recs for ivar =     5           1
(PID.TID 0000.0001) ctrl-wet 6: no recs for ivar =     6           1
(PID.TID 0000.0001) ctrl-wet 6: no recs for ivar =     7           1
(PID.TID 0000.0001) ctrl-wet 6: no recs for ivar =     8           0
(PID.TID 0000.0001) ctrl-wet 9: surface wet obcsn =            4         4         4         3
(PID.TID 0000.0001) ctrl-wet 10: surface wet obcss =            0         0         0         0
(PID.TID 0000.0001) ctrl-wet 11: surface wet obcsw =            3         3         3         2
(PID.TID 0000.0001) ctrl-wet 12: surface wet obcse =            0         0         0         0
(PID.TID 0000.0001) ctrl-wet -------------------------------------------------
(PID.TID 0000.0001) ctrl-wet 13: global nvarlength for Nr =   23        1665
(PID.TID 0000.0001) ctrl-wet -------------------------------------------------
(PID.TID 0000.0001) ctrl-wet 14: global nWet C/S/W k=    1          59          50          52
(PID.TID 0000.0001) ctrl-wet 14: global nWet C/S/W k=    2          59          50          52
(PID.TID 0000.0001) ctrl-wet 14: global nWet C/S/W k=    3          59          50          52
(PID.TID 0000.0001) ctrl-wet 14: global nWet C/S/W k=    4          59          50          52
(PID.TID 0000.0001) ctrl-wet 14: global nWet C/S/W k=    5          58          49          51
(PID.TID 0000.0001) ctrl-wet 14: global nWet C/S/W k=    6          57          47          50
(PID.TID 0000.0001) ctrl-wet 14: global nWet C/S/W k=    7          53          42          46
(PID.TID 0000.0001) ctrl-wet 14: global nWet C/S/W k=    8          51          40          44
(PID.TID 0000.0001) ctrl-wet 14: global nWet C/S/W k=    9          45          35          37
(PID.TID 0000.0001) ctrl-wet 14: global nWet C/S/W k=   10          40          31          32
(PID.TID 0000.0001) ctrl-wet 14: global nWet C/S/W k=   11          36          27          29
(PID.TID 0000.0001) ctrl-wet 14: global nWet C/S/W k=   12          33          25          26
(PID.TID 0000.0001) ctrl-wet 14: global nWet C/S/W k=   13          32          24          26
(PID.TID 0000.0001) ctrl-wet 14: global nWet C/S/W k=   14          30          23          24
(PID.TID 0000.0001) ctrl-wet 14: global nWet C/S/W k=   15          28          21          22
(PID.TID 0000.0001) ctrl-wet 14: global nWet C/S/W k=   16          28          21          22
(PID.TID 0000.0001) ctrl-wet 14: global nWet C/S/W k=   17          21          15          16
(PID.TID 0000.0001) ctrl-wet 14: global nWet C/S/W k=   18          13           8           9
(PID.TID 0000.0001) ctrl-wet 14: global nWet C/S/W k=   19           0           0           0
(PID.TID 0000.0001) ctrl-wet 14: global nWet C/S/W k=   20           0           0           0
(PID.TID 0000.0001) ctrl-wet 14: global nWet C/S/W k=   21           0           0           0
(PID.TID 0000.0001) ctrl-wet 14: global nWet C/S/W k=   22           0           0           0
(PID.TID 0000.0001) ctrl-wet 14: global nWet C/S/W k=   23           0           0           0
(PID.TID 0000.0001) ctrl-wet -------------------------------------------------
(PID.TID 0000.0001) ctrl-wet 15a: global obcsN T,S,U,V k=    1           5           5           5           4
(PID.TID 0000.0001) ctrl-wet 15b: global obcsS T,S,U,V k=    1           5           5           5           4
(PID.TID 0000.0001) ctrl-wet 15c: global obcsW T,S,U,V k=    1           3           3           3           2
(PID.TID 0000.0001) ctrl-wet 15d: global obcsE T,S,U,V k=    1           5           5           5           4
(PID.TID 0000.0001) ctrl-wet 15a: global obcsN T,S,U,V k=    2           5           5           5           4
(PID.TID 0000.0001) ctrl-wet 15b: global obcsS T,S,U,V k=    2           5           5           5           4
(PID.TID 0000.0001) ctrl-wet 15c: global obcsW T,S,U,V k=    2           3           3           3           2
(PID.TID 0000.0001) ctrl-wet 15d: global obcsE T,S,U,V k=    2           5           5           5           4
(PID.TID 0000.0001) ctrl-wet 15a: global obcsN T,S,U,V k=    3           5           5           5           4
(PID.TID 0000.0001) ctrl-wet 15b: global obcsS T,S,U,V k=    3           5           5           5           4
(PID.TID 0000.0001) ctrl-wet 15c: global obcsW T,S,U,V k=    3           3           3           3           2
(PID.TID 0000.0001) ctrl-wet 15d: global obcsE T,S,U,V k=    3           5           5           5           4
(PID.TID 0000.0001) ctrl-wet 15a: global obcsN T,S,U,V k=    4           5           5           5           4
(PID.TID 0000.0001) ctrl-wet 15b: global obcsS T,S,U,V k=    4           5           5           5           4
(PID.TID 0000.0001) ctrl-wet 15c: global obcsW T,S,U,V k=    4           3           3           3           2
(PID.TID 0000.0001) ctrl-wet 15d: global obcsE T,S,U,V k=    4           5           5           5           4
(PID.TID 0000.0001) ctrl-wet 15a: global obcsN T,S,U,V k=    5           5           5           5           4
(PID.TID 0000.0001) ctrl-wet 15b: global obcsS T,S,U,V k=    5           5           5           5           4
(PID.TID 0000.0001) ctrl-wet 15c: global obcsW T,S,U,V k=    5           3           3           3           2
(PID.TID 0000.0001) ctrl-wet 15d: global obcsE T,S,U,V k=    5           5           5           5           4
(PID.TID 0000.0001) ctrl-wet 15a: global obcsN T,S,U,V k=    6           5           5           5           4
(PID.TID 0000.0001) ctrl-wet 15b: global obcsS T,S,U,V k=    6           5           5           5           4
(PID.TID 0000.0001) ctrl-wet 15c: global obcsW T,S,U,V k=    6           2           2           2           0
(PID.TID 0000.0001) ctrl-wet 15d: global obcsE T,S,U,V k=    6           5           5           5           4
(PID.TID 0000.0001) ctrl-wet 15a: global obcsN T,S,U,V k=    7           3           3           3           2
(PID.TID 0000.0001) ctrl-wet 15b: global obcsS T,S,U,V k=    7           5           5           5           4
(PID.TID 0000.0001) ctrl-wet 15c: global obcsW T,S,U,V k=    7           2           2           2           0
(PID.TID 0000.0001) ctrl-wet 15d: global obcsE T,S,U,V k=    7           5           5           5           4
(PID.TID 0000.0001) ctrl-wet 15a: global obcsN T,S,U,V k=    8           3           3           3           2
(PID.TID 0000.0001) ctrl-wet 15b: global obcsS T,S,U,V k=    8           5           5           5           4
(PID.TID 0000.0001) ctrl-wet 15c: global obcsW T,S,U,V k=    8           2           2           2           0
(PID.TID 0000.0001) ctrl-wet 15d: global obcsE T,S,U,V k=    8           5           5           5           4
(PID.TID 0000.0001) ctrl-wet 15a: global obcsN T,S,U,V k=    9           3           3           3           2
(PID.TID 0000.0001) ctrl-wet 15b: global obcsS T,S,U,V k=    9           4           4           4           3
(PID.TID 0000.0001) ctrl-wet 15c: global obcsW T,S,U,V k=    9           1           1           1           0
(PID.TID 0000.0001) ctrl-wet 15d: global obcsE T,S,U,V k=    9           4           4           4           3
(PID.TID 0000.0001) ctrl-wet 15a: global obcsN T,S,U,V k=   10           2           2           2           1
(PID.TID 0000.0001) ctrl-wet 15b: global obcsS T,S,U,V k=   10           3           3           3           2
(PID.TID 0000.0001) ctrl-wet 15c: global obcsW T,S,U,V k=   10           0           0           0           0
(PID.TID 0000.0001) ctrl-wet 15d: global obcsE T,S,U,V k=   10           4           4           4           3
(PID.TID 0000.0001) ctrl-wet 15a: global obcsN T,S,U,V k=   11           0           0           0           0
(PID.TID 0000.0001) ctrl-wet 15b: global obcsS T,S,U,V k=   11           3           3           3           2
(PID.TID 0000.0001) ctrl-wet 15c: global obcsW T,S,U,V k=   11           0           0           0           0
(PID.TID 0000.0001) ctrl-wet 15d: global obcsE T,S,U,V k=   11           4           4           4           3
(PID.TID 0000.0001) ctrl-wet 15a: global obcsN T,S,U,V k=   12           0           0           0           0
(PID.TID 0000.0001) ctrl-wet 15b: global obcsS T,S,U,V k=   12           3           3           3           2
(PID.TID 0000.0001) ctrl-wet 15c: global obcsW T,S,U,V k=   12           0           0           0           0
(PID.TID 0000.0001) ctrl-wet 15d: global obcsE T,S,U,V k=   12           4           4           4           3
(PID.TID 0000.0001) ctrl-wet 15a: global obcsN T,S,U,V k=   13           0           0           0           0
(PID.TID 0000.0001) ctrl-wet 15b: global obcsS T,S,U,V k=   13           3           3           3           2
(PID.TID 0000.0001) ctrl-wet 15c: global obcsW T,S,U,V k=   13           0           0           0           0
(PID.TID 0000.0001) ctrl-wet 15d: global obcsE T,S,U,V k=   13           4           4           4           3
(PID.TID 0000.0001) ctrl-wet 15a: global obcsN T,S,U,V k=   14           0           0           0           0
(PID.TID 0000.0001) ctrl-wet 15b: global obcsS T,S,U,V k=   14           3           3           3           2
(PID.TID 0000.0001) ctrl-wet 15c: global obcsW T,S,U,V k=   14           0           0           0           0
(PID.TID 0000.0001) ctrl-wet 15d: global obcsE T,S,U,V k=   14           4           4           4           3
(PID.TID 0000.0001) ctrl-wet 15a: global obcsN T,S,U,V k=   15           0           0           0           0
(PID.TID 0000.0001) ctrl-wet 15b: global obcsS T,S,U,V k=   15           3           3           3           2
(PID.TID 0000.0001) ctrl-wet 15c: global obcsW T,S,U,V k=   15           0           0           0           0
(PID.TID 0000.0001) ctrl-wet 15d: global obcsE T,S,U,V k=   15           4           4           4           3
(PID.TID 0000.0001) ctrl-wet 15a: global obcsN T,S,U,V k=   16           0           0           0           0
(PID.TID 0000.0001) ctrl-wet 15b: global obcsS T,S,U,V k=   16           3           3           3           2
(PID.TID 0000.0001) ctrl-wet 15c: global obcsW T,S,U,V k=   16           0           0           0           0
(PID.TID 0000.0001) ctrl-wet 15d: global obcsE T,S,U,V k=   16           4           4           4           3
(PID.TID 0000.0001) ctrl-wet 15a: global obcsN T,S,U,V k=   17           0           0           0           0
(PID.TID 0000.0001) ctrl-wet 15b: global obcsS T,S,U,V k=   17           2           2           2           1
(PID.TID 0000.0001) ctrl-wet 15c: global obcsW T,S,U,V k=   17           0           0           0           0
(PID.TID 0000.0001) ctrl-wet 15d: global obcsE T,S,U,V k=   17           4           4           4           3
(PID.TID 0000.0001) ctrl-wet 15a: global obcsN T,S,U,V k=   18           0           0           0           0
(PID.TID 0000.0001) ctrl-wet 15b: global obcsS T,S,U,V k=   18           2           2           2           1
(PID.TID 0000.0001) ctrl-wet 15c: global obcsW T,S,U,V k=   18           0           0           0           0
(PID.TID 0000.0001) ctrl-wet 15d: global obcsE T,S,U,V k=   18           3           3           3           2
(PID.TID 0000.0001) ctrl-wet 15a: global obcsN T,S,U,V k=   19           0           0           0           0
(PID.TID 0000.0001) ctrl-wet 15b: global obcsS T,S,U,V k=   19           0           0           0           0
(PID.TID 0000.0001) ctrl-wet 15c: global obcsW T,S,U,V k=   19           0           0           0           0
(PID.TID 0000.0001) ctrl-wet 15d: global obcsE T,S,U,V k=   19           0           0           0           0
(PID.TID 0000.0001) ctrl-wet 15a: global obcsN T,S,U,V k=   20           0           0           0           0
(PID.TID 0000.0001) ctrl-wet 15b: global obcsS T,S,U,V k=   20           0           0           0           0
(PID.TID 0000.0001) ctrl-wet 15c: global obcsW T,S,U,V k=   20           0           0           0           0
(PID.TID 0000.0001) ctrl-wet 15d: global obcsE T,S,U,V k=   20           0           0           0           0
(PID.TID 0000.0001) ctrl-wet 15a: global obcsN T,S,U,V k=   21           0           0           0           0
(PID.TID 0000.0001) ctrl-wet 15b: global obcsS T,S,U,V k=   21           0           0           0           0
(PID.TID 0000.0001) ctrl-wet 15c: global obcsW T,S,U,V k=   21           0           0           0           0
(PID.TID 0000.0001) ctrl-wet 15d: global obcsE T,S,U,V k=   21           0           0           0           0
(PID.TID 0000.0001) ctrl-wet 15a: global obcsN T,S,U,V k=   22           0           0           0           0
(PID.TID 0000.0001) ctrl-wet 15b: global obcsS T,S,U,V k=   22           0           0           0           0
(PID.TID 0000.0001) ctrl-wet 15c: global obcsW T,S,U,V k=   22           0           0           0           0
(PID.TID 0000.0001) ctrl-wet 15d: global obcsE T,S,U,V k=   22           0           0           0           0
(PID.TID 0000.0001) ctrl-wet 15a: global obcsN T,S,U,V k=   23           0           0           0           0
(PID.TID 0000.0001) ctrl-wet 15b: global obcsS T,S,U,V k=   23           0           0           0           0
(PID.TID 0000.0001) ctrl-wet 15c: global obcsW T,S,U,V k=   23           0           0           0           0
(PID.TID 0000.0001) ctrl-wet 15d: global obcsE T,S,U,V k=   23           0           0           0           0
(PID.TID 0000.0001) ctrl-wet -------------------------------------------------
(PID.TID 0000.0001) ctrl-wet 16a: global SUM(K) obcsN T,S,U,V           41          41          41          31
(PID.TID 0000.0001) ctrl-wet 16b: global SUM(K) obcsS T,S,U,V           69          69          69          51
(PID.TID 0000.0001) ctrl-wet 16c: global SUM(K) obcsW T,S,U,V           22          22          22          10
(PID.TID 0000.0001) ctrl-wet 16d: global SUM(K) obcsE T,S,U,V           79          79          79          61
(PID.TID 0000.0001) ctrl-wet -------------------------------------------------
(PID.TID 0000.0001) ctrl_init_wet: no. of control variables:            7
(PID.TID 0000.0001) ctrl_init_wet: control vector length:            1665
(PID.TID 0000.0001) 
(PID.TID 0000.0001) // =======================================================
(PID.TID 0000.0001) // control vector configuration  >>> START <<<
(PID.TID 0000.0001) // =======================================================
(PID.TID 0000.0001) 
(PID.TID 0000.0001)  Total number of ocean points per tile:
(PID.TID 0000.0001)  --------------------------------------
(PID.TID 0000.0001)  sNx*sNy*Nr =      920
(PID.TID 0000.0001) 
(PID.TID 0000.0001)  Number of ocean points per tile:
(PID.TID 0000.0001)  --------------------------------
(PID.TID 0000.0001)  bi,bj,#(c/s/w): 001 001     297     228     208
(PID.TID 0000.0001)  bi,bj,#(c/s/w): 002 001     464     380     434
(PID.TID 0000.0001) 
(PID.TID 0000.0001)       file       = xx_obcsn
(PID.TID 0000.0001)       ncvartype  = SecXZ
(PID.TID 0000.0001)       index      =     1  (use this for pkg/grdchk)
(PID.TID 0000.0001)       ncvarindex =     1
(PID.TID 0000.0001) 
(PID.TID 0000.0001)       file       = xx_obcss
(PID.TID 0000.0001)       ncvartype  = SecXZ
(PID.TID 0000.0001)       index      =     2  (use this for pkg/grdchk)
(PID.TID 0000.0001)       ncvarindex =     2
(PID.TID 0000.0001) 
(PID.TID 0000.0001)       file       = xx_obcsw
(PID.TID 0000.0001)       ncvartype  = SecYZ
(PID.TID 0000.0001)       index      =     3  (use this for pkg/grdchk)
(PID.TID 0000.0001)       ncvarindex =     4
(PID.TID 0000.0001) 
(PID.TID 0000.0001)       file       = xx_obcse
(PID.TID 0000.0001)       ncvartype  = SecYZ
(PID.TID 0000.0001)       index      =     4  (use this for pkg/grdchk)
(PID.TID 0000.0001)       ncvarindex =     3
(PID.TID 0000.0001) 
(PID.TID 0000.0001)  -> 3d control, genarr3d no.  1 is in use
(PID.TID 0000.0001)       file       = xx_theta
(PID.TID 0000.0001)       ncvartype  = Arr3D
(PID.TID 0000.0001)       index      =     5  (use this for pkg/grdchk)
(PID.TID 0000.0001)       ncvarindex =     1
(PID.TID 0000.0001)       weight     = ones_32b.bin
(PID.TID 0000.0001) 
(PID.TID 0000.0001)  -> time variable 2d control, gentim2d no.  1 is in use
(PID.TID 0000.0001)       file       = xx_atemp
(PID.TID 0000.0001)       ncvartype  = Tim2D
(PID.TID 0000.0001)       index      =     6  (use this for pkg/grdchk)
(PID.TID 0000.0001)       ncvarindex =     1
(PID.TID 0000.0001)       weight     = ones_32b.bin
(PID.TID 0000.0001)       period     =  00000000 000000
(PID.TID 0000.0001) 
(PID.TID 0000.0001)  -> time variable 2d control, gentim2d no.  2 is in use
(PID.TID 0000.0001)       file       = xx_swdown
(PID.TID 0000.0001)       ncvartype  = Tim2D
(PID.TID 0000.0001)       index      =     7  (use this for pkg/grdchk)
(PID.TID 0000.0001)       ncvarindex =     2
(PID.TID 0000.0001)       weight     = ones_32b.bin
(PID.TID 0000.0001)       period     =  00000000 000000
(PID.TID 0000.0001) 
(PID.TID 0000.0001) // =======================================================
(PID.TID 0000.0001) // control vector configuration  >>> END <<<
(PID.TID 0000.0001) // =======================================================
(PID.TID 0000.0001) 
(PID.TID 0000.0001) %MON fCori_max                    =   1.2755669869709E-04
(PID.TID 0000.0001) %MON fCori_min                    =   1.0666243053630E-04
(PID.TID 0000.0001) %MON fCori_mean                   =   1.1761200538805E-04
(PID.TID 0000.0001) %MON fCori_sd                     =   6.8513324598791E-06
(PID.TID 0000.0001) %MON fCoriG_max                   =   1.2630328426495E-04
(PID.TID 0000.0001) %MON fCoriG_min                   =   1.0491029349513E-04
(PID.TID 0000.0001) %MON fCoriG_mean                  =   1.1610278222072E-04
(PID.TID 0000.0001) %MON fCoriG_sd                    =   7.0142966441249E-06
(PID.TID 0000.0001) %MON fCoriCos_max                 =   9.9464325599212E-05
(PID.TID 0000.0001) %MON fCoriCos_min                 =   7.0705832661230E-05
(PID.TID 0000.0001) %MON fCoriCos_mean                =   8.5450123718417E-05
(PID.TID 0000.0001) %MON fCoriCos_sd                  =   9.4222048082790E-06
(PID.TID 0000.0001) INI_CG2D: CG2D normalisation factor =  1.8806719473501505E-04
(PID.TID 0000.0001) 
(PID.TID 0000.0001) // =======================================================
(PID.TID 0000.0001) // Model configuration
(PID.TID 0000.0001) // =======================================================
(PID.TID 0000.0001) //
(PID.TID 0000.0001) // "Physical" paramters ( PARM01 in namelist )
(PID.TID 0000.0001) //
(PID.TID 0000.0001) buoyancyRelation = /* Type of relation to get Buoyancy */
(PID.TID 0000.0001)               'OCEANIC'
(PID.TID 0000.0001)     ;
(PID.TID 0000.0001) fluidIsAir   =  /* fluid major constituent is Air */
(PID.TID 0000.0001)                   F
(PID.TID 0000.0001)     ;
(PID.TID 0000.0001) fluidIsWater =  /* fluid major constituent is Water */
(PID.TID 0000.0001)                   T
(PID.TID 0000.0001)     ;
(PID.TID 0000.0001) usingPCoords =  /* use p (or p*) vertical coordinate */
(PID.TID 0000.0001)                   F
(PID.TID 0000.0001)     ;
(PID.TID 0000.0001) usingZCoords =  /* use z (or z*) vertical coordinate */
(PID.TID 0000.0001)                   T
(PID.TID 0000.0001)     ;
(PID.TID 0000.0001) tRef =   /* Reference temperature profile ( oC or K ) */
(PID.TID 0000.0001)                 2.400000000000000E+01,      /* K =  1 */
(PID.TID 0000.0001)                 2.300000000000000E+01,      /* K =  2 */
(PID.TID 0000.0001)                 2.200000000000000E+01,      /* K =  3 */
(PID.TID 0000.0001)                 2.100000000000000E+01,      /* K =  4 */
(PID.TID 0000.0001)                 2.000000000000000E+01,      /* K =  5 */
(PID.TID 0000.0001)                 1.900000000000000E+01,      /* K =  6 */
(PID.TID 0000.0001)                 1.800000000000000E+01,      /* K =  7 */
(PID.TID 0000.0001)                 1.700000000000000E+01,      /* K =  8 */
(PID.TID 0000.0001)                 1.600000000000000E+01,      /* K =  9 */
(PID.TID 0000.0001)                 1.500000000000000E+01,      /* K = 10 */
(PID.TID 0000.0001)                 1.400000000000000E+01,      /* K = 11 */
(PID.TID 0000.0001)                 1.300000000000000E+01,      /* K = 12 */
(PID.TID 0000.0001)                 1.200000000000000E+01,      /* K = 13 */
(PID.TID 0000.0001)                 1.100000000000000E+01,      /* K = 14 */
(PID.TID 0000.0001)                 1.000000000000000E+01,      /* K = 15 */
(PID.TID 0000.0001)                 9.000000000000000E+00,      /* K = 16 */
(PID.TID 0000.0001)                 8.000000000000000E+00,      /* K = 17 */
(PID.TID 0000.0001)                 7.000000000000000E+00,      /* K = 18 */
(PID.TID 0000.0001)                 6.000000000000000E+00,      /* K = 19 */
(PID.TID 0000.0001)                 5.000000000000000E+00,      /* K = 20 */
(PID.TID 0000.0001)                 4.000000000000000E+00,      /* K = 21 */
(PID.TID 0000.0001)                 3.000000000000000E+00,      /* K = 22 */
(PID.TID 0000.0001)                 2.000000000000000E+00       /* K = 23 */
(PID.TID 0000.0001)     ;
(PID.TID 0000.0001) sRef =   /* Reference salinity profile ( g/kg ) */
(PID.TID 0000.0001)                 3.465000000000000E+01,      /* K =  1 */
(PID.TID 0000.0001)                 3.475000000000000E+01,      /* K =  2 */
(PID.TID 0000.0001)                 3.482000000000000E+01,      /* K =  3 */
(PID.TID 0000.0001)                 3.487000000000000E+01,      /* K =  4 */
(PID.TID 0000.0001)     2 @  3.490000000000000E+01,             /* K =  5:  6 */
(PID.TID 0000.0001)                 3.486000000000000E+01,      /* K =  7 */
(PID.TID 0000.0001)                 3.478000000000000E+01,      /* K =  8 */
(PID.TID 0000.0001)                 3.469000000000000E+01,      /* K =  9 */
(PID.TID 0000.0001)                 3.460000000000000E+01,      /* K = 10 */
(PID.TID 0000.0001)                 3.458000000000000E+01,      /* K = 11 */
(PID.TID 0000.0001)                 3.462000000000000E+01,      /* K = 12 */
(PID.TID 0000.0001)                 3.468000000000000E+01,      /* K = 13 */
(PID.TID 0000.0001)                 3.472000000000000E+01,      /* K = 14 */
(PID.TID 0000.0001)                 3.473000000000000E+01,      /* K = 15 */
(PID.TID 0000.0001)                 3.474000000000000E+01,      /* K = 16 */
(PID.TID 0000.0001)     2 @  3.473000000000000E+01,             /* K = 17: 18 */
(PID.TID 0000.0001)     2 @  3.472000000000000E+01,             /* K = 19: 20 */
(PID.TID 0000.0001)                 3.471000000000000E+01,      /* K = 21 */
(PID.TID 0000.0001)                 3.470000000000000E+01,      /* K = 22 */
(PID.TID 0000.0001)                 3.469000000000000E+01       /* K = 23 */
(PID.TID 0000.0001)     ;
(PID.TID 0000.0001) rhoRef =   /* Density vertical profile from (Ref,sRef)( kg/m^3 ) */
(PID.TID 0000.0001)                 1.023399597669854E+03,      /* K =  1 */
(PID.TID 0000.0001)                 1.023810240320856E+03,      /* K =  2 */
(PID.TID 0000.0001)                 1.024201435647580E+03,      /* K =  3 */
(PID.TID 0000.0001)                 1.024591510588746E+03,      /* K =  4 */
(PID.TID 0000.0001)                 1.024969611150069E+03,      /* K =  5 */
(PID.TID 0000.0001)                 1.025328017199967E+03,      /* K =  6 */
(PID.TID 0000.0001)                 1.025680833282475E+03,      /* K =  7 */
(PID.TID 0000.0001)                 1.026050051489947E+03,      /* K =  8 */
(PID.TID 0000.0001)                 1.026491970185416E+03,      /* K =  9 */
(PID.TID 0000.0001)                 1.027036952689552E+03,      /* K = 10 */
(PID.TID 0000.0001)                 1.027794852671120E+03,      /* K = 11 */
(PID.TID 0000.0001)                 1.028814168587807E+03,      /* K = 12 */
(PID.TID 0000.0001)                 1.030119722650770E+03,      /* K = 13 */
(PID.TID 0000.0001)                 1.031735154401125E+03,      /* K = 14 */
(PID.TID 0000.0001)                 1.033628649568903E+03,      /* K = 15 */
(PID.TID 0000.0001)                 1.035732830613343E+03,      /* K = 16 */
(PID.TID 0000.0001)                 1.037997052952795E+03,      /* K = 17 */
(PID.TID 0000.0001)                 1.040366267417616E+03,      /* K = 18 */
(PID.TID 0000.0001)                 1.042716568158493E+03,      /* K = 19 */
(PID.TID 0000.0001)                 1.045063813536698E+03,      /* K = 20 */
(PID.TID 0000.0001)                 1.047393250130134E+03,      /* K = 21 */
(PID.TID 0000.0001)                 1.049712998140759E+03,      /* K = 22 */
(PID.TID 0000.0001)                 1.052023490263938E+03       /* K = 23 */
(PID.TID 0000.0001)     ;
(PID.TID 0000.0001) dBdrRef = /* Vertical grad. of reference buoyancy [(m/s/r)^2] */
(PID.TID 0000.0001)                 0.000000000000000E+00,      /* K =  1 */
(PID.TID 0000.0001)                 3.513461801096672E-04,      /* K =  2 */
(PID.TID 0000.0001)                 2.578462793867026E-04,      /* K =  3 */
(PID.TID 0000.0001)                 1.716535447918954E-04,      /* K =  4 */
(PID.TID 0000.0001)                 1.391849606744939E-04,      /* K =  5 */
(PID.TID 0000.0001)                 1.106038973987551E-04,      /* K =  6 */
(PID.TID 0000.0001)                 7.062448315028799E-05,      /* K =  7 */
(PID.TID 0000.0001)                 4.112152780686669E-05,      /* K =  8 */
(PID.TID 0000.0001)                 2.554455911799560E-05,      /* K =  9 */
(PID.TID 0000.0001)                 1.739274227427603E-05,      /* K = 10 */
(PID.TID 0000.0001)                 1.573008010125636E-05,      /* K = 11 */
(PID.TID 0000.0001)                 1.341763357458043E-05,      /* K = 12 */
(PID.TID 0000.0001)                 1.029886793911016E-05,      /* K = 13 */
(PID.TID 0000.0001)                 7.244777660794312E-06,      /* K = 14 */
(PID.TID 0000.0001)                 5.291061202791868E-06,      /* K = 15 */
(PID.TID 0000.0001)                 4.668992652371521E-06,      /* K = 16 */
(PID.TID 0000.0001)                 3.952349989520169E-06,      /* K = 17 */
(PID.TID 0000.0001)                 3.937600045035830E-06,      /* K = 18 */
(PID.TID 0000.0001)                 3.833348475309353E-06,      /* K = 19 */
(PID.TID 0000.0001)                 4.027570774400333E-06,      /* K = 20 */
(PID.TID 0000.0001)                 3.935806005392895E-06,      /* K = 21 */
(PID.TID 0000.0001)                 3.995673930141529E-06,      /* K = 22 */
(PID.TID 0000.0001)                 4.061338744769299E-06       /* K = 23 */
(PID.TID 0000.0001)     ;
(PID.TID 0000.0001) useStrainTensionVisc= /* Use StrainTension Form of Viscous Operator */
(PID.TID 0000.0001)                   F
(PID.TID 0000.0001)     ;
(PID.TID 0000.0001) useVariableVisc = /* Use variable horizontal viscosity */
(PID.TID 0000.0001)                   F
(PID.TID 0000.0001)     ;
(PID.TID 0000.0001) useHarmonicVisc = /* Use harmonic horizontal viscosity */
(PID.TID 0000.0001)                   T
(PID.TID 0000.0001)     ;
(PID.TID 0000.0001) useBiharmonicVisc= /* Use biharmonic horiz.  viscosity */
(PID.TID 0000.0001)                   F
(PID.TID 0000.0001)     ;
(PID.TID 0000.0001) useSmag3D = /* Use isotropic 3-D Smagorinsky viscosity */
(PID.TID 0000.0001)                   F
(PID.TID 0000.0001)     ;
(PID.TID 0000.0001) viscAh  =   /* Lateral harmonic viscosity ( m^2/s ) */
(PID.TID 0000.0001)                 5.000000000000000E+04
(PID.TID 0000.0001)     ;
(PID.TID 0000.0001) viscA4  =   /* Lateral biharmonic viscosity ( m^4/s ) */
(PID.TID 0000.0001)                 0.000000000000000E+00
(PID.TID 0000.0001)     ;
(PID.TID 0000.0001) no_slip_sides =  /* Viscous BCs: No-slip sides */
(PID.TID 0000.0001)                   F
(PID.TID 0000.0001)     ;
(PID.TID 0000.0001) sideDragFactor = /* side-drag scaling factor (non-dim) */
(PID.TID 0000.0001)                 2.000000000000000E+00
(PID.TID 0000.0001)     ;
(PID.TID 0000.0001) viscArNr = /* vertical profile of vertical viscosity ( m^2/s )*/
(PID.TID 0000.0001)    23 @  1.930000000000000E-05              /* K =  1: 23 */
(PID.TID 0000.0001)     ;
(PID.TID 0000.0001) no_slip_bottom =  /* Viscous BCs: No-slip bottom */
(PID.TID 0000.0001)                   T
(PID.TID 0000.0001)     ;
(PID.TID 0000.0001) bottomVisc_pCell = /* Partial-cell in bottom Visc. BC */
(PID.TID 0000.0001)                   F
(PID.TID 0000.0001)     ;
(PID.TID 0000.0001) bottomDragLinear = /* linear bottom-drag coefficient ( m/s ) */
(PID.TID 0000.0001)                 0.000000000000000E+00
(PID.TID 0000.0001)     ;
(PID.TID 0000.0001) bottomDragQuadratic = /* quadratic bottom-drag coefficient (-) */
(PID.TID 0000.0001)                 0.000000000000000E+00
(PID.TID 0000.0001)     ;
(PID.TID 0000.0001) selectBotDragQuadr = /* select quadratic bottom drag options */
(PID.TID 0000.0001)                      -1
(PID.TID 0000.0001)     ;
(PID.TID 0000.0001) diffKhT =   /* Laplacian diffusion of heat laterally ( m^2/s ) */
(PID.TID 0000.0001)                 0.000000000000000E+00
(PID.TID 0000.0001)     ;
(PID.TID 0000.0001) diffK4T =   /* Biharmonic diffusion of heat laterally ( m^4/s ) */
(PID.TID 0000.0001)                 0.000000000000000E+00
(PID.TID 0000.0001)     ;
(PID.TID 0000.0001) diffKhS =   /* Laplacian diffusion of salt laterally ( m^2/s ) */
(PID.TID 0000.0001)                 0.000000000000000E+00
(PID.TID 0000.0001)     ;
(PID.TID 0000.0001) diffK4S =   /* Biharmonic diffusion of salt laterally ( m^4/s ) */
(PID.TID 0000.0001)                 0.000000000000000E+00
(PID.TID 0000.0001)     ;
(PID.TID 0000.0001) diffKrNrT = /* vertical profile of vertical diffusion of Temp ( m^2/s )*/
(PID.TID 0000.0001)    23 @  1.460000000000000E-05              /* K =  1: 23 */
(PID.TID 0000.0001)     ;
(PID.TID 0000.0001) diffKrNrS = /* vertical profile of vertical diffusion of Salt ( m^2/s )*/
(PID.TID 0000.0001)    23 @  1.460000000000000E-05              /* K =  1: 23 */
(PID.TID 0000.0001)     ;
(PID.TID 0000.0001) diffKrBL79surf = /* Surface diffusion for Bryan and Lewis 79 ( m^2/s ) */
(PID.TID 0000.0001)                 0.000000000000000E+00
(PID.TID 0000.0001)     ;
(PID.TID 0000.0001) diffKrBL79deep = /* Deep diffusion for Bryan and Lewis 1979 ( m^2/s ) */
(PID.TID 0000.0001)                 0.000000000000000E+00
(PID.TID 0000.0001)     ;
(PID.TID 0000.0001) diffKrBL79scl = /* Depth scale for Bryan and Lewis 1979 ( m ) */
(PID.TID 0000.0001)                 2.000000000000000E+02
(PID.TID 0000.0001)     ;
(PID.TID 0000.0001) diffKrBL79Ho = /* Turning depth for Bryan and Lewis 1979 ( m ) */
(PID.TID 0000.0001)                -2.000000000000000E+03
(PID.TID 0000.0001)     ;
(PID.TID 0000.0001) ivdc_kappa = /* Implicit Vertical Diffusivity for Convection ( m^2/s) */
(PID.TID 0000.0001)                 0.000000000000000E+00
(PID.TID 0000.0001)     ;
(PID.TID 0000.0001) hMixCriteria=  /* Criteria for mixed-layer diagnostic */
(PID.TID 0000.0001)                -8.000000000000000E-01
(PID.TID 0000.0001)     ;
(PID.TID 0000.0001) dRhoSmall =  /* Parameter for mixed-layer diagnostic */
(PID.TID 0000.0001)                 1.000000000000000E-06
(PID.TID 0000.0001)     ;
(PID.TID 0000.0001) hMixSmooth=  /* Smoothing parameter for mixed-layer diagnostic */
(PID.TID 0000.0001)                 0.000000000000000E+00
(PID.TID 0000.0001)     ;
(PID.TID 0000.0001) eosType =  /* Type of Equation of State */
(PID.TID 0000.0001)               'JMD95Z'
(PID.TID 0000.0001)     ;
(PID.TID 0000.0001) eosRefP0 = /* Reference atmospheric pressure for EOS ( Pa ) */
(PID.TID 0000.0001)                 1.013250000000000E+05
(PID.TID 0000.0001)     ;
(PID.TID 0000.0001) selectP_inEOS_Zc = /* select pressure to use in EOS (0,1,2,3) */
(PID.TID 0000.0001)                       0
(PID.TID 0000.0001)     0= -g*rhoConst*z ; 1= pRef (from tRef,sRef); 2= Hyd P ; 3= Hyd+NH P
(PID.TID 0000.0001)     ;
(PID.TID 0000.0001) surf_pRef = /* Surface reference pressure ( Pa ) */
(PID.TID 0000.0001)                 1.013250000000000E+05
(PID.TID 0000.0001)     ;
(PID.TID 0000.0001) HeatCapacity_Cp =  /* Specific heat capacity ( J/kg/K ) */
(PID.TID 0000.0001)                 3.986000000000000E+03
(PID.TID 0000.0001)     ;
(PID.TID 0000.0001) celsius2K = /* 0 degree Celsius converted to Kelvin ( K ) */
(PID.TID 0000.0001)                 2.731600000000000E+02
(PID.TID 0000.0001)     ;
(PID.TID 0000.0001) rhoConst  = /* Reference density (Boussinesq)  ( kg/m^3 ) */
(PID.TID 0000.0001)                 1.027000000000000E+03
(PID.TID 0000.0001)     ;
(PID.TID 0000.0001) rhoFacC = /* normalized Reference density @ cell-Center (-) */
(PID.TID 0000.0001)    23 @  1.000000000000000E+00              /* K =  1: 23 */
(PID.TID 0000.0001)     ;
(PID.TID 0000.0001) rhoFacF = /* normalized Reference density @ W-Interface (-) */
(PID.TID 0000.0001)    24 @  1.000000000000000E+00              /* K =  1: 24 */
(PID.TID 0000.0001)     ;
(PID.TID 0000.0001) rhoConstFresh = /* Fresh-water reference density ( kg/m^3 ) */
(PID.TID 0000.0001)                 9.998000000000000E+02
(PID.TID 0000.0001)     ;
(PID.TID 0000.0001) gravity =   /* Gravitational acceleration ( m/s^2 ) */
(PID.TID 0000.0001)                 9.815600000000000E+00
(PID.TID 0000.0001)     ;
(PID.TID 0000.0001) gBaro =   /* Barotropic gravity ( m/s^2 ) */
(PID.TID 0000.0001)                 9.815600000000000E+00
(PID.TID 0000.0001)     ;
(PID.TID 0000.0001) gravFacC = /* gravity factor (vs surf.) @ cell-Center (-) */
(PID.TID 0000.0001)    23 @  1.000000000000000E+00              /* K =  1: 23 */
(PID.TID 0000.0001)     ;
(PID.TID 0000.0001) gravFacF = /* gravity factor (vs surf.) @ W-Interface (-) */
(PID.TID 0000.0001)    24 @  1.000000000000000E+00              /* K =  1: 24 */
(PID.TID 0000.0001)     ;
(PID.TID 0000.0001) rotationPeriod =   /* Rotation Period ( s ) */
(PID.TID 0000.0001)                 8.616400000000000E+04
(PID.TID 0000.0001)     ;
(PID.TID 0000.0001) omega =   /* Angular velocity ( rad/s ) */
(PID.TID 0000.0001)                 7.292123516990375E-05
(PID.TID 0000.0001)     ;
(PID.TID 0000.0001) f0 =   /* Reference coriolis parameter ( 1/s ) */
(PID.TID 0000.0001)                 1.000000000000000E-04
(PID.TID 0000.0001)     ;
(PID.TID 0000.0001) beta =   /* Beta ( 1/(m.s) ) */
(PID.TID 0000.0001)                 9.999999999999999E-12
(PID.TID 0000.0001)     ;
(PID.TID 0000.0001) fPrime =   /* Second coriolis parameter ( 1/s ) */
(PID.TID 0000.0001)                 0.000000000000000E+00
(PID.TID 0000.0001)     ;
(PID.TID 0000.0001) rigidLid =   /* Rigid lid on/off flag */
(PID.TID 0000.0001)                   F
(PID.TID 0000.0001)     ;
(PID.TID 0000.0001) implicitFreeSurface =   /* Implicit free surface on/off flag */
(PID.TID 0000.0001)                   T
(PID.TID 0000.0001)     ;
(PID.TID 0000.0001) freeSurfFac =   /* Implicit free surface factor */
(PID.TID 0000.0001)                 1.000000000000000E+00
(PID.TID 0000.0001)     ;
(PID.TID 0000.0001) implicSurfPress =  /* Surface Pressure implicit factor (0-1) */
(PID.TID 0000.0001)                 1.000000000000000E+00
(PID.TID 0000.0001)     ;
(PID.TID 0000.0001) implicDiv2DFlow =  /* Barot. Flow Div. implicit factor (0-1) */
(PID.TID 0000.0001)                 1.000000000000000E+00
(PID.TID 0000.0001)     ;
(PID.TID 0000.0001) uniformLin_PhiSurf = /* use uniform Bo_surf on/off flag */
(PID.TID 0000.0001)                   T
(PID.TID 0000.0001)     ;
(PID.TID 0000.0001) uniformFreeSurfLev = /* free-surface level-index is uniform */
(PID.TID 0000.0001)                   T
(PID.TID 0000.0001)     ;
(PID.TID 0000.0001) sIceLoadFac =  /* scale factor for sIceLoad (0-1) */
(PID.TID 0000.0001)                 1.000000000000000E+00
(PID.TID 0000.0001)     ;
(PID.TID 0000.0001) hFacMin =   /* minimum partial cell factor (hFac) */
(PID.TID 0000.0001)                 1.000000000000000E+00
(PID.TID 0000.0001)     ;
(PID.TID 0000.0001) hFacMinDr = /* minimum partial cell thickness ( m) */
(PID.TID 0000.0001)                 0.000000000000000E+00
(PID.TID 0000.0001)     ;
(PID.TID 0000.0001) exactConserv =  /* Exact Volume Conservation on/off flag */
(PID.TID 0000.0001)                   F
(PID.TID 0000.0001)     ;
(PID.TID 0000.0001) linFSConserveTr = /* Tracer correction for Lin Free Surface on/off flag */
(PID.TID 0000.0001)                   F
(PID.TID 0000.0001)     ;
(PID.TID 0000.0001) nonlinFreeSurf = /* Non-linear Free Surf. options (-1,0,1,2,3)*/
(PID.TID 0000.0001)                       0
(PID.TID 0000.0001)      -1,0= Off ; 1,2,3= On, 2=+rescale gU,gV, 3=+update cg2d solv.
(PID.TID 0000.0001)     ;
(PID.TID 0000.0001) hFacInf =   /* lower threshold for hFac (nonlinFreeSurf only)*/
(PID.TID 0000.0001)                 2.000000000000000E-01
(PID.TID 0000.0001)     ;
(PID.TID 0000.0001) hFacSup =   /* upper threshold for hFac (nonlinFreeSurf only)*/
(PID.TID 0000.0001)                 2.000000000000000E+00
(PID.TID 0000.0001)     ;
(PID.TID 0000.0001) select_rStar = /* r* Vertical coord. options (=0 r coord.; >0 uses r*)*/
(PID.TID 0000.0001)                       0
(PID.TID 0000.0001)     ;
(PID.TID 0000.0001) useRealFreshWaterFlux = /* Real Fresh Water Flux on/off flag*/
(PID.TID 0000.0001)                   F
(PID.TID 0000.0001)     ;
(PID.TID 0000.0001) temp_EvPrRn = /* Temp. of Evap/Prec/R (UNSET=use local T)(oC)*/
(PID.TID 0000.0001)                 1.234567000000000E+05
(PID.TID 0000.0001)     ;
(PID.TID 0000.0001) salt_EvPrRn = /* Salin. of Evap/Prec/R (UNSET=use local S)(g/kg)*/
(PID.TID 0000.0001)                 0.000000000000000E+00
(PID.TID 0000.0001)     ;
(PID.TID 0000.0001) selectAddFluid = /* option for mass source/sink of fluid (=0: off) */
(PID.TID 0000.0001)                       0
(PID.TID 0000.0001)     ;
(PID.TID 0000.0001) temp_addMass = /* Temp. of addMass array (UNSET=use local T)(oC)*/
(PID.TID 0000.0001)                 1.234567000000000E+05
(PID.TID 0000.0001)     ;
(PID.TID 0000.0001) salt_addMass = /* Salin. of addMass array (UNSET=use local S)(g/kg)*/
(PID.TID 0000.0001)                 0.000000000000000E+00
(PID.TID 0000.0001)     ;
(PID.TID 0000.0001) convertFW2Salt = /* convert F.W. Flux to Salt Flux (-1=use local S)(g/kg)*/
(PID.TID 0000.0001)                -1.000000000000000E+00
(PID.TID 0000.0001)     ;
(PID.TID 0000.0001) use3Dsolver = /* use 3-D pressure solver on/off flag */
(PID.TID 0000.0001)                   F
(PID.TID 0000.0001)     ;
(PID.TID 0000.0001) nonHydrostatic =  /* Non-Hydrostatic on/off flag */
(PID.TID 0000.0001)                   F
(PID.TID 0000.0001)     ;
(PID.TID 0000.0001) nh_Am2 = /* Non-Hydrostatic terms scaling factor */
(PID.TID 0000.0001)                 1.000000000000000E+00
(PID.TID 0000.0001)     ;
(PID.TID 0000.0001) implicitNHPress = /* Non-Hyd Pressure implicit factor (0-1)*/
(PID.TID 0000.0001)                 1.000000000000000E+00
(PID.TID 0000.0001)     ;
(PID.TID 0000.0001) selectNHfreeSurf = /* Non-Hyd (free-)Surface option */
(PID.TID 0000.0001)                       0
(PID.TID 0000.0001)     ;
(PID.TID 0000.0001) quasiHydrostatic = /* Quasi-Hydrostatic on/off flag */
(PID.TID 0000.0001)                   F
(PID.TID 0000.0001)     ;
(PID.TID 0000.0001) calc_wVelocity = /* vertical velocity calculation on/off flag */
(PID.TID 0000.0001)                   T
(PID.TID 0000.0001)     ;
(PID.TID 0000.0001) momStepping =  /* Momentum equation on/off flag */
(PID.TID 0000.0001)                   T
(PID.TID 0000.0001)     ;
(PID.TID 0000.0001) vectorInvariantMomentum= /* Vector-Invariant Momentum on/off */
(PID.TID 0000.0001)                   F
(PID.TID 0000.0001)     ;
(PID.TID 0000.0001) momAdvection =  /* Momentum advection on/off flag */
(PID.TID 0000.0001)                   T
(PID.TID 0000.0001)     ;
(PID.TID 0000.0001) momViscosity =  /* Momentum viscosity on/off flag */
(PID.TID 0000.0001)                   T
(PID.TID 0000.0001)     ;
(PID.TID 0000.0001) momImplVertAdv= /* Momentum implicit vert. advection on/off*/
(PID.TID 0000.0001)                   F
(PID.TID 0000.0001)     ;
(PID.TID 0000.0001) implicitViscosity = /* Implicit viscosity on/off flag */
(PID.TID 0000.0001)                   T
(PID.TID 0000.0001)     ;
(PID.TID 0000.0001) selectImplicitDrag= /* Implicit bot Drag options (0,1,2)*/
(PID.TID 0000.0001)                       0
(PID.TID 0000.0001)     0= Expl. ; 1= Impl. on provis. Vel ; 2= Fully Impl (with surf.P)
(PID.TID 0000.0001)     ;
(PID.TID 0000.0001) selectMetricTerms= /* Metric-Terms on/off flag (=0/1) */
(PID.TID 0000.0001)                       1
(PID.TID 0000.0001)     ;
(PID.TID 0000.0001) useNHMTerms = /* Non-Hydrostatic Metric-Terms on/off */
(PID.TID 0000.0001)                   F
(PID.TID 0000.0001)     ;
(PID.TID 0000.0001) selectCoriMap = /* Coriolis Map options (0,1,2,3)*/
(PID.TID 0000.0001)                       2
(PID.TID 0000.0001)     0= f-Plane ; 1= Beta-Plane ; 2= Spherical ; 3= read from file
(PID.TID 0000.0001)     ;
(PID.TID 0000.0001) select3dCoriScheme= /* 3-D Coriolis on/off flag (=0/1) */
(PID.TID 0000.0001)                       0
(PID.TID 0000.0001)     ;
(PID.TID 0000.0001) useCoriolis =  /* Coriolis on/off flag */
(PID.TID 0000.0001)                   T
(PID.TID 0000.0001)     ;
(PID.TID 0000.0001) useCDscheme =  /* CD scheme on/off flag */
(PID.TID 0000.0001)                   F
(PID.TID 0000.0001)     ;
(PID.TID 0000.0001) selectCoriScheme= /* Scheme selector for Coriolis-Term */
(PID.TID 0000.0001)                       0
(PID.TID 0000.0001)    = 0 : original discretization (simple averaging, no hFac)
(PID.TID 0000.0001)    = 1 : Wet-point averaging (Jamar & Ozer 1986)
(PID.TID 0000.0001)    = 2 : energy conserving scheme (no hFac weight)
(PID.TID 0000.0001)    = 3 : energy conserving scheme using Wet-point averaging
(PID.TID 0000.0001)     ;
(PID.TID 0000.0001) momForcing =  /* Momentum forcing on/off flag */
(PID.TID 0000.0001)                   T
(PID.TID 0000.0001)     ;
(PID.TID 0000.0001) momTidalForcing = /* Momentum Tidal forcing on/off flag */
(PID.TID 0000.0001)                   T
(PID.TID 0000.0001)     ;
(PID.TID 0000.0001) momPressureForcing =  /* Momentum pressure term on/off flag */
(PID.TID 0000.0001)                   T
(PID.TID 0000.0001)     ;
(PID.TID 0000.0001) implicitIntGravWave= /* Implicit Internal Gravity Wave flag */
(PID.TID 0000.0001)                   F
(PID.TID 0000.0001)     ;
(PID.TID 0000.0001) staggerTimeStep =    /* Stagger time stepping on/off flag */
(PID.TID 0000.0001)                   T
(PID.TID 0000.0001)     ;
(PID.TID 0000.0001) doResetHFactors = /* reset thickness factors @ each time-step */
(PID.TID 0000.0001)                   F
(PID.TID 0000.0001)     ;
(PID.TID 0000.0001) multiDimAdvection =  /* enable/disable Multi-Dim Advection */
(PID.TID 0000.0001)                   T
(PID.TID 0000.0001)     ;
(PID.TID 0000.0001) useMultiDimAdvec =   /* Multi-Dim Advection is/is-not used */
(PID.TID 0000.0001)                   T
(PID.TID 0000.0001)     ;
(PID.TID 0000.0001) implicitDiffusion = /* Implicit Diffusion on/off flag */
(PID.TID 0000.0001)                   T
(PID.TID 0000.0001)     ;
(PID.TID 0000.0001) tempStepping =  /* Temperature equation on/off flag */
(PID.TID 0000.0001)                   T
(PID.TID 0000.0001)     ;
(PID.TID 0000.0001) tempAdvection = /* Temperature advection on/off flag */
(PID.TID 0000.0001)                   T
(PID.TID 0000.0001)     ;
(PID.TID 0000.0001) tempImplVertAdv = /* Temp. implicit vert. advection on/off */
(PID.TID 0000.0001)                   F
(PID.TID 0000.0001)     ;
(PID.TID 0000.0001) tempForcing  =  /* Temperature forcing on/off flag */
(PID.TID 0000.0001)                   T
(PID.TID 0000.0001)     ;
(PID.TID 0000.0001) doThetaClimRelax = /* apply SST relaxation on/off flag */
(PID.TID 0000.0001)                   F
(PID.TID 0000.0001)     ;
(PID.TID 0000.0001) tempIsActiveTr = /* Temp. is a dynamically Active Tracer */
(PID.TID 0000.0001)                   T
(PID.TID 0000.0001)     ;
(PID.TID 0000.0001) saltStepping =  /* Salinity equation on/off flag */
(PID.TID 0000.0001)                   T
(PID.TID 0000.0001)     ;
(PID.TID 0000.0001) saltAdvection = /* Salinity advection on/off flag */
(PID.TID 0000.0001)                   T
(PID.TID 0000.0001)     ;
(PID.TID 0000.0001) saltImplVertAdv = /* Sali. implicit vert. advection on/off */
(PID.TID 0000.0001)                   F
(PID.TID 0000.0001)     ;
(PID.TID 0000.0001) saltForcing  =  /* Salinity forcing on/off flag */
(PID.TID 0000.0001)                   T
(PID.TID 0000.0001)     ;
(PID.TID 0000.0001) doSaltClimRelax = /* apply SSS relaxation on/off flag */
(PID.TID 0000.0001)                   T
(PID.TID 0000.0001)     ;
(PID.TID 0000.0001) saltIsActiveTr = /* Salt  is a dynamically Active Tracer */
(PID.TID 0000.0001)                   T
(PID.TID 0000.0001)     ;
(PID.TID 0000.0001)  readBinaryPrec = /* Precision used for reading binary files */
(PID.TID 0000.0001)                      32
(PID.TID 0000.0001)     ;
(PID.TID 0000.0001) writeBinaryPrec = /* Precision used for writing binary files */
(PID.TID 0000.0001)                      32
(PID.TID 0000.0001)     ;
(PID.TID 0000.0001)  rwSuffixType =   /* select format of mds file suffix */
(PID.TID 0000.0001)                       0
(PID.TID 0000.0001)    = 0 : myIter (I10.10) ;   = 1 : 100*myTime (100th sec) ;
(PID.TID 0000.0001)    = 2 : myTime (seconds);   = 3 : myTime/360 (10th of hr);
(PID.TID 0000.0001)    = 4 : myTime/3600 (hours)
(PID.TID 0000.0001)     ;
(PID.TID 0000.0001)  globalFiles = /* write "global" (=not per tile) files */
(PID.TID 0000.0001)                   F
(PID.TID 0000.0001)     ;
(PID.TID 0000.0001)  useSingleCpuIO = /* only master MPI process does I/O */
(PID.TID 0000.0001)                   T
(PID.TID 0000.0001)     ;
(PID.TID 0000.0001)  useSingleCpuInput = /* only master process reads input */
(PID.TID 0000.0001)                   T
(PID.TID 0000.0001)     ;
(PID.TID 0000.0001) /* debLev[*]  : level of debug & auxiliary message printing */
(PID.TID 0000.0001) debLevZero =  0 ; /* level of disabled aux. msg printing */
(PID.TID 0000.0001)    debLevA =  1 ; /* level of minimum  aux. msg printing */
(PID.TID 0000.0001)    debLevB =  2 ; /* level of low aux. print (report read-file opening)*/
(PID.TID 0000.0001)    debLevC =  3 ; /* level of moderate debug prt (most pkgs debug msg) */
(PID.TID 0000.0001)    debLevD =  4 ; /* level of enhanced debug prt (add DEBUG_STATS prt) */
(PID.TID 0000.0001)    debLevE =  5 ; /* level of extensive debug printing */
(PID.TID 0000.0001) debugLevel =  /* select debug printing level */
(PID.TID 0000.0001)                       1
(PID.TID 0000.0001)     ;
(PID.TID 0000.0001)  plotLevel =  /* select PLOT_FIELD printing level */
(PID.TID 0000.0001)                       1
(PID.TID 0000.0001)     ;
(PID.TID 0000.0001) //
(PID.TID 0000.0001) // Elliptic solver(s) paramters ( PARM02 in namelist )
(PID.TID 0000.0001) //
(PID.TID 0000.0001) cg2dMaxIters =   /* Upper limit on 2d con. grad iterations  */
(PID.TID 0000.0001)                     500
(PID.TID 0000.0001)     ;
(PID.TID 0000.0001) cg2dMinItersNSA =   /* Minimum number of iterations of 2d con. grad solver  */
(PID.TID 0000.0001)                       0
(PID.TID 0000.0001)     ;
(PID.TID 0000.0001) cg2dUseMinResSol= /* use cg2d last-iter(=0) / min-resid.(=1) solution */
(PID.TID 0000.0001)                       0
(PID.TID 0000.0001)     ;
(PID.TID 0000.0001) cg2dTargetResidual =   /* 2d con. grad target residual  */
(PID.TID 0000.0001)                 1.000000000000000E-12
(PID.TID 0000.0001)     ;
(PID.TID 0000.0001) cg2dTargetResWunit =   /* CG2d target residual [W units] */
(PID.TID 0000.0001)                -1.000000000000000E+00
(PID.TID 0000.0001)     ;
(PID.TID 0000.0001) cg2dPreCondFreq =   /* Freq. for updating cg2d preconditioner */
(PID.TID 0000.0001)                       1
(PID.TID 0000.0001)     ;
(PID.TID 0000.0001) useSRCGSolver =  /* use single reduction CG solver(s) */
(PID.TID 0000.0001)                   F
(PID.TID 0000.0001)     ;
(PID.TID 0000.0001) useNSACGSolver =  /* use not-self-adjoint CG solver */
(PID.TID 0000.0001)                   F
(PID.TID 0000.0001)     ;
(PID.TID 0000.0001) printResidualFreq = /* Freq. for printing CG residual */
(PID.TID 0000.0001)                       0
(PID.TID 0000.0001)     ;
(PID.TID 0000.0001) //
(PID.TID 0000.0001) // Time stepping paramters ( PARM03 in namelist )
(PID.TID 0000.0001) //
(PID.TID 0000.0001) deltaTMom =   /* Momentum equation timestep ( s ) */
(PID.TID 0000.0001)                 3.600000000000000E+03
(PID.TID 0000.0001)     ;
(PID.TID 0000.0001) deltaTFreeSurf = /* FreeSurface equation timestep ( s ) */
(PID.TID 0000.0001)                 3.600000000000000E+03
(PID.TID 0000.0001)     ;
(PID.TID 0000.0001) dTtracerLev =  /* Tracer equation timestep ( s ) */
(PID.TID 0000.0001)    23 @  3.600000000000000E+03              /* K =  1: 23 */
(PID.TID 0000.0001)     ;
(PID.TID 0000.0001) deltaTClock  =   /* Model clock timestep ( s ) */
(PID.TID 0000.0001)                 3.600000000000000E+03
(PID.TID 0000.0001)     ;
(PID.TID 0000.0001) cAdjFreq =   /* Convective adjustment interval ( s ) */
(PID.TID 0000.0001)                 0.000000000000000E+00
(PID.TID 0000.0001)     ;
(PID.TID 0000.0001) momForcingOutAB = /* =1: take Momentum Forcing out of Adams-Bash. stepping */
(PID.TID 0000.0001)                       1
(PID.TID 0000.0001)     ;
(PID.TID 0000.0001) tracForcingOutAB = /* =1: take T,S,pTr Forcing out of Adams-Bash. stepping */
(PID.TID 0000.0001)                       1
(PID.TID 0000.0001)     ;
(PID.TID 0000.0001) momDissip_In_AB = /* put Dissipation Tendency in Adams-Bash. stepping */
(PID.TID 0000.0001)                   T
(PID.TID 0000.0001)     ;
(PID.TID 0000.0001) doAB_onGtGs = /* apply AB on Tendencies (rather than on T,S)*/
(PID.TID 0000.0001)                   T
(PID.TID 0000.0001)     ;
(PID.TID 0000.0001) abEps =   /* Adams-Bashforth-2 stabilizing weight */
(PID.TID 0000.0001)                 1.000000000000000E-01
(PID.TID 0000.0001)     ;
(PID.TID 0000.0001) applyExchUV_early = /* Apply EXCH to U,V earlier in time-step */
(PID.TID 0000.0001)                   F
(PID.TID 0000.0001)     ;
(PID.TID 0000.0001) pickupSuff = /* Suffix of pickup-file to restart from */
(PID.TID 0000.0001)               '0000000001'
(PID.TID 0000.0001)     ;
(PID.TID 0000.0001) pickupStrictlyMatch= /* stop if pickup do not strictly match */
(PID.TID 0000.0001)                   F
(PID.TID 0000.0001)     ;
(PID.TID 0000.0001) nIter0   =   /* Run starting timestep number */
(PID.TID 0000.0001)                       0
(PID.TID 0000.0001)     ;
(PID.TID 0000.0001) nTimeSteps = /* Number of timesteps */
(PID.TID 0000.0001)                       6
(PID.TID 0000.0001)     ;
(PID.TID 0000.0001) nEndIter =   /* Run ending timestep number */
(PID.TID 0000.0001)                       6
(PID.TID 0000.0001)     ;
(PID.TID 0000.0001) baseTime =   /* Model base time ( s ) */
(PID.TID 0000.0001)                 0.000000000000000E+00
(PID.TID 0000.0001)     ;
(PID.TID 0000.0001) startTime =  /* Run start time ( s ) */
(PID.TID 0000.0001)                 0.000000000000000E+00
(PID.TID 0000.0001)     ;
(PID.TID 0000.0001) endTime  =   /* Integration ending time ( s ) */
(PID.TID 0000.0001)                 2.160000000000000E+04
(PID.TID 0000.0001)     ;
(PID.TID 0000.0001) pChkPtFreq = /* Permanent restart/pickup file interval ( s ) */
(PID.TID 0000.0001)                 3.600000000000000E+04
(PID.TID 0000.0001)     ;
(PID.TID 0000.0001) chkPtFreq  = /* Rolling restart/pickup file interval ( s ) */
(PID.TID 0000.0001)                 0.000000000000000E+00
(PID.TID 0000.0001)     ;
(PID.TID 0000.0001) pickup_write_mdsio =   /* Model IO flag. */
(PID.TID 0000.0001)                   T
(PID.TID 0000.0001)     ;
(PID.TID 0000.0001) pickup_read_mdsio =   /* Model IO flag. */
(PID.TID 0000.0001)                   T
(PID.TID 0000.0001)     ;
(PID.TID 0000.0001) writePickupAtEnd =   /* Model IO flag. */
(PID.TID 0000.0001)                   T
(PID.TID 0000.0001)     ;
(PID.TID 0000.0001) dumpFreq =   /* Model state write out interval ( s ). */
(PID.TID 0000.0001)                 0.000000000000000E+00
(PID.TID 0000.0001)     ;
(PID.TID 0000.0001) dumpInitAndLast= /* write out Initial & Last iter. model state */
(PID.TID 0000.0001)                   T
(PID.TID 0000.0001)     ;
(PID.TID 0000.0001) snapshot_mdsio =   /* Model IO flag. */
(PID.TID 0000.0001)                   T
(PID.TID 0000.0001)     ;
(PID.TID 0000.0001) monitorFreq =   /* Monitor output interval ( s ). */
(PID.TID 0000.0001)                 1.000000000000000E+00
(PID.TID 0000.0001)     ;
(PID.TID 0000.0001) monitorSelect = /* select group of variables to monitor */
(PID.TID 0000.0001)                       3
(PID.TID 0000.0001)     ;
(PID.TID 0000.0001) monitor_stdio =   /* Model IO flag. */
(PID.TID 0000.0001)                   T
(PID.TID 0000.0001)     ;
(PID.TID 0000.0001) externForcingPeriod =   /* forcing period (s) */
(PID.TID 0000.0001)                 0.000000000000000E+00
(PID.TID 0000.0001)     ;
(PID.TID 0000.0001) externForcingCycle =   /* period of the cyle (s). */
(PID.TID 0000.0001)                 0.000000000000000E+00
(PID.TID 0000.0001)     ;
(PID.TID 0000.0001) tauThetaClimRelax =   /* relaxation time scale (s) */
(PID.TID 0000.0001)                 0.000000000000000E+00
(PID.TID 0000.0001)     ;
(PID.TID 0000.0001) tauSaltClimRelax =   /* relaxation time scale (s) */
(PID.TID 0000.0001)                 4.142330000000000E+06
(PID.TID 0000.0001)     ;
(PID.TID 0000.0001) latBandClimRelax =   /* max. Lat. where relaxation */
(PID.TID 0000.0001)                 1.800000000000000E+02
(PID.TID 0000.0001)     ;
(PID.TID 0000.0001) //
(PID.TID 0000.0001) // Gridding paramters ( PARM04 in namelist )
(PID.TID 0000.0001) //
(PID.TID 0000.0001) usingCartesianGrid = /* Cartesian coordinates flag ( True/False ) */
(PID.TID 0000.0001)                   F
(PID.TID 0000.0001)     ;
(PID.TID 0000.0001) usingCylindricalGrid = /* Cylindrical coordinates flag ( True/False ) */
(PID.TID 0000.0001)                   F
(PID.TID 0000.0001)     ;
(PID.TID 0000.0001) usingSphericalPolarGrid = /* Spherical coordinates flag ( True/False ) */
(PID.TID 0000.0001)                   T
(PID.TID 0000.0001)     ;
(PID.TID 0000.0001) usingCurvilinearGrid = /* Curvilinear coordinates flag ( True/False ) */
(PID.TID 0000.0001)                   F
(PID.TID 0000.0001)     ;
(PID.TID 0000.0001) useMin4hFacEdges = /* set hFacW,S as minimum of adjacent hFacC factor */
(PID.TID 0000.0001)                   F
(PID.TID 0000.0001)     ;
(PID.TID 0000.0001) interViscAr_pCell = /* account for partial-cell in interior vert. viscosity */
(PID.TID 0000.0001)                   F
(PID.TID 0000.0001)     ;
(PID.TID 0000.0001) interDiffKr_pCell = /* account for partial-cell in interior vert. diffusion */
(PID.TID 0000.0001)                   F
(PID.TID 0000.0001)     ;
(PID.TID 0000.0001) pCellMix_select = /* option to enhance mixing near surface & bottom */
(PID.TID 0000.0001)                       0
(PID.TID 0000.0001)     ;
(PID.TID 0000.0001) selectSigmaCoord = /* Hybrid-Sigma Vert. Coordinate option */
(PID.TID 0000.0001)                       0
(PID.TID 0000.0001)     ;
(PID.TID 0000.0001) rSigmaBnd = /* r/sigma transition ( units of r ==  m ) */
(PID.TID 0000.0001)                 1.234567000000000E+05
(PID.TID 0000.0001)     ;
(PID.TID 0000.0001) rkSign =   /* index orientation relative to vertical coordinate */
(PID.TID 0000.0001)                -1.000000000000000E+00
(PID.TID 0000.0001)     ;
(PID.TID 0000.0001) gravitySign = /* gravity orientation relative to vertical coordinate */
(PID.TID 0000.0001)                -1.000000000000000E+00
(PID.TID 0000.0001)     ;
(PID.TID 0000.0001) seaLev_Z =  /* reference height of sea-level [m] */
(PID.TID 0000.0001)                 0.000000000000000E+00
(PID.TID 0000.0001)     ;
(PID.TID 0000.0001) top_Pres =  /* reference pressure at the top [Pa] */
(PID.TID 0000.0001)                 0.000000000000000E+00
(PID.TID 0000.0001)     ;
(PID.TID 0000.0001) mass2rUnit = /* convert mass per unit area [kg/m2] to r-units [m] */
(PID.TID 0000.0001)                 9.737098344693282E-04
(PID.TID 0000.0001)     ;
(PID.TID 0000.0001) rUnit2mass = /* convert r-units [m] to mass per unit area [kg/m2] */
(PID.TID 0000.0001)                 1.027000000000000E+03
(PID.TID 0000.0001)     ;
(PID.TID 0000.0001) drC =   /* C spacing ( units of r ) */
(PID.TID 0000.0001)                 5.000000000000000E+00,      /* K =  1 */
(PID.TID 0000.0001)                 1.000000000000000E+01,      /* K =  2 */
(PID.TID 0000.0001)                 1.250000000000000E+01,      /* K =  3 */
(PID.TID 0000.0001)                 1.750000000000000E+01,      /* K =  4 */
(PID.TID 0000.0001)                 2.000000000000000E+01,      /* K =  5 */
(PID.TID 0000.0001)                 2.250000000000000E+01,      /* K =  6 */
(PID.TID 0000.0001)                 3.000000000000000E+01,      /* K =  7 */
(PID.TID 0000.0001)                 4.250000000000000E+01,      /* K =  8 */
(PID.TID 0000.0001)                 6.250000000000000E+01,      /* K =  9 */
(PID.TID 0000.0001)                 8.750000000000000E+01,      /* K = 10 */
(PID.TID 0000.0001)                 1.250000000000000E+02,      /* K = 11 */
(PID.TID 0000.0001)                 1.750000000000000E+02,      /* K = 12 */
(PID.TID 0000.0001)                 2.375000000000000E+02,      /* K = 13 */
(PID.TID 0000.0001)                 3.125000000000000E+02,      /* K = 14 */
(PID.TID 0000.0001)                 3.825000000000000E+02,      /* K = 15 */
(PID.TID 0000.0001)                 4.325000000000000E+02,      /* K = 16 */
(PID.TID 0000.0001)                 4.750000000000000E+02,      /* K = 17 */
(PID.TID 0000.0001)     6 @  5.000000000000000E+02,             /* K = 18: 23 */
(PID.TID 0000.0001)                 2.500000000000000E+02       /* K = 24 */
(PID.TID 0000.0001)     ;
(PID.TID 0000.0001) drF =   /* W spacing ( units of r ) */
(PID.TID 0000.0001)     2 @  1.000000000000000E+01,             /* K =  1:  2 */
(PID.TID 0000.0001)                 1.500000000000000E+01,      /* K =  3 */
(PID.TID 0000.0001)     2 @  2.000000000000000E+01,             /* K =  4:  5 */
(PID.TID 0000.0001)                 2.500000000000000E+01,      /* K =  6 */
(PID.TID 0000.0001)                 3.500000000000000E+01,      /* K =  7 */
(PID.TID 0000.0001)                 5.000000000000000E+01,      /* K =  8 */
(PID.TID 0000.0001)                 7.500000000000000E+01,      /* K =  9 */
(PID.TID 0000.0001)                 1.000000000000000E+02,      /* K = 10 */
(PID.TID 0000.0001)                 1.500000000000000E+02,      /* K = 11 */
(PID.TID 0000.0001)                 2.000000000000000E+02,      /* K = 12 */
(PID.TID 0000.0001)                 2.750000000000000E+02,      /* K = 13 */
(PID.TID 0000.0001)                 3.500000000000000E+02,      /* K = 14 */
(PID.TID 0000.0001)                 4.150000000000000E+02,      /* K = 15 */
(PID.TID 0000.0001)                 4.500000000000000E+02,      /* K = 16 */
(PID.TID 0000.0001)     7 @  5.000000000000000E+02              /* K = 17: 23 */
(PID.TID 0000.0001)     ;
(PID.TID 0000.0001) delX = /* U spacing ( m - cartesian, degrees - spherical ) */
(PID.TID 0000.0001)    10 @  2.000000000000000E+00              /* I =  1: 10 */
(PID.TID 0000.0001)     ;
(PID.TID 0000.0001) delY = /* V spacing ( m - cartesian, degrees - spherical ) */
(PID.TID 0000.0001)     8 @  2.000000000000000E+00              /* J =  1:  8 */
(PID.TID 0000.0001)     ;
(PID.TID 0000.0001) xgOrigin = /* X-axis origin of West  edge (cartesian: m, lat-lon: deg) */
(PID.TID 0000.0001)                 2.800000000000000E+02
(PID.TID 0000.0001)     ;
(PID.TID 0000.0001) ygOrigin = /* Y-axis origin of South edge (cartesian: m, lat-lon: deg) */
(PID.TID 0000.0001)                 4.600000000000000E+01
(PID.TID 0000.0001)     ;
(PID.TID 0000.0001) rSphere =  /* Radius ( ignored - cartesian, m - spherical ) */
(PID.TID 0000.0001)                 6.371000000000000E+06
(PID.TID 0000.0001)     ;
(PID.TID 0000.0001) deepAtmosphere = /* Deep/Shallow Atmosphere flag (True/False) */
(PID.TID 0000.0001)                   F
(PID.TID 0000.0001)     ;
(PID.TID 0000.0001) xC =  /* xC(:,1,:,1) : P-point X coord ( deg. or m if cartesian) */
(PID.TID 0000.0001)                 2.810000000000000E+02,      /* I =  1 */
(PID.TID 0000.0001)                 2.830000000000000E+02,      /* I =  2 */
(PID.TID 0000.0001)                 2.850000000000000E+02,      /* I =  3 */
(PID.TID 0000.0001)                 2.870000000000000E+02,      /* I =  4 */
(PID.TID 0000.0001)                 2.890000000000000E+02,      /* I =  5 */
(PID.TID 0000.0001)                 2.910000000000000E+02,      /* I =  6 */
(PID.TID 0000.0001)                 2.930000000000000E+02,      /* I =  7 */
(PID.TID 0000.0001)                 2.950000000000000E+02,      /* I =  8 */
(PID.TID 0000.0001)                 2.970000000000000E+02,      /* I =  9 */
(PID.TID 0000.0001)                 2.990000000000000E+02       /* I = 10 */
(PID.TID 0000.0001)     ;
(PID.TID 0000.0001) yC =  /* yC(1,:,1,:) : P-point Y coord ( deg. or m if cartesian) */
(PID.TID 0000.0001)                 4.700000000000000E+01,      /* J =  1 */
(PID.TID 0000.0001)                 4.900000000000000E+01,      /* J =  2 */
(PID.TID 0000.0001)                 5.100000000000000E+01,      /* J =  3 */
(PID.TID 0000.0001)                 5.300000000000000E+01,      /* J =  4 */
(PID.TID 0000.0001)                 5.500000000000000E+01,      /* J =  5 */
(PID.TID 0000.0001)                 5.700000000000000E+01,      /* J =  6 */
(PID.TID 0000.0001)                 5.900000000000000E+01,      /* J =  7 */
(PID.TID 0000.0001)                 6.100000000000000E+01       /* J =  8 */
(PID.TID 0000.0001)     ;
(PID.TID 0000.0001) rcoord = /* P-point R coordinate (  units of r ) */
(PID.TID 0000.0001)                -5.000000000000000E+00,      /* K =  1 */
(PID.TID 0000.0001)                -1.500000000000000E+01,      /* K =  2 */
(PID.TID 0000.0001)                -2.750000000000000E+01,      /* K =  3 */
(PID.TID 0000.0001)                -4.500000000000000E+01,      /* K =  4 */
(PID.TID 0000.0001)                -6.500000000000000E+01,      /* K =  5 */
(PID.TID 0000.0001)                -8.750000000000000E+01,      /* K =  6 */
(PID.TID 0000.0001)                -1.175000000000000E+02,      /* K =  7 */
(PID.TID 0000.0001)                -1.600000000000000E+02,      /* K =  8 */
(PID.TID 0000.0001)                -2.225000000000000E+02,      /* K =  9 */
(PID.TID 0000.0001)                -3.100000000000000E+02,      /* K = 10 */
(PID.TID 0000.0001)                -4.350000000000000E+02,      /* K = 11 */
(PID.TID 0000.0001)                -6.100000000000000E+02,      /* K = 12 */
(PID.TID 0000.0001)                -8.475000000000000E+02,      /* K = 13 */
(PID.TID 0000.0001)                -1.160000000000000E+03,      /* K = 14 */
(PID.TID 0000.0001)                -1.542500000000000E+03,      /* K = 15 */
(PID.TID 0000.0001)                -1.975000000000000E+03,      /* K = 16 */
(PID.TID 0000.0001)                -2.450000000000000E+03,      /* K = 17 */
(PID.TID 0000.0001)                -2.950000000000000E+03,      /* K = 18 */
(PID.TID 0000.0001)                -3.450000000000000E+03,      /* K = 19 */
(PID.TID 0000.0001)                -3.950000000000000E+03,      /* K = 20 */
(PID.TID 0000.0001)                -4.450000000000000E+03,      /* K = 21 */
(PID.TID 0000.0001)                -4.950000000000000E+03,      /* K = 22 */
(PID.TID 0000.0001)                -5.450000000000000E+03       /* K = 23 */
(PID.TID 0000.0001)     ;
(PID.TID 0000.0001) rF =   /* W-Interf. R coordinate (  units of r ) */
(PID.TID 0000.0001)                 0.000000000000000E+00,      /* K =  1 */
(PID.TID 0000.0001)                -1.000000000000000E+01,      /* K =  2 */
(PID.TID 0000.0001)                -2.000000000000000E+01,      /* K =  3 */
(PID.TID 0000.0001)                -3.500000000000000E+01,      /* K =  4 */
(PID.TID 0000.0001)                -5.500000000000000E+01,      /* K =  5 */
(PID.TID 0000.0001)                -7.500000000000000E+01,      /* K =  6 */
(PID.TID 0000.0001)                -1.000000000000000E+02,      /* K =  7 */
(PID.TID 0000.0001)                -1.350000000000000E+02,      /* K =  8 */
(PID.TID 0000.0001)                -1.850000000000000E+02,      /* K =  9 */
(PID.TID 0000.0001)                -2.600000000000000E+02,      /* K = 10 */
(PID.TID 0000.0001)                -3.600000000000000E+02,      /* K = 11 */
(PID.TID 0000.0001)                -5.100000000000000E+02,      /* K = 12 */
(PID.TID 0000.0001)                -7.100000000000000E+02,      /* K = 13 */
(PID.TID 0000.0001)                -9.850000000000000E+02,      /* K = 14 */
(PID.TID 0000.0001)                -1.335000000000000E+03,      /* K = 15 */
(PID.TID 0000.0001)                -1.750000000000000E+03,      /* K = 16 */
(PID.TID 0000.0001)                -2.200000000000000E+03,      /* K = 17 */
(PID.TID 0000.0001)                -2.700000000000000E+03,      /* K = 18 */
(PID.TID 0000.0001)                -3.200000000000000E+03,      /* K = 19 */
(PID.TID 0000.0001)                -3.700000000000000E+03,      /* K = 20 */
(PID.TID 0000.0001)                -4.200000000000000E+03,      /* K = 21 */
(PID.TID 0000.0001)                -4.700000000000000E+03,      /* K = 22 */
(PID.TID 0000.0001)                -5.200000000000000E+03,      /* K = 23 */
(PID.TID 0000.0001)                -5.700000000000000E+03       /* K = 24 */
(PID.TID 0000.0001)     ;
(PID.TID 0000.0001) deepFacC = /* deep-model grid factor @ cell-Center (-) */
(PID.TID 0000.0001)    23 @  1.000000000000000E+00              /* K =  1: 23 */
(PID.TID 0000.0001)     ;
(PID.TID 0000.0001) deepFacF = /* deep-model grid factor @ W-Interface (-) */
(PID.TID 0000.0001)    24 @  1.000000000000000E+00              /* K =  1: 24 */
(PID.TID 0000.0001)     ;
(PID.TID 0000.0001) rotateGrid = /* use rotated grid ( True/False ) */
(PID.TID 0000.0001)                   F
(PID.TID 0000.0001)     ;
(PID.TID 0000.0001) phiEuler = /* Euler angle, rotation about original z-coordinate [rad] */
(PID.TID 0000.0001)                 0.000000000000000E+00
(PID.TID 0000.0001)     ;
(PID.TID 0000.0001) thetaEuler = /* Euler angle, rotation about new x-coordinate [rad] */
(PID.TID 0000.0001)                 0.000000000000000E+00
(PID.TID 0000.0001)     ;
(PID.TID 0000.0001) psiEuler = /* Euler angle, rotation about new z-coordinate [rad] */
(PID.TID 0000.0001)                 0.000000000000000E+00
(PID.TID 0000.0001)     ;
(PID.TID 0000.0001) dxF =  /* dxF(:,1,:,1) ( units: m ) */
(PID.TID 0000.0001)    10 @  1.516695152377178E+05              /* I =  1: 10 */
(PID.TID 0000.0001)     ;
(PID.TID 0000.0001) dxF =  /* dxF(1,:,1,:) ( units: m ) */
(PID.TID 0000.0001)                 1.516695152377178E+05,      /* J =  1 */
(PID.TID 0000.0001)                 1.459008712061998E+05,      /* J =  2 */
(PID.TID 0000.0001)                 1.399544694374234E+05,      /* J =  3 */
(PID.TID 0000.0001)                 1.338375547059708E+05,      /* J =  4 */
(PID.TID 0000.0001)                 1.275575795302039E+05,      /* J =  5 */
(PID.TID 0000.0001)                 1.211221950925184E+05,      /* J =  6 */
(PID.TID 0000.0001)                 1.145392419175564E+05,      /* J =  7 */
(PID.TID 0000.0001)                 1.078167403197357E+05       /* J =  8 */
(PID.TID 0000.0001)     ;
(PID.TID 0000.0001) dyF =  /* dyF(:,1,:,1) ( units: m ) */
(PID.TID 0000.0001)    10 @  2.223898532891175E+05              /* I =  1: 10 */
(PID.TID 0000.0001)     ;
(PID.TID 0000.0001) dyF =  /* dyF(1,:,1,:) ( units: m ) */
(PID.TID 0000.0001)     8 @  2.223898532891175E+05              /* J =  1:  8 */
(PID.TID 0000.0001)     ;
(PID.TID 0000.0001) dxG =  /* dxG(:,1,:,1) ( units: m ) */
(PID.TID 0000.0001)    10 @  1.544849730924338E+05              /* I =  1: 10 */
(PID.TID 0000.0001)     ;
(PID.TID 0000.0001) dxG =  /* dxG(1,:,1,:) ( units: m ) */
(PID.TID 0000.0001)                 1.544849730924338E+05,      /* J =  1 */
(PID.TID 0000.0001)                 1.488078573794047E+05,      /* J =  2 */
(PID.TID 0000.0001)                 1.429494422142520E+05,      /* J =  3 */
(PID.TID 0000.0001)                 1.369168651734348E+05,      /* J =  4 */
(PID.TID 0000.0001)                 1.307174760228300E+05,      /* J =  5 */
(PID.TID 0000.0001)                 1.243588277631750E+05,      /* J =  6 */
(PID.TID 0000.0001)                 1.178486674278995E+05,      /* J =  7 */
(PID.TID 0000.0001)                 1.111949266445588E+05       /* J =  8 */
(PID.TID 0000.0001)     ;
(PID.TID 0000.0001) dyG =  /* dyG(:,1,:,1) ( units: m ) */
(PID.TID 0000.0001)    10 @  2.223898532891175E+05              /* I =  1: 10 */
(PID.TID 0000.0001)     ;
(PID.TID 0000.0001) dyG =  /* dyG(1,:,1,:) ( units: m ) */
(PID.TID 0000.0001)     8 @  2.223898532891175E+05              /* J =  1:  8 */
(PID.TID 0000.0001)     ;
(PID.TID 0000.0001) dxC =  /* dxC(:,1,:,1) ( units: m ) */
(PID.TID 0000.0001)    10 @  1.516695152377178E+05              /* I =  1: 10 */
(PID.TID 0000.0001)     ;
(PID.TID 0000.0001) dxC =  /* dxC(1,:,1,:) ( units: m ) */
(PID.TID 0000.0001)                 1.516695152377178E+05,      /* J =  1 */
(PID.TID 0000.0001)                 1.459008712061998E+05,      /* J =  2 */
(PID.TID 0000.0001)                 1.399544694374234E+05,      /* J =  3 */
(PID.TID 0000.0001)                 1.338375547059708E+05,      /* J =  4 */
(PID.TID 0000.0001)                 1.275575795302039E+05,      /* J =  5 */
(PID.TID 0000.0001)                 1.211221950925184E+05,      /* J =  6 */
(PID.TID 0000.0001)                 1.145392419175564E+05,      /* J =  7 */
(PID.TID 0000.0001)                 1.078167403197357E+05       /* J =  8 */
(PID.TID 0000.0001)     ;
(PID.TID 0000.0001) dyC =  /* dyC(:,1,:,1) ( units: m ) */
(PID.TID 0000.0001)    10 @  2.223898532891175E+05              /* I =  1: 10 */
(PID.TID 0000.0001)     ;
(PID.TID 0000.0001) dyC =  /* dyC(1,:,1,:) ( units: m ) */
(PID.TID 0000.0001)     8 @  2.223898532891175E+05              /* J =  1:  8 */
(PID.TID 0000.0001)     ;
(PID.TID 0000.0001) dxV =  /* dxV(:,1,:,1) ( units: m ) */
(PID.TID 0000.0001)    10 @  1.544849730924338E+05              /* I =  1: 10 */
(PID.TID 0000.0001)     ;
(PID.TID 0000.0001) dxV =  /* dxV(1,:,1,:) ( units: m ) */
(PID.TID 0000.0001)                 1.544849730924338E+05,      /* J =  1 */
(PID.TID 0000.0001)                 1.488078573794047E+05,      /* J =  2 */
(PID.TID 0000.0001)                 1.429494422142520E+05,      /* J =  3 */
(PID.TID 0000.0001)                 1.369168651734348E+05,      /* J =  4 */
(PID.TID 0000.0001)                 1.307174760228300E+05,      /* J =  5 */
(PID.TID 0000.0001)                 1.243588277631750E+05,      /* J =  6 */
(PID.TID 0000.0001)                 1.178486674278995E+05,      /* J =  7 */
(PID.TID 0000.0001)                 1.111949266445588E+05       /* J =  8 */
(PID.TID 0000.0001)     ;
(PID.TID 0000.0001) dyU =  /* dyU(:,1,:,1) ( units: m ) */
(PID.TID 0000.0001)    10 @  2.223898532891175E+05              /* I =  1: 10 */
(PID.TID 0000.0001)     ;
(PID.TID 0000.0001) dyU =  /* dyU(1,:,1,:) ( units: m ) */
(PID.TID 0000.0001)     8 @  2.223898532891175E+05              /* J =  1:  8 */
(PID.TID 0000.0001)     ;
(PID.TID 0000.0001) rA  =  /* rA (:,1,:,1) ( units: m^2 ) */
(PID.TID 0000.0001)    10 @  3.372804882275630E+10              /* I =  1: 10 */
(PID.TID 0000.0001)     ;
(PID.TID 0000.0001) rA  =  /* rA (1,:,1,:) ( units: m^2 ) */
(PID.TID 0000.0001)                 3.372804882275630E+10,      /* J =  1 */
(PID.TID 0000.0001)                 3.244522605358471E+10,      /* J =  2 */
(PID.TID 0000.0001)                 3.112287377427108E+10,      /* J =  3 */
(PID.TID 0000.0001)                 2.976260306737437E+10,      /* J =  4 */
(PID.TID 0000.0001)                 2.836607121321784E+10,      /* J =  5 */
(PID.TID 0000.0001)                 2.693497967074614E+10,      /* J =  6 */
(PID.TID 0000.0001)                 2.547107200456132E+10,      /* J =  7 */
(PID.TID 0000.0001)                 2.397613176065682E+10       /* J =  8 */
(PID.TID 0000.0001)     ;
(PID.TID 0000.0001) rAw =  /* rAw(:,1,:,1) ( units: m^2 ) */
(PID.TID 0000.0001)    10 @  3.372804882275630E+10              /* I =  1: 10 */
(PID.TID 0000.0001)     ;
(PID.TID 0000.0001) rAw =  /* rAw(1,:,1,:) ( units: m^2 ) */
(PID.TID 0000.0001)                 3.372804882275630E+10,      /* J =  1 */
(PID.TID 0000.0001)                 3.244522605358471E+10,      /* J =  2 */
(PID.TID 0000.0001)                 3.112287377427108E+10,      /* J =  3 */
(PID.TID 0000.0001)                 2.976260306737437E+10,      /* J =  4 */
(PID.TID 0000.0001)                 2.836607121321784E+10,      /* J =  5 */
(PID.TID 0000.0001)                 2.693497967074614E+10,      /* J =  6 */
(PID.TID 0000.0001)                 2.547107200456132E+10,      /* J =  7 */
(PID.TID 0000.0001)                 2.397613176065682E+10       /* J =  8 */
(PID.TID 0000.0001)     ;
(PID.TID 0000.0001) rAs =  /* rAs(:,1,:,1) ( units: m^2 ) */
(PID.TID 0000.0001)    10 @  3.435414629417918E+10              /* I =  1: 10 */
(PID.TID 0000.0001)     ;
(PID.TID 0000.0001) rAs =  /* rAs(1,:,1,:) ( units: m^2 ) */
(PID.TID 0000.0001)                 3.435414629417918E+10,      /* J =  1 */
(PID.TID 0000.0001)                 3.309167746093097E+10,      /* J =  2 */
(PID.TID 0000.0001)                 3.178889151607872E+10,      /* J =  3 */
(PID.TID 0000.0001)                 3.044737570361747E+10,      /* J =  4 */
(PID.TID 0000.0001)                 2.906876445392020E+10,      /* J =  5 */
(PID.TID 0000.0001)                 2.765473739243563E+10,      /* J =  6 */
(PID.TID 0000.0001)                 2.620701729332415E+10,      /* J =  7 */
(PID.TID 0000.0001)                 2.472736798052209E+10       /* J =  8 */
(PID.TID 0000.0001)     ;
(PID.TID 0000.0001) globalArea = /* Integrated horizontal Area (m^2) */
(PID.TID 0000.0001)                 1.218932156708734E+12
(PID.TID 0000.0001)     ;
(PID.TID 0000.0001) // =======================================================
(PID.TID 0000.0001) // End of Model config. summary
(PID.TID 0000.0001) // =======================================================
(PID.TID 0000.0001) 
(PID.TID 0000.0001) == Packages configuration : Check & print summary ==
(PID.TID 0000.0001) 
(PID.TID 0000.0001) OBCS_CHECK: #define ALLOW_OBCS
(PID.TID 0000.0001) // =======================================================
(PID.TID 0000.0001) // OBCS_CHECK: OBCS configuration summary
(PID.TID 0000.0001) // =======================================================
(PID.TID 0000.0001) 
(PID.TID 0000.0001) useOBCSprescribe = /* prescribe OB values */
(PID.TID 0000.0001)                   T
(PID.TID 0000.0001)     ;
(PID.TID 0000.0001) useOBCSbalance = /* balance the flow through OB */
(PID.TID 0000.0001)                   F
(PID.TID 0000.0001)     ;
(PID.TID 0000.0001) OBCSfixTopo =  /* mod. topo to have zero gradient across boundaries. */
(PID.TID 0000.0001)                   T
(PID.TID 0000.0001)     ;
(PID.TID 0000.0001) OBCS_uvApplyFac = /* Factor to apply to U,V 2nd column/row */
(PID.TID 0000.0001)                 1.000000000000000E+00
(PID.TID 0000.0001)     ;
(PID.TID 0000.0001) OBCS_u1_adv_T = /* Temp uses upwind adv-scheme @ OB */
(PID.TID 0000.0001)                       0
(PID.TID 0000.0001)     ;
(PID.TID 0000.0001) OBCS_u1_adv_S = /* Salt uses upwind adv-scheme @ OB */
(PID.TID 0000.0001)                       0
(PID.TID 0000.0001)     ;
(PID.TID 0000.0001) OBCS_monitorFreq = /* monitor output frequency [s] */
(PID.TID 0000.0001)                 1.000000000000000E+00
(PID.TID 0000.0001)     ;
(PID.TID 0000.0001) OBCS_monSelect = /* select group of variables to monitor */
(PID.TID 0000.0001)                       0
(PID.TID 0000.0001)     ;
(PID.TID 0000.0001) OBCSprintDiags =  /* print some OBCS diagnostics. */
(PID.TID 0000.0001)                   F
(PID.TID 0000.0001)     ;
(PID.TID 0000.0001) useOBCStides = /* apply tidal forcing through OB */
(PID.TID 0000.0001)                   F
(PID.TID 0000.0001)     ;
(PID.TID 0000.0001) tidalPeriod = /* (s) */
(PID.TID 0000.0001)    10 @  0.000000000000000E+00              /* I =  1: 10 */
(PID.TID 0000.0001)     ;
(PID.TID 0000.0001) useOrlanskiNorth =  /* use Orlanski for northern bound. */
(PID.TID 0000.0001)                   F
(PID.TID 0000.0001)     ;
(PID.TID 0000.0001) useOrlanskiSouth =  /* use Orlanski for southern bound. */
(PID.TID 0000.0001)                   F
(PID.TID 0000.0001)     ;
(PID.TID 0000.0001) useOrlanskiEast  =  /* use Orlanski for eastern bound. */
(PID.TID 0000.0001)                   F
(PID.TID 0000.0001)     ;
(PID.TID 0000.0001) useOrlanskiWest  =  /* use Orlanski for western bound. */
(PID.TID 0000.0001)                   F
(PID.TID 0000.0001)     ;
(PID.TID 0000.0001) useStevensNorth =  /* use Stevens for northern bound. */
(PID.TID 0000.0001)                   F
(PID.TID 0000.0001)     ;
(PID.TID 0000.0001) useStevensSouth =  /* use Stevens for southern bound. */
(PID.TID 0000.0001)                   F
(PID.TID 0000.0001)     ;
(PID.TID 0000.0001) useStevensEast  =  /* use Stevens for eastern bound. */
(PID.TID 0000.0001)                   F
(PID.TID 0000.0001)     ;
(PID.TID 0000.0001) useStevensWest  =  /* use Stevens for western bound. */
(PID.TID 0000.0001)                   F
(PID.TID 0000.0001)     ;
(PID.TID 0000.0001) useStevensPhaseVel  =  /* include phase vel. term. */
(PID.TID 0000.0001)                   T
(PID.TID 0000.0001)     ;
(PID.TID 0000.0001) useStevensAdvection  =  /* include advection term. */
(PID.TID 0000.0001)                   T
(PID.TID 0000.0001)     ;
(PID.TID 0000.0001) TrelaxStevens = /* relaxation time scale for theta ( s ). */
(PID.TID 0000.0001)                 0.000000000000000E+00
(PID.TID 0000.0001)     ;
(PID.TID 0000.0001) SrelaxStevens = /* relaxation time scale for salinity ( s ). */
(PID.TID 0000.0001)                 0.000000000000000E+00
(PID.TID 0000.0001)     ;
(PID.TID 0000.0001) useOBCSSponge =  /* use sponge along boundaries */
(PID.TID 0000.0001)                   F
(PID.TID 0000.0001)     ;
(PID.TID 0000.0001) useSeaiceSponge =  /* use sponge for sea ice variables */
(PID.TID 0000.0001)                   F
(PID.TID 0000.0001)     ;
(PID.TID 0000.0001) useSeaiceNeumann =  /* use Neumann conditions for sea ice variables */
(PID.TID 0000.0001)                   T
(PID.TID 0000.0001)     ;
(PID.TID 0000.0001) OB_indexNone = /* null value for OB index (i.e. no OB) */
(PID.TID 0000.0001)                     -99
(PID.TID 0000.0001)     ;
(PID.TID 0000.0001) ======== Tile bi=   1 , bj=   1 ========
(PID.TID 0000.0001)  OB_Jn = /* Northern OB local indices */
(PID.TID 0000.0001)    13 @        8                            /* I = -3:  9 */
(PID.TID 0000.0001)  OB_Js = /* Southern OB local indices */
(PID.TID 0000.0001)    13 @        1                            /* I = -3:  9 */
(PID.TID 0000.0001)  OB_Ie = /* Eastern OB local indices */
(PID.TID 0000.0001)    16 @      -99                            /* J = -3: 12 */
(PID.TID 0000.0001)  OB_Iw = /* Western OB local indices */
(PID.TID 0000.0001)    16 @        1                            /* J = -3: 12 */
(PID.TID 0000.0001) ======== Tile bi=   2 , bj=   1 ========
(PID.TID 0000.0001)  OB_Jn = /* Northern OB local indices */
(PID.TID 0000.0001)    13 @        8                            /* I = -3:  9 */
(PID.TID 0000.0001)  OB_Js = /* Southern OB local indices */
(PID.TID 0000.0001)    13 @        1                            /* I = -3:  9 */
(PID.TID 0000.0001)  OB_Ie = /* Eastern OB local indices */
(PID.TID 0000.0001)    16 @        5                            /* J = -3: 12 */
(PID.TID 0000.0001)  OB_Iw = /* Western OB local indices */
(PID.TID 0000.0001)    16 @      -99                            /* J = -3: 12 */
(PID.TID 0000.0001) // =======================================================
(PID.TID 0000.0001) // End of OBCS config. summary
(PID.TID 0000.0001) // =======================================================
(PID.TID 0000.0001) 
(PID.TID 0000.0001) OBCS_CHECK: set-up OK
(PID.TID 0000.0001) OBCS_CHECK: check Inside Mask and OB locations: OK
(PID.TID 0000.0001) KPP_CHECK: #define ALLOW_KPP
(PID.TID 0000.0001)  kpp_freq = /* frequency of KPP calculation */
(PID.TID 0000.0001)                 3.600000000000000E+03
(PID.TID 0000.0001)     ;
(PID.TID 0000.0001) KPP_ghatUseTotalDiffus= /* non-local term fct of total diffus */
(PID.TID 0000.0001)                   T
(PID.TID 0000.0001)     ;
(PID.TID 0000.0001) KPPuseDoubleDiff = /* include double diffusive contrib */
(PID.TID 0000.0001)                   F
(PID.TID 0000.0001)     ;
(PID.TID 0000.0001) LimitHblStable = /* limits depth of hbl if stable cond.*/
(PID.TID 0000.0001)                   T
(PID.TID 0000.0001)     ;
(PID.TID 0000.0001)  minKPPhbl = /* minimum KPPhbl value [m] */
(PID.TID 0000.0001)                 5.000000000000000E+00
(PID.TID 0000.0001)     ;
(PID.TID 0000.0001)  epsln     = /* constant [-] */
(PID.TID 0000.0001)                 9.999999999999999E-21
(PID.TID 0000.0001)     ;
(PID.TID 0000.0001)  phepsi    = /* constant [-] */
(PID.TID 0000.0001)                 1.000000000000000E-10
(PID.TID 0000.0001)     ;
(PID.TID 0000.0001)  epsilon   = /* constant [-] */
(PID.TID 0000.0001)                 1.000000000000000E-01
(PID.TID 0000.0001)     ;
(PID.TID 0000.0001)  vonk      = /* Von Karmans constant [-] */
(PID.TID 0000.0001)                 4.000000000000000E-01
(PID.TID 0000.0001)     ;
(PID.TID 0000.0001)  dB_dz     = /* maximum N^2 in mixed layer [s^-2] */
(PID.TID 0000.0001)                 5.200000000000000E-05
(PID.TID 0000.0001)     ;
(PID.TID 0000.0001)  conc1     = /* scalar constant [-] */
(PID.TID 0000.0001)                 5.000000000000000E+00
(PID.TID 0000.0001)     ;
(PID.TID 0000.0001)  conam     = /* scalar constant [-] */
(PID.TID 0000.0001)                 1.257000000000000E+00
(PID.TID 0000.0001)     ;
(PID.TID 0000.0001)  concm     = /* scalar constant [-] */
(PID.TID 0000.0001)                 8.380000000000001E+00
(PID.TID 0000.0001)     ;
(PID.TID 0000.0001)  conc2     = /* scalar constant [-] */
(PID.TID 0000.0001)                 1.600000000000000E+01
(PID.TID 0000.0001)     ;
(PID.TID 0000.0001)  conas     = /* scalar constant [-] */
(PID.TID 0000.0001)                -2.886000000000000E+01
(PID.TID 0000.0001)     ;
(PID.TID 0000.0001)  concs     = /* scalar constant [-] */
(PID.TID 0000.0001)                 9.895999999999999E+01
(PID.TID 0000.0001)     ;
(PID.TID 0000.0001)  conc3     = /* scalar constant [-] */
(PID.TID 0000.0001)                 1.600000000000000E+01
(PID.TID 0000.0001)     ;
(PID.TID 0000.0001)  zetam     = /* scalar constant [-] */
(PID.TID 0000.0001)                -2.000000000000000E-01
(PID.TID 0000.0001)     ;
(PID.TID 0000.0001)  zetas     = /* scalar constant [-] */
(PID.TID 0000.0001)                -1.000000000000000E+00
(PID.TID 0000.0001)     ;
(PID.TID 0000.0001)  Ricr      = /* critical bulk Richardson Number [-] */
(PID.TID 0000.0001)                 3.000000000000000E-01
(PID.TID 0000.0001)     ;
(PID.TID 0000.0001)  cekman    = /* coeff for Ekman depth [-] */
(PID.TID 0000.0001)                 7.000000000000000E-01
(PID.TID 0000.0001)     ;
(PID.TID 0000.0001)  cmonob    = /* coeff for Monin-Obukhov depth [-] */
(PID.TID 0000.0001)                 1.000000000000000E+00
(PID.TID 0000.0001)     ;
(PID.TID 0000.0001)  concv     = /* buoyancy freq ratio [-] */
(PID.TID 0000.0001)                 1.800000000000000E+00
(PID.TID 0000.0001)     ;
(PID.TID 0000.0001)  hbf       = /* solar radiation depth ratio [-] */
(PID.TID 0000.0001)                 1.000000000000000E+00
(PID.TID 0000.0001)     ;
(PID.TID 0000.0001)  zmin      = /* minimum for zehat in table [m3/s3] */
(PID.TID 0000.0001)                -4.000000000000000E-07
(PID.TID 0000.0001)     ;
(PID.TID 0000.0001)  zmax      = /* maximum for zehat in table [m3/s3] */
(PID.TID 0000.0001)                 0.000000000000000E+00
(PID.TID 0000.0001)     ;
(PID.TID 0000.0001)  umin      = /* minimum for ustar in table [m/s] */
(PID.TID 0000.0001)                 0.000000000000000E+00
(PID.TID 0000.0001)     ;
(PID.TID 0000.0001)  umax      = /* maximum for ustar in table [m/s] */
(PID.TID 0000.0001)                 4.000000000000000E-02
(PID.TID 0000.0001)     ;
(PID.TID 0000.0001) num_v_smooth_Ri = /* number of vertical smoothing */
(PID.TID 0000.0001)                       0
(PID.TID 0000.0001)     ;
(PID.TID 0000.0001)  Riinfty   = /* shear instability Ri number limit [-] */
(PID.TID 0000.0001)                 7.000000000000000E-01
(PID.TID 0000.0001)     ;
(PID.TID 0000.0001)  BVSQcon   = /* Brunt-Vaisala squared (=N^2) [s^-2] */
(PID.TID 0000.0001)                -2.000000000000000E-05
(PID.TID 0000.0001)     ;
(PID.TID 0000.0001)  difm0     = /* max viscosity from shear instab. [m2/s] */
(PID.TID 0000.0001)                 5.000000000000000E-03
(PID.TID 0000.0001)     ;
(PID.TID 0000.0001)  difs0     = /* max diffusiv. from shear instab. [m2/s] */
(PID.TID 0000.0001)                 5.000000000000000E-03
(PID.TID 0000.0001)     ;
(PID.TID 0000.0001)  dift0     = /* max diffusiv. from shear instab. [m2/s] */
(PID.TID 0000.0001)                 5.000000000000000E-03
(PID.TID 0000.0001)     ;
(PID.TID 0000.0001)  difmcon   = /* convective viscosity [m2/s] */
(PID.TID 0000.0001)                 1.000000000000000E-01
(PID.TID 0000.0001)     ;
(PID.TID 0000.0001)  difscon   = /* convective diffusiv. [m2/s] */
(PID.TID 0000.0001)                 1.000000000000000E-01
(PID.TID 0000.0001)     ;
(PID.TID 0000.0001)  diftcon   = /* convective diffusiv. [m2/s] */
(PID.TID 0000.0001)                 1.000000000000000E-01
(PID.TID 0000.0001)     ;
(PID.TID 0000.0001)  Rrho0     = /* double diffusion density ratio [-] */
(PID.TID 0000.0001)                 1.900000000000000E+00
(PID.TID 0000.0001)     ;
(PID.TID 0000.0001)  dsfmax    = /* max diffusiv. for salt fingering [m2/s] */
(PID.TID 0000.0001)                 1.000000000000000E-02
(PID.TID 0000.0001)     ;
(PID.TID 0000.0001)  cstar     = /* coeff for non-locak transport [-] */
(PID.TID 0000.0001)                 1.000000000000000E+01
(PID.TID 0000.0001)     ;
(PID.TID 0000.0001) KPPwriteState = /* write KPP fields to file */
(PID.TID 0000.0001)                   T
(PID.TID 0000.0001)     ;
(PID.TID 0000.0001)  kpp_dumpFreq = /* dump freq of KPP output */
(PID.TID 0000.0001)                 0.000000000000000E+00
(PID.TID 0000.0001)     ;
(PID.TID 0000.0001)  kpp_taveFreq = /* time-averaging freq of KPP output */
(PID.TID 0000.0001)                 0.000000000000000E+00
(PID.TID 0000.0001)     ;
(PID.TID 0000.0001) 
(PID.TID 0000.0001) GMREDI_CHECK: #define GMREDI
(PID.TID 0000.0001) GM_AdvForm =     /* if FALSE => use SkewFlux Form */
(PID.TID 0000.0001)                   T
(PID.TID 0000.0001)     ;
(PID.TID 0000.0001) GM_InMomAsStress = /* if TRUE => apply as Eddy Stress */
(PID.TID 0000.0001)                   F
(PID.TID 0000.0001)     ;
(PID.TID 0000.0001) GM_AdvSeparate = /* Calc Bolus & Euler Adv. separately */
(PID.TID 0000.0001)                   F
(PID.TID 0000.0001)     ;
(PID.TID 0000.0001) GM_ExtraDiag =   /* Tensor Extra Diag (line 1&2) non 0 */
(PID.TID 0000.0001)                   T
(PID.TID 0000.0001)     ;
(PID.TID 0000.0001) GM_isopycK =    /* Background Isopyc. Diffusivity [m^2/s] */
(PID.TID 0000.0001)                 5.710000000000000E+02
(PID.TID 0000.0001)     ;
(PID.TID 0000.0001) GM_advec*K =    /* Backg. GM-Advec(=Bolus) Diffusivity [m^2/s] */
(PID.TID 0000.0001)                 5.710000000000000E+02
(PID.TID 0000.0001)     ;
(PID.TID 0000.0001) GM_skewflx*K =  /* Background GM_SkewFlx Diffusivity [m^2/s] */
(PID.TID 0000.0001)                 0.000000000000000E+00
(PID.TID 0000.0001)     ;
(PID.TID 0000.0001) GM_isoFac_calcK = /* Fraction of dynamic K added to Redi tensor */
(PID.TID 0000.0001)                 1.000000000000000E+00
(PID.TID 0000.0001)     ;
(PID.TID 0000.0001) GM_Kmin_horiz = /* Minimum Horizontal Diffusivity [m^2/s] */
(PID.TID 0000.0001)                 5.000000000000000E+01
(PID.TID 0000.0001)     ;
(PID.TID 0000.0001) GM_Visbeck_alpha = /* Visbeck alpha coeff. [-] */
(PID.TID 0000.0001)                 0.000000000000000E+00
(PID.TID 0000.0001)     ;
(PID.TID 0000.0001) GM_Small_Number =  /* epsilon used in slope calc */
(PID.TID 0000.0001)                 1.000000000000000E-12
(PID.TID 0000.0001)     ;
(PID.TID 0000.0001) GM_slopeSqCutoff = /* Slope^2 cut-off value */
(PID.TID 0000.0001)                 1.000000000000000E+08
(PID.TID 0000.0001)     ;
(PID.TID 0000.0001) GM_taper_scheme =  /* Type of Tapering/Clipping scheme */
(PID.TID 0000.0001)               'ldd97                                   '
(PID.TID 0000.0001)     ;
(PID.TID 0000.0001) GM_maxSlope =  /* Maximum Slope (Tapering/Clipping) */
(PID.TID 0000.0001)                 1.000000000000000E-02
(PID.TID 0000.0001)     ;
(PID.TID 0000.0001) GM_facTrL2dz = /* Minimum Trans.Layer Thick. (factor of dz) */
(PID.TID 0000.0001)                 1.000000000000000E+00
(PID.TID 0000.0001)     ;
(PID.TID 0000.0001) GM_facTrL2ML = /* Max.Trans.Layer Thick. (factor of MxL Depth)*/
(PID.TID 0000.0001)                 5.000000000000000E+00
(PID.TID 0000.0001)     ;
(PID.TID 0000.0001) GM_maxTransLay = /* Maximum Transition Layer Thickness [m] */
(PID.TID 0000.0001)                 5.000000000000000E+02
(PID.TID 0000.0001)     ;
(PID.TID 0000.0001) GM_UseBVP = /* if TRUE => use bvp a la Ferrari et al. (2010) */
(PID.TID 0000.0001)                   F
(PID.TID 0000.0001)     ;
(PID.TID 0000.0001) GM_BVP_ModeNumber = /* Vertical mode number for BVP wave speed */
(PID.TID 0000.0001)                       1
(PID.TID 0000.0001)     ;
(PID.TID 0000.0001) GM_BVP_cMin = /* Minimum wave speed for BVP [m/s] */
(PID.TID 0000.0001)                 1.000000000000000E-01
(PID.TID 0000.0001)     ;
(PID.TID 0000.0001) GM_useSubMeso = /* if TRUE => use Sub-Meso param. (B.Fox-Kemper) */
(PID.TID 0000.0001)                   F
(PID.TID 0000.0001)     ;
(PID.TID 0000.0001) subMeso_Ceff = /* efficiency coeff. of Mixed-Layer Eddies [-] */
(PID.TID 0000.0001)                 7.000000000000001E-02
(PID.TID 0000.0001)     ;
(PID.TID 0000.0001) subMeso_invTau = /* inverse of Sub-Meso mixing time-scale [/s] */
(PID.TID 0000.0001)                 2.000000000000000E-06
(PID.TID 0000.0001)     ;
(PID.TID 0000.0001) subMeso_LfMin = /* minimum length-scale "Lf" [m] */
(PID.TID 0000.0001)                 1.000000000000000E+03
(PID.TID 0000.0001)     ;
(PID.TID 0000.0001) subMeso_Lmax = /* maximum grid-scale length [m] */
(PID.TID 0000.0001)                 1.100000000000000E+05
(PID.TID 0000.0001)     ;
(PID.TID 0000.0001) GM_useLeithQG = /* if TRUE => add QG Leith viscosity to GMRedi tensor */
(PID.TID 0000.0001)                   F
(PID.TID 0000.0001)     ;
(PID.TID 0000.0001) GM_useGEOM = /* using GEOMETRIC */
(PID.TID 0000.0001)                   F
(PID.TID 0000.0001)     ;
(PID.TID 0000.0001) EXF_CHECK: #define ALLOW_EXF
(PID.TID 0000.0001) SEAICE_CHECK: #define ALLOW_SEAICE
(PID.TID 0000.0001) SALT_PLUME_CHECK: #define SALT_PLUME
(PID.TID 0000.0001) CTRL_CHECK:  --> Starts to check CTRL set-up
(PID.TID 0000.0001) CTRL_CHECK:  <-- Ends Normally
(PID.TID 0000.0001) 
(PID.TID 0000.0001) COST_CHECK: #define ALLOW_COST
(PID.TID 0000.0001) GRDCHK_CHECK: grdchk package
(PID.TID 0000.0001) 
(PID.TID 0000.0001) // =======================================================
(PID.TID 0000.0001) // Gradient check configuration  >>> START <<<
(PID.TID 0000.0001) // =======================================================
(PID.TID 0000.0001) 
(PID.TID 0000.0001)   grdchkvarindex :                      6
(PID.TID 0000.0001)   matching CTRL xx_file:       "xx_atemp"
(PID.TID 0000.0001)   eps =                         1.000E-02
(PID.TID 0000.0001)   First location:                       1
(PID.TID 0000.0001)   Last location:                        4
(PID.TID 0000.0001)   Increment:                            1
(PID.TID 0000.0001)   grdchkWhichProc:                      0
(PID.TID 0000.0001)   iLocTile =      1 ,   jLocTile =      1
(PID.TID 0000.0001) 
(PID.TID 0000.0001) // =======================================================
(PID.TID 0000.0001) // Gradient check configuration  >>> END <<<
(PID.TID 0000.0001) // =======================================================
(PID.TID 0000.0001) 
(PID.TID 0000.0001) GAD_CHECK: #define ALLOW_GENERIC_ADVDIFF
(PID.TID 0000.0001) // =======================================================
(PID.TID 0000.0001) // Check Model config. (CONFIG_CHECK):
(PID.TID 0000.0001) // CONFIG_CHECK : Normal End
(PID.TID 0000.0001) // =======================================================
(PID.TID 0000.0001) 
(PID.TID 0000.0001)  nRecords = 187 ; filePrec =  64 ; fileIter =      8760
(PID.TID 0000.0001)     nDims =   2 , dims:
(PID.TID 0000.0001)    1:  10   1  10
(PID.TID 0000.0001)    2:   8   1   8
(PID.TID 0000.0001)     nFlds =  11 , nFl3D =   8 , fields:
(PID.TID 0000.0001)  >Uvel    < >Vvel    < >Theta   < >Salt    < >GuNm1   < >GvNm1   < >GtNm1   < >GsNm1   < >EtaN    < >dEtaHdt < >EtaH    <
(PID.TID 0000.0001) missingVal=  1.00000000000000E+00 ; nTimRec =   1 , timeList:
(PID.TID 0000.0001)   3.153600000000E+07
(PID.TID 0000.0001) READ_MFLDS_3D_RL: read field: "Uvel    ", #   1 in fldList, rec=   1
(PID.TID 0000.0001) READ_MFLDS_3D_RL: read field: "Vvel    ", #   2 in fldList, rec=   2
(PID.TID 0000.0001) READ_MFLDS_3D_RL: read field: "Theta   ", #   3 in fldList, rec=   3
(PID.TID 0000.0001) READ_MFLDS_3D_RL: read field: "Salt    ", #   4 in fldList, rec=   4
(PID.TID 0000.0001) READ_MFLDS_3D_RL: read field: "GuNm1   ", #   5 in fldList, rec=   5
(PID.TID 0000.0001) READ_MFLDS_3D_RL: read field: "GvNm1   ", #   6 in fldList, rec=   6
(PID.TID 0000.0001) READ_MFLDS_3D_RL: read field: "EtaN    ", #   9 in fldList, rec= 185
(PID.TID 0000.0001) READ_MFLDS_CHECK: - normal end ; reset MFLDS file-name: pickup.0000000001
(PID.TID 0000.0001)  nRecords =   8 ; filePrec =  64 ; fileIter =      8760
(PID.TID 0000.0001)     nDims =   2 , dims:
(PID.TID 0000.0001)    1:  10   1  10
(PID.TID 0000.0001)    2:   8   1   8
(PID.TID 0000.0001)     nFlds =   8 , nFl3D =   0 , fields:
(PID.TID 0000.0001)  >siTICE  < >siAREA  < >siHEFF  < >siHSNOW < >siHSALT < >siAGE   < >siUICE  < >siVICE  <
(PID.TID 0000.0001) missingVal=  1.00000000000000E+00 ; nTimRec =   1 , timeList:
(PID.TID 0000.0001)   3.153600000000E+07
(PID.TID 0000.0001) READ_MFLDS_3D_RL: field: "siTICES " missing in file: pickup_seaice.0000000001
(PID.TID 0000.0001) READ_MFLDS_LEV_RL: read field: "siTICE  ", #   1 in fldList, rec=   1
(PID.TID 0000.0001) READ_MFLDS_3D_RL: read field: "siAREA  ", #   2 in fldList, rec=   2
(PID.TID 0000.0001) READ_MFLDS_3D_RL: read field: "siHEFF  ", #   3 in fldList, rec=   3
(PID.TID 0000.0001) READ_MFLDS_3D_RL: read field: "siHSNOW ", #   4 in fldList, rec=   4
(PID.TID 0000.0001) READ_MFLDS_3D_RL: read field: "siHSALT ", #   5 in fldList, rec=   5
(PID.TID 0000.0001) READ_MFLDS_3D_RL: read field: "siUICE  ", #   7 in fldList, rec=   7
(PID.TID 0000.0001) READ_MFLDS_3D_RL: read field: "siVICE  ", #   8 in fldList, rec=   8
(PID.TID 0000.0001) READ_MFLDS_3D_RL: field: "siSigm1 " missing in file: pickup_seaice.0000000001
(PID.TID 0000.0001) READ_MFLDS_3D_RL: field: "siSigm2 " missing in file: pickup_seaice.0000000001
(PID.TID 0000.0001) READ_MFLDS_3D_RL: field: "siSigm12" missing in file: pickup_seaice.0000000001
(PID.TID 0000.0001) // =======================================================
(PID.TID 0000.0001) // Begin MONITOR dynamic field statistics
(PID.TID 0000.0001) // =======================================================
(PID.TID 0000.0001) %MON time_tsnumber                =                     0
(PID.TID 0000.0001) %MON time_secondsf                =   0.0000000000000E+00
(PID.TID 0000.0001) %MON dynstat_eta_max              =   1.2148896464948E-01
(PID.TID 0000.0001) %MON dynstat_eta_min              =  -1.2294072390931E-01
(PID.TID 0000.0001) %MON dynstat_eta_mean             =  -4.0879193119835E-02
(PID.TID 0000.0001) %MON dynstat_eta_sd               =   5.5742455093350E-02
(PID.TID 0000.0001) %MON dynstat_eta_del2             =   7.2695686705960E-03
(PID.TID 0000.0001) %MON dynstat_uvel_max             =   2.2009639999218E-02
(PID.TID 0000.0001) %MON dynstat_uvel_min             =  -3.2116802195889E-02
(PID.TID 0000.0001) %MON dynstat_uvel_mean            =  -9.1185285022315E-05
(PID.TID 0000.0001) %MON dynstat_uvel_sd              =   3.4976244593631E-03
(PID.TID 0000.0001) %MON dynstat_uvel_del2            =   2.9167384814974E-04
(PID.TID 0000.0001) %MON dynstat_vvel_max             =   3.0230752565413E-02
(PID.TID 0000.0001) %MON dynstat_vvel_min             =  -7.2915596643288E-02
(PID.TID 0000.0001) %MON dynstat_vvel_mean            =  -6.4339951121684E-04
(PID.TID 0000.0001) %MON dynstat_vvel_sd              =   5.8216672818233E-03
(PID.TID 0000.0001) %MON dynstat_vvel_del2            =   3.8104852203407E-04
(PID.TID 0000.0001) %MON dynstat_wvel_max             =   7.8665957443216E-06
(PID.TID 0000.0001) %MON dynstat_wvel_min             =  -1.1229500461274E-05
(PID.TID 0000.0001) %MON dynstat_wvel_mean            =  -1.3881689619331E-06
(PID.TID 0000.0001) %MON dynstat_wvel_sd              =   3.2166084559292E-06
(PID.TID 0000.0001) %MON dynstat_wvel_del2            =   2.4442365591657E-07
(PID.TID 0000.0001) %MON dynstat_theta_max            =   6.0153181285526E+00
(PID.TID 0000.0001) %MON dynstat_theta_min            =  -1.8174415658729E+00
(PID.TID 0000.0001) %MON dynstat_theta_mean           =   3.1873608367779E+00
(PID.TID 0000.0001) %MON dynstat_theta_sd             =   7.9838030400804E-01
(PID.TID 0000.0001) %MON dynstat_theta_del2           =   4.3246801571569E-02
(PID.TID 0000.0001) %MON dynstat_salt_max             =   3.4939863335716E+01
(PID.TID 0000.0001) %MON dynstat_salt_min             =   3.2483378437535E+01
(PID.TID 0000.0001) %MON dynstat_salt_mean            =   3.4812208901733E+01
(PID.TID 0000.0001) %MON dynstat_salt_sd              =   3.1542158662177E-01
(PID.TID 0000.0001) %MON dynstat_salt_del2            =   9.5634326230734E-03
(PID.TID 0000.0001) %MON forcing_qnet_max             =   0.0000000000000E+00
(PID.TID 0000.0001) %MON forcing_qnet_min             =   0.0000000000000E+00
(PID.TID 0000.0001) %MON forcing_qnet_mean            =   0.0000000000000E+00
(PID.TID 0000.0001) %MON forcing_qnet_sd              =   0.0000000000000E+00
(PID.TID 0000.0001) %MON forcing_qnet_del2            =   0.0000000000000E+00
(PID.TID 0000.0001) %MON forcing_qsw_max              =   0.0000000000000E+00
(PID.TID 0000.0001) %MON forcing_qsw_min              =   0.0000000000000E+00
(PID.TID 0000.0001) %MON forcing_qsw_mean             =   0.0000000000000E+00
(PID.TID 0000.0001) %MON forcing_qsw_sd               =   0.0000000000000E+00
(PID.TID 0000.0001) %MON forcing_qsw_del2             =   0.0000000000000E+00
(PID.TID 0000.0001) %MON forcing_empmr_max            =   0.0000000000000E+00
(PID.TID 0000.0001) %MON forcing_empmr_min            =   0.0000000000000E+00
(PID.TID 0000.0001) %MON forcing_empmr_mean           =   0.0000000000000E+00
(PID.TID 0000.0001) %MON forcing_empmr_sd             =   0.0000000000000E+00
(PID.TID 0000.0001) %MON forcing_empmr_del2           =   0.0000000000000E+00
(PID.TID 0000.0001) %MON forcing_fu_max               =   0.0000000000000E+00
(PID.TID 0000.0001) %MON forcing_fu_min               =   0.0000000000000E+00
(PID.TID 0000.0001) %MON forcing_fu_mean              =   0.0000000000000E+00
(PID.TID 0000.0001) %MON forcing_fu_sd                =   0.0000000000000E+00
(PID.TID 0000.0001) %MON forcing_fu_del2              =   0.0000000000000E+00
(PID.TID 0000.0001) %MON forcing_fv_max               =   0.0000000000000E+00
(PID.TID 0000.0001) %MON forcing_fv_min               =   0.0000000000000E+00
(PID.TID 0000.0001) %MON forcing_fv_mean              =   0.0000000000000E+00
(PID.TID 0000.0001) %MON forcing_fv_sd                =   0.0000000000000E+00
(PID.TID 0000.0001) %MON forcing_fv_del2              =   0.0000000000000E+00
(PID.TID 0000.0001) %MON trAdv_CFL_u_max              =   0.0000000000000E+00
(PID.TID 0000.0001) %MON trAdv_CFL_v_max              =   0.0000000000000E+00
(PID.TID 0000.0001) %MON trAdv_CFL_w_max              =   0.0000000000000E+00
(PID.TID 0000.0001) %MON advcfl_uvel_max              =   9.5457721697401E-04
(PID.TID 0000.0001) %MON advcfl_vvel_max              =   1.1803422864558E-03
(PID.TID 0000.0001) %MON advcfl_wvel_max              =   4.4762225102375E-03
(PID.TID 0000.0001) %MON advcfl_W_hf_max              =   2.1797518062028E-03
(PID.TID 0000.0001) %MON pe_b_mean                    =   1.3734780738211E-05
(PID.TID 0000.0001) %MON ke_max                       =   2.6767791989545E-03
(PID.TID 0000.0001) %MON ke_mean                      =   1.8753922645156E-05
(PID.TID 0000.0001) %MON ke_vol                       =   2.0812333426156E+15
(PID.TID 0000.0001) %MON vort_r_min                   =  -5.8929501924827E-07
(PID.TID 0000.0001) %MON vort_r_max                   =   2.7119962230354E-07
(PID.TID 0000.0001) %MON vort_a_mean                  =   1.1459506466757E-04
(PID.TID 0000.0001) %MON vort_a_sd                    =   5.2713275139946E-06
(PID.TID 0000.0001) %MON vort_p_mean                  =   1.7066120158470E-04
(PID.TID 0000.0001) %MON vort_p_sd                    =   1.1051719579054E-04
(PID.TID 0000.0001) %MON surfExpan_theta_mean         =  -2.1257986902296E-06
(PID.TID 0000.0001) %MON surfExpan_salt_mean          =  -4.4770994678265E-06
(PID.TID 0000.0001) // =======================================================
(PID.TID 0000.0001) // End MONITOR dynamic field statistics
(PID.TID 0000.0001) // =======================================================
(PID.TID 0000.0001) // =======================================================
(PID.TID 0000.0001) // Begin OBCS MONITOR field statistics
(PID.TID 0000.0001) // =======================================================
(PID.TID 0000.0001) %MON obc_E_uVel_max               =   1.4242653050871E-02
(PID.TID 0000.0001) %MON obc_E_uVel_min               =  -1.9194674273765E-02
(PID.TID 0000.0001) %MON obc_E_uVel_mean              =  -4.9638201602628E-04
(PID.TID 0000.0001) %MON obc_E_uVel_sd                =   3.2297495133493E-03
(PID.TID 0000.0001) %MON obc_E_uVel_Int               =  -1.0249741557350E+06
(PID.TID 0000.0001) %MON obc_W_uVel_max               =   9.2070222731099E-03
(PID.TID 0000.0001) %MON obc_W_uVel_min               =  -9.4567048049434E-03
(PID.TID 0000.0001) %MON obc_W_uVel_mean              =   2.4843306482436E-06
(PID.TID 0000.0001) %MON obc_W_uVel_sd                =   3.3213373892182E-03
(PID.TID 0000.0001) %MON obc_W_uVel_Int               =   2.8729476275997E+02
(PID.TID 0000.0001) %MON obc_N_vVel_max               =   9.4107913849022E-03
(PID.TID 0000.0001) %MON obc_N_vVel_min               =  -3.4397775301259E-02
(PID.TID 0000.0001) %MON obc_N_vVel_mean              =   8.5814502424306E-06
(PID.TID 0000.0001) %MON obc_N_vVel_sd                =   8.2083963961428E-03
(PID.TID 0000.0001) %MON obc_N_vVel_Int               =   1.1259722016490E+03
(PID.TID 0000.0001) %MON obc_S_vVel_max               =   3.6520769995882E-03
(PID.TID 0000.0001) %MON obc_S_vVel_min               =  -4.6883787666845E-02
(PID.TID 0000.0001) %MON obc_S_vVel_mean              =  -1.3399915045992E-03
(PID.TID 0000.0001) %MON obc_S_vVel_sd                =   4.9499815188988E-03
(PID.TID 0000.0001) %MON obc_S_vVel_Int               =  -1.1655003922066E+06
(PID.TID 0000.0001) // =======================================================
(PID.TID 0000.0001) // End OBCS MONITOR field statistics
(PID.TID 0000.0001) // =======================================================
(PID.TID 0000.0001) // =======================================================
(PID.TID 0000.0001) // Begin MONITOR SEAICE statistics
(PID.TID 0000.0001) // =======================================================
(PID.TID 0000.0001) %MON seaice_tsnumber              =                     0
(PID.TID 0000.0001) %MON seaice_time_sec              =   0.0000000000000E+00
(PID.TID 0000.0001) %MON seaice_uice_max              =   1.4568452533446E-01
(PID.TID 0000.0001) %MON seaice_uice_min              =  -1.0756200511604E-01
(PID.TID 0000.0001) %MON seaice_uice_mean             =   4.8585159172492E-02
(PID.TID 0000.0001) %MON seaice_uice_sd               =   6.6090805174384E-02
(PID.TID 0000.0001) %MON seaice_uice_del2             =   4.2844099468594E-03
(PID.TID 0000.0001) %MON seaice_vice_max              =   6.6723729113493E-02
(PID.TID 0000.0001) %MON seaice_vice_min              =  -1.5313531754626E-01
(PID.TID 0000.0001) %MON seaice_vice_mean             =  -7.4694814381824E-02
(PID.TID 0000.0001) %MON seaice_vice_sd               =   5.5457098956354E-02
(PID.TID 0000.0001) %MON seaice_vice_del2             =   3.6329843897423E-03
(PID.TID 0000.0001) %MON seaice_area_max              =   1.0000000000000E+00
(PID.TID 0000.0001) %MON seaice_area_min              =   0.0000000000000E+00
(PID.TID 0000.0001) %MON seaice_area_mean             =   3.3456698460908E-01
(PID.TID 0000.0001) %MON seaice_area_sd               =   4.1347224280415E-01
(PID.TID 0000.0001) %MON seaice_area_del2             =   7.1860770429023E-02
(PID.TID 0000.0001) %MON seaice_heff_max              =   4.6387455454928E-01
(PID.TID 0000.0001) %MON seaice_heff_min              =   0.0000000000000E+00
(PID.TID 0000.0001) %MON seaice_heff_mean             =   7.7767294476537E-02
(PID.TID 0000.0001) %MON seaice_heff_sd               =   1.1759237506287E-01
(PID.TID 0000.0001) %MON seaice_heff_del2             =   1.4149876013564E-02
(PID.TID 0000.0001) %MON seaice_hsnow_max             =   8.1462875154471E-02
(PID.TID 0000.0001) %MON seaice_hsnow_min             =   0.0000000000000E+00
(PID.TID 0000.0001) %MON seaice_hsnow_mean            =   1.6890355006286E-02
(PID.TID 0000.0001) %MON seaice_hsnow_sd              =   2.4480004555514E-02
(PID.TID 0000.0001) %MON seaice_hsnow_del2            =   4.1995111454288E-03
(PID.TID 0000.0001) %MON seaice_hsalt_max             =   0.0000000000000E+00
(PID.TID 0000.0001) %MON seaice_hsalt_min             =   0.0000000000000E+00
(PID.TID 0000.0001) %MON seaice_hsalt_mean            =   0.0000000000000E+00
(PID.TID 0000.0001) %MON seaice_hsalt_sd              =   0.0000000000000E+00
(PID.TID 0000.0001) %MON seaice_hsalt_del2            =   0.0000000000000E+00
(PID.TID 0000.0001) // =======================================================
(PID.TID 0000.0001) // End MONITOR SEAICE statistics
(PID.TID 0000.0001) // =======================================================
(PID.TID 0000.0001) whio : write lev 3 rec   1
(PID.TID 0000.0001) // =======================================================
(PID.TID 0000.0001) // Begin MONITOR EXF statistics
(PID.TID 0000.0001) // =======================================================
(PID.TID 0000.0001) %MON exf_tsnumber                 =                     0
(PID.TID 0000.0001) %MON exf_time_sec                 =   0.0000000000000E+00
(PID.TID 0000.0001) %MON exf_ustress_max              =   3.4595456907566E-02
(PID.TID 0000.0001) %MON exf_ustress_min              =   3.8338785867011E-03
(PID.TID 0000.0001) %MON exf_ustress_mean             =   1.8077129527957E-02
(PID.TID 0000.0001) %MON exf_ustress_sd               =   9.7611032429400E-03
(PID.TID 0000.0001) %MON exf_ustress_del2             =   3.7800211674077E-03
(PID.TID 0000.0001) %MON exf_vstress_max              =   6.9157650156681E-03
(PID.TID 0000.0001) %MON exf_vstress_min              =  -1.4624951809518E-02
(PID.TID 0000.0001) %MON exf_vstress_mean             =  -1.4352820962630E-03
(PID.TID 0000.0001) %MON exf_vstress_sd               =   5.4458283965948E-03
(PID.TID 0000.0001) %MON exf_vstress_del2             =   2.5532593558121E-03
(PID.TID 0000.0001) %MON exf_hflux_max                =   3.0341647578954E+02
(PID.TID 0000.0001) %MON exf_hflux_min                =   1.1802362156521E+00
(PID.TID 0000.0001) %MON exf_hflux_mean               =   1.3217697140312E+02
(PID.TID 0000.0001) %MON exf_hflux_sd                 =   1.0757296897439E+02
(PID.TID 0000.0001) %MON exf_hflux_del2               =   5.2120820383227E+01
(PID.TID 0000.0001) %MON exf_sflux_max                =   8.7563901163083E-09
(PID.TID 0000.0001) %MON exf_sflux_min                =  -5.9161717944982E-08
(PID.TID 0000.0001) %MON exf_sflux_mean               =  -2.1089822424685E-08
(PID.TID 0000.0001) %MON exf_sflux_sd                 =   2.1967832953019E-08
(PID.TID 0000.0001) %MON exf_sflux_del2               =   1.0212609219770E-08
(PID.TID 0000.0001) %MON exf_uwind_max                =   5.3665487766266E+00
(PID.TID 0000.0001) %MON exf_uwind_min                =   6.3837859034538E-01
(PID.TID 0000.0001) %MON exf_uwind_mean               =   3.0600886721754E+00
(PID.TID 0000.0001) %MON exf_uwind_sd                 =   1.4757778161838E+00
(PID.TID 0000.0001) %MON exf_uwind_del2               =   6.6946131180857E-01
(PID.TID 0000.0001) %MON exf_vwind_max                =   1.1564860045910E+00
(PID.TID 0000.0001) %MON exf_vwind_min                =  -2.2481823265553E+00
(PID.TID 0000.0001) %MON exf_vwind_mean               =  -2.5751537040120E-01
(PID.TID 0000.0001) %MON exf_vwind_sd                 =   8.9116253187842E-01
(PID.TID 0000.0001) %MON exf_vwind_del2               =   4.2176364289750E-01
(PID.TID 0000.0001) %MON exf_wspeed_max               =   5.4023948918919E+00
(PID.TID 0000.0001) %MON exf_wspeed_min               =   1.2174683370678E+00
(PID.TID 0000.0001) %MON exf_wspeed_mean              =   3.2209033701661E+00
(PID.TID 0000.0001) %MON exf_wspeed_sd                =   1.4241942102769E+00
(PID.TID 0000.0001) %MON exf_wspeed_del2              =   6.6667494488234E-01
(PID.TID 0000.0001) %MON exf_atemp_max                =   2.7816291809082E+02
(PID.TID 0000.0001) %MON exf_atemp_min                =   2.5102944946289E+02
(PID.TID 0000.0001) %MON exf_atemp_mean               =   2.6469409423052E+02
(PID.TID 0000.0001) %MON exf_atemp_sd                 =   9.4941812787211E+00
(PID.TID 0000.0001) %MON exf_atemp_del2               =   4.4688913422372E+00
(PID.TID 0000.0001) %MON exf_aqh_max                  =   4.9678694922477E-03
(PID.TID 0000.0001) %MON exf_aqh_min                  =   8.9501176262274E-04
(PID.TID 0000.0001) %MON exf_aqh_mean                 =   2.4689740315847E-03
(PID.TID 0000.0001) %MON exf_aqh_sd                   =   1.2818965574825E-03
(PID.TID 0000.0001) %MON exf_aqh_del2                 =   6.0164435024128E-04
(PID.TID 0000.0001) %MON exf_lwflux_max               =   1.3447975545111E+02
(PID.TID 0000.0001) %MON exf_lwflux_min               =   4.4252348680431E+01
(PID.TID 0000.0001) %MON exf_lwflux_mean              =   8.5088894902796E+01
(PID.TID 0000.0001) %MON exf_lwflux_sd                =   3.4373486022523E+01
(PID.TID 0000.0001) %MON exf_lwflux_del2              =   1.8011601498366E+01
(PID.TID 0000.0001) %MON exf_evap_max                 =   2.7519939220434E-08
(PID.TID 0000.0001) %MON exf_evap_min                 =  -1.6668255573997E-09
(PID.TID 0000.0001) %MON exf_evap_mean                =   1.0957529658716E-08
(PID.TID 0000.0001) %MON exf_evap_sd                  =   8.4853242168884E-09
(PID.TID 0000.0001) %MON exf_evap_del2                =   3.8885483994284E-09
(PID.TID 0000.0001) %MON exf_precip_max               =   5.9512137440265E-08
(PID.TID 0000.0001) %MON exf_precip_min               =   7.5269968036196E-09
(PID.TID 0000.0001) %MON exf_precip_mean              =   3.2047352083401E-08
(PID.TID 0000.0001) %MON exf_precip_sd                =   1.5067587244930E-08
(PID.TID 0000.0001) %MON exf_precip_del2              =   6.8458869450240E-09
(PID.TID 0000.0001) %MON exf_swflux_max               =  -2.6215539264679E+01
(PID.TID 0000.0001) %MON exf_swflux_min               =  -4.3175400924683E+01
(PID.TID 0000.0001) %MON exf_swflux_mean              =  -3.4065365652495E+01
(PID.TID 0000.0001) %MON exf_swflux_sd                =   5.3600490102236E+00
(PID.TID 0000.0001) %MON exf_swflux_del2              =   3.0983638020389E+00
(PID.TID 0000.0001) %MON exf_swdown_max               =   4.7972667694092E+01
(PID.TID 0000.0001) %MON exf_swdown_min               =   2.9128376960754E+01
(PID.TID 0000.0001) %MON exf_swdown_mean              =   3.7850406280550E+01
(PID.TID 0000.0001) %MON exf_swdown_sd                =   5.9556100113595E+00
(PID.TID 0000.0001) %MON exf_swdown_del2              =   3.4426264467099E+00
(PID.TID 0000.0001) %MON exf_lwdown_max               =   2.8608419799805E+02
(PID.TID 0000.0001) %MON exf_lwdown_min               =   1.7409917449951E+02
(PID.TID 0000.0001) %MON exf_lwdown_mean              =   2.2901514092829E+02
(PID.TID 0000.0001) %MON exf_lwdown_sd                =   3.6581223239417E+01
(PID.TID 0000.0001) %MON exf_lwdown_del2              =   2.5136042631779E+01
(PID.TID 0000.0001) %MON exf_climsss_max              =   3.4648643493652E+01
(PID.TID 0000.0001) %MON exf_climsss_min              =   2.5626064300537E+01
(PID.TID 0000.0001) %MON exf_climsss_mean             =   3.1806560832497E+01
(PID.TID 0000.0001) %MON exf_climsss_sd               =   2.3422416349894E+00
(PID.TID 0000.0001) %MON exf_climsss_del2             =   9.6874770458002E-01
(PID.TID 0000.0001) // =======================================================
(PID.TID 0000.0001) // End MONITOR EXF statistics
(PID.TID 0000.0001) // =======================================================
 ph-ice B            0  -1.6099159502251632        0.0000000000000000        0.0000000000000000     
 ph-ice C            0   26866466183.909428     
(PID.TID 0000.0001) SOLVE_FOR_PRESSURE: putPmEinXvector =    F
 cg2d: Sum(rhs),rhsMax =   1.60928057501076E+00  4.53911481785241E-01
(PID.TID 0000.0001)      cg2d_init_res =   3.59501802850623E-01
(PID.TID 0000.0001)      cg2d_iters(min,last) =      -1      24
(PID.TID 0000.0001)      cg2d_last_res =   4.80754052388839E-13
(PID.TID 0000.0001) // =======================================================
(PID.TID 0000.0001) // Begin MONITOR dynamic field statistics
(PID.TID 0000.0001) // =======================================================
(PID.TID 0000.0001) %MON time_tsnumber                =                     1
(PID.TID 0000.0001) %MON time_secondsf                =   3.6000000000000E+03
(PID.TID 0000.0001) %MON dynstat_eta_max              =   9.6366289279886E-02
(PID.TID 0000.0001) %MON dynstat_eta_min              =  -1.2091399083007E-01
(PID.TID 0000.0001) %MON dynstat_eta_mean             =  -4.1296700898093E-02
(PID.TID 0000.0001) %MON dynstat_eta_sd               =   5.1249950801985E-02
(PID.TID 0000.0001) %MON dynstat_eta_del2             =   5.4822737713944E-03
(PID.TID 0000.0001) %MON dynstat_uvel_max             =   3.5216018347881E-02
(PID.TID 0000.0001) %MON dynstat_uvel_min             =  -3.2360727187468E-02
(PID.TID 0000.0001) %MON dynstat_uvel_mean            =   4.4618878255180E-07
(PID.TID 0000.0001) %MON dynstat_uvel_sd              =   3.8674701665147E-03
(PID.TID 0000.0001) %MON dynstat_uvel_del2            =   3.3625614795686E-04
(PID.TID 0000.0001) %MON dynstat_vvel_max             =   3.0806609781873E-02
(PID.TID 0000.0001) %MON dynstat_vvel_min             =  -6.4247369300696E-02
(PID.TID 0000.0001) %MON dynstat_vvel_mean            =  -6.0108788543287E-04
(PID.TID 0000.0001) %MON dynstat_vvel_sd              =   5.3682369081166E-03
(PID.TID 0000.0001) %MON dynstat_vvel_del2            =   3.9250937210072E-04
(PID.TID 0000.0001) %MON dynstat_wvel_max             =   8.6689332759793E-06
(PID.TID 0000.0001) %MON dynstat_wvel_min             =  -1.5938421993529E-05
(PID.TID 0000.0001) %MON dynstat_wvel_mean            =  -1.3881689552876E-06
(PID.TID 0000.0001) %MON dynstat_wvel_sd              =   4.4861064550909E-06
(PID.TID 0000.0001) %MON dynstat_wvel_del2            =   3.0664185716270E-07
(PID.TID 0000.0001) %MON dynstat_theta_max            =   6.0151791615688E+00
(PID.TID 0000.0001) %MON dynstat_theta_min            =  -1.8167923568615E+00
(PID.TID 0000.0001) %MON dynstat_theta_mean           =   3.1873263009988E+00
(PID.TID 0000.0001) %MON dynstat_theta_sd             =   7.9836421648613E-01
(PID.TID 0000.0001) %MON dynstat_theta_del2           =   4.3238061065206E-02
(PID.TID 0000.0001) %MON dynstat_salt_max             =   3.4939863130281E+01
(PID.TID 0000.0001) %MON dynstat_salt_min             =   3.2483674803788E+01
(PID.TID 0000.0001) %MON dynstat_salt_mean            =   3.4812208553439E+01
(PID.TID 0000.0001) %MON dynstat_salt_sd              =   3.1540737616688E-01
(PID.TID 0000.0001) %MON dynstat_salt_del2            =   9.5552786499479E-03
(PID.TID 0000.0001) %MON forcing_qnet_max             =   3.0341647578954E+02
(PID.TID 0000.0001) %MON forcing_qnet_min             =  -7.9997171969741E+00
(PID.TID 0000.0001) %MON forcing_qnet_mean            =   7.4285865799534E+01
(PID.TID 0000.0001) %MON forcing_qnet_sd              =   1.0678172455801E+02
(PID.TID 0000.0001) %MON forcing_qnet_del2            =   4.0758084838078E+01
(PID.TID 0000.0001) %MON forcing_qsw_max              =  -4.9842637365998E-03
(PID.TID 0000.0001) %MON forcing_qsw_min              =  -4.3175400924683E+01
(PID.TID 0000.0001) %MON forcing_qsw_mean             =  -2.3876098905856E+01
(PID.TID 0000.0001) %MON forcing_qsw_sd               =   1.5677293442745E+01
(PID.TID 0000.0001) %MON forcing_qsw_del2             =   2.4999986597292E+00
(PID.TID 0000.0001) %MON forcing_empmr_max            =   4.1918546156949E-04
(PID.TID 0000.0001) %MON forcing_empmr_min            =  -7.9378190994502E-05
(PID.TID 0000.0001) %MON forcing_empmr_mean           =   5.8562276915607E-05
(PID.TID 0000.0001) %MON forcing_empmr_sd             =   1.3696964151253E-04
(PID.TID 0000.0001) %MON forcing_empmr_del2           =   5.2100488724588E-05
(PID.TID 0000.0001) %MON forcing_fu_max               =   3.7961416455942E-02
(PID.TID 0000.0001) %MON forcing_fu_min               =   3.5198842133913E-03
(PID.TID 0000.0001) %MON forcing_fu_mean              =   1.9566247598091E-02
(PID.TID 0000.0001) %MON forcing_fu_sd                =   9.2937860525561E-03
(PID.TID 0000.0001) %MON forcing_fu_del2              =   3.3899203147005E-03
(PID.TID 0000.0001) %MON forcing_fv_max               =   6.2412715307173E-04
(PID.TID 0000.0001) %MON forcing_fv_min               =  -3.5544278645738E-02
(PID.TID 0000.0001) %MON forcing_fv_mean              =  -6.5985222981431E-03
(PID.TID 0000.0001) %MON forcing_fv_sd                =   9.3543078712657E-03
(PID.TID 0000.0001) %MON forcing_fv_del2              =   8.6986423383466E-04
(PID.TID 0000.0001) %MON trAdv_CFL_u_max              =   2.5229703809993E-03
(PID.TID 0000.0001) %MON trAdv_CFL_v_max              =   1.7847383144392E-03
(PID.TID 0000.0001) %MON trAdv_CFL_w_max              =   3.1632167757919E-03
(PID.TID 0000.0001) %MON advcfl_uvel_max              =   9.6182716789354E-04
(PID.TID 0000.0001) %MON advcfl_vvel_max              =   1.0400228520400E-03
(PID.TID 0000.0001) %MON advcfl_wvel_max              =   5.0245350739171E-03
(PID.TID 0000.0001) %MON advcfl_W_hf_max              =   2.9209945556101E-03
(PID.TID 0000.0001) %MON pe_b_mean                    =   1.2451783286770E-05
(PID.TID 0000.0001) %MON ke_max                       =   2.1405908355474E-03
(PID.TID 0000.0001) %MON ke_mean                      =   1.7877747129294E-05
(PID.TID 0000.0001) %MON ke_vol                       =   2.0812333426156E+15
(PID.TID 0000.0001) %MON vort_r_min                   =  -5.6197921379505E-07
(PID.TID 0000.0001) %MON vort_r_max                   =   2.8753625952144E-07
(PID.TID 0000.0001) %MON vort_a_mean                  =   1.1459533165210E-04
(PID.TID 0000.0001) %MON vort_a_sd                    =   5.2710183490570E-06
(PID.TID 0000.0001) %MON vort_p_mean                  =   1.7066159919258E-04
(PID.TID 0000.0001) %MON vort_p_sd                    =   1.1051867118402E-04
(PID.TID 0000.0001) %MON surfExpan_theta_mean         =   1.2511241223631E-06
(PID.TID 0000.0001) %MON surfExpan_salt_mean          =  -3.4395679716356E-06
(PID.TID 0000.0001) // =======================================================
(PID.TID 0000.0001) // End MONITOR dynamic field statistics
(PID.TID 0000.0001) // =======================================================
(PID.TID 0000.0001) // =======================================================
(PID.TID 0000.0001) // Begin OBCS MONITOR field statistics
(PID.TID 0000.0001) // =======================================================
(PID.TID 0000.0001) %MON obc_E_uVel_max               =   1.4242652803659E-02
(PID.TID 0000.0001) %MON obc_E_uVel_min               =  -1.9194673746824E-02
(PID.TID 0000.0001) %MON obc_E_uVel_mean              =  -4.9638202333227E-04
(PID.TID 0000.0001) %MON obc_E_uVel_sd                =   3.2297495164110E-03
(PID.TID 0000.0001) %MON obc_E_uVel_Int               =  -1.0249741708211E+06
(PID.TID 0000.0001) %MON obc_W_uVel_max               =   9.2070223763585E-03
(PID.TID 0000.0001) %MON obc_W_uVel_min               =  -9.4567043706775E-03
(PID.TID 0000.0001) %MON obc_W_uVel_mean              =   2.4843352198681E-06
(PID.TID 0000.0001) %MON obc_W_uVel_sd                =   3.3213373038669E-03
(PID.TID 0000.0001) %MON obc_W_uVel_Int               =   2.8729529143508E+02
(PID.TID 0000.0001) %MON obc_N_vVel_max               =   9.4107910990715E-03
(PID.TID 0000.0001) %MON obc_N_vVel_min               =  -3.4397773444653E-02
(PID.TID 0000.0001) %MON obc_N_vVel_mean              =   8.5814341002979E-06
(PID.TID 0000.0001) %MON obc_N_vVel_sd                =   8.2083962660448E-03
(PID.TID 0000.0001) %MON obc_N_vVel_Int               =   1.1259700836395E+03
(PID.TID 0000.0001) %MON obc_S_vVel_max               =   3.6520769353956E-03
(PID.TID 0000.0001) %MON obc_S_vVel_min               =  -4.6883787959814E-02
(PID.TID 0000.0001) %MON obc_S_vVel_mean              =  -1.3399915142931E-03
(PID.TID 0000.0001) %MON obc_S_vVel_sd                =   4.9499815367102E-03
(PID.TID 0000.0001) %MON obc_S_vVel_Int               =  -1.1655004006382E+06
(PID.TID 0000.0001) // =======================================================
(PID.TID 0000.0001) // End OBCS MONITOR field statistics
(PID.TID 0000.0001) // =======================================================
(PID.TID 0000.0001) // =======================================================
(PID.TID 0000.0001) // Begin MONITOR SEAICE statistics
(PID.TID 0000.0001) // =======================================================
(PID.TID 0000.0001) %MON seaice_tsnumber              =                     1
(PID.TID 0000.0001) %MON seaice_time_sec              =   3.6000000000000E+03
(PID.TID 0000.0001) %MON seaice_uice_max              =   1.4288293416049E-01
(PID.TID 0000.0001) %MON seaice_uice_min              =  -5.7778908627093E+04
(PID.TID 0000.0001) %MON seaice_uice_mean             =  -1.3786812304366E+03
(PID.TID 0000.0001) %MON seaice_uice_sd               =   8.8181091960167E+03
(PID.TID 0000.0001) %MON seaice_uice_del2             =   4.6547007802570E+03
(PID.TID 0000.0001) %MON seaice_vice_max              =   5.0211877079702E-02
(PID.TID 0000.0001) %MON seaice_vice_min              =  -1.2560403565466E-01
(PID.TID 0000.0001) %MON seaice_vice_mean             =  -4.0341942873863E-02
(PID.TID 0000.0001) %MON seaice_vice_sd               =   4.7831717347194E-02
(PID.TID 0000.0001) %MON seaice_vice_del2             =   7.2487334105256E-03
(PID.TID 0000.0001) %MON seaice_area_max              =   9.9977518794995E-01
(PID.TID 0000.0001) %MON seaice_area_min              =   0.0000000000000E+00
(PID.TID 0000.0001) %MON seaice_area_mean             =   3.3499442158549E-01
(PID.TID 0000.0001) %MON seaice_area_sd               =   4.1369182344220E-01
(PID.TID 0000.0001) %MON seaice_area_del2             =   7.1732663474291E-02
(PID.TID 0000.0001) %MON seaice_heff_max              =   4.6510422090454E-01
(PID.TID 0000.0001) %MON seaice_heff_min              =   0.0000000000000E+00
(PID.TID 0000.0001) %MON seaice_heff_mean             =   7.8144583428689E-02
(PID.TID 0000.0001) %MON seaice_heff_sd               =   1.1792074907884E-01
(PID.TID 0000.0001) %MON seaice_heff_del2             =   1.4129646318395E-02
(PID.TID 0000.0001) %MON seaice_hsnow_max             =   8.1495460096375E-02
(PID.TID 0000.0001) %MON seaice_hsnow_min             =   0.0000000000000E+00
(PID.TID 0000.0001) %MON seaice_hsnow_mean            =   1.6992978858918E-02
(PID.TID 0000.0001) %MON seaice_hsnow_sd              =   2.4570695848782E-02
(PID.TID 0000.0001) %MON seaice_hsnow_del2            =   4.2137455880898E-03
(PID.TID 0000.0001) %MON seaice_hsalt_max             =   0.0000000000000E+00
(PID.TID 0000.0001) %MON seaice_hsalt_min             =   0.0000000000000E+00
(PID.TID 0000.0001) %MON seaice_hsalt_mean            =   0.0000000000000E+00
(PID.TID 0000.0001) %MON seaice_hsalt_sd              =   0.0000000000000E+00
(PID.TID 0000.0001) %MON seaice_hsalt_del2            =   0.0000000000000E+00
(PID.TID 0000.0001) // =======================================================
(PID.TID 0000.0001) // End MONITOR SEAICE statistics
(PID.TID 0000.0001) // =======================================================
(PID.TID 0000.0001) // =======================================================
(PID.TID 0000.0001) // Begin MONITOR EXF statistics
(PID.TID 0000.0001) // =======================================================
(PID.TID 0000.0001) %MON exf_tsnumber                 =                     1
(PID.TID 0000.0001) %MON exf_time_sec                 =   3.6000000000000E+03
(PID.TID 0000.0001) %MON exf_ustress_max              =   3.4552257702397E-02
(PID.TID 0000.0001) %MON exf_ustress_min              =   3.8356995062965E-03
(PID.TID 0000.0001) %MON exf_ustress_mean             =   1.8072240008523E-02
(PID.TID 0000.0001) %MON exf_ustress_sd               =   9.7517614280977E-03
(PID.TID 0000.0001) %MON exf_ustress_del2             =   3.7733568084629E-03
(PID.TID 0000.0001) %MON exf_vstress_max              =   6.9121616075969E-03
(PID.TID 0000.0001) %MON exf_vstress_min              =  -1.4660816137883E-02
(PID.TID 0000.0001) %MON exf_vstress_mean             =  -1.4435259728635E-03
(PID.TID 0000.0001) %MON exf_vstress_sd               =   5.4531789511473E-03
(PID.TID 0000.0001) %MON exf_vstress_del2             =   2.5562998578585E-03
(PID.TID 0000.0001) %MON exf_hflux_max                =   3.0351817628693E+02
(PID.TID 0000.0001) %MON exf_hflux_min                =   1.3144523660752E+00
(PID.TID 0000.0001) %MON exf_hflux_mean               =   1.3227544630062E+02
(PID.TID 0000.0001) %MON exf_hflux_sd                 =   1.0759087482447E+02
(PID.TID 0000.0001) %MON exf_hflux_del2               =   5.2125233538150E+01
(PID.TID 0000.0001) %MON exf_sflux_max                =   8.7944299982048E-09
(PID.TID 0000.0001) %MON exf_sflux_min                =  -5.9138368883916E-08
(PID.TID 0000.0001) %MON exf_sflux_mean               =  -2.1081511660357E-08
(PID.TID 0000.0001) %MON exf_sflux_sd                 =   2.1974633968549E-08
(PID.TID 0000.0001) %MON exf_sflux_del2               =   1.0216308732248E-08
(PID.TID 0000.0001) %MON exf_uwind_max                =   5.3640566334698E+00
(PID.TID 0000.0001) %MON exf_uwind_min                =   6.3865461579112E-01
(PID.TID 0000.0001) %MON exf_uwind_mean               =   3.0593522879030E+00
(PID.TID 0000.0001) %MON exf_uwind_sd                 =   1.4744357247427E+00
(PID.TID 0000.0001) %MON exf_uwind_del2               =   6.1206711020648E-01
(PID.TID 0000.0001) %MON exf_vwind_max                =   1.1557415265366E+00
(PID.TID 0000.0001) %MON exf_vwind_min                =  -2.2527607663896E+00
(PID.TID 0000.0001) %MON exf_vwind_mean               =  -2.5890197254668E-01
(PID.TID 0000.0001) %MON exf_vwind_sd                 =   8.9221997055781E-01
(PID.TID 0000.0001) %MON exf_vwind_del2               =   4.2033808319329E-01
(PID.TID 0000.0001) %MON exf_wspeed_max               =   5.3997777055552E+00
(PID.TID 0000.0001) %MON exf_wspeed_min               =   1.2176369740234E+00
(PID.TID 0000.0001) %MON exf_wspeed_mean              =   3.2204871040818E+00
(PID.TID 0000.0001) %MON exf_wspeed_sd                =   1.4230764728530E+00
(PID.TID 0000.0001) %MON exf_wspeed_del2              =   6.6592933088780E-01
(PID.TID 0000.0001) %MON exf_atemp_max                =   2.7815616290817E+02
(PID.TID 0000.0001) %MON exf_atemp_min                =   2.5102028856121E+02
(PID.TID 0000.0001) %MON exf_atemp_mean               =   2.6468954453896E+02
(PID.TID 0000.0001) %MON exf_atemp_sd                 =   9.4965604037859E+00
(PID.TID 0000.0001) %MON exf_atemp_del2               =   4.4705204619532E+00
(PID.TID 0000.0001) %MON exf_aqh_max                  =   4.9654881163281E-03
(PID.TID 0000.0001) %MON exf_aqh_min                  =   8.9437011651608E-04
(PID.TID 0000.0001) %MON exf_aqh_mean                 =   2.4683072174559E-03
(PID.TID 0000.0001) %MON exf_aqh_sd                   =   1.2817638144819E-03
(PID.TID 0000.0001) %MON exf_aqh_del2                 =   6.0168649038606E-04
(PID.TID 0000.0001) %MON exf_lwflux_max               =   1.3446774176049E+02
(PID.TID 0000.0001) %MON exf_lwflux_min               =   4.4271398638403E+01
(PID.TID 0000.0001) %MON exf_lwflux_mean              =   8.5105577998320E+01
(PID.TID 0000.0001) %MON exf_lwflux_sd                =   3.4366082365577E+01
(PID.TID 0000.0001) %MON exf_lwflux_del2              =   1.8005752868364E+01
(PID.TID 0000.0001) %MON exf_evap_max                 =   2.7540457424013E-08
(PID.TID 0000.0001) %MON exf_evap_min                 =  -1.6551744074010E-09
(PID.TID 0000.0001) %MON exf_evap_mean                =   1.0961106029759E-08
(PID.TID 0000.0001) %MON exf_evap_sd                  =   8.4829503085676E-09
(PID.TID 0000.0001) %MON exf_evap_del2                =   3.8876042197487E-09
(PID.TID 0000.0001) %MON exf_precip_max               =   5.9505298888682E-08
(PID.TID 0000.0001) %MON exf_precip_min               =   7.5144464615546E-09
(PID.TID 0000.0001) %MON exf_precip_mean              =   3.2042617690116E-08
(PID.TID 0000.0001) %MON exf_precip_sd                =   1.5074039568965E-08
(PID.TID 0000.0001) %MON exf_precip_del2              =   6.8495776502888E-09
(PID.TID 0000.0001) %MON exf_swflux_max               =  -2.6185689464163E+01
(PID.TID 0000.0001) %MON exf_swflux_min               =  -4.3130298511318E+01
(PID.TID 0000.0001) %MON exf_swflux_mean              =  -3.4027948904558E+01
(PID.TID 0000.0001) %MON exf_swflux_sd                =   5.3576873070070E+00
(PID.TID 0000.0001) %MON exf_swflux_del2              =   3.0946535536001E+00
(PID.TID 0000.0001) %MON exf_swdown_max               =   4.7922553901464E+01
(PID.TID 0000.0001) %MON exf_swdown_min               =   2.9095210515736E+01
(PID.TID 0000.0001) %MON exf_swdown_mean              =   3.7808832116175E+01
(PID.TID 0000.0001) %MON exf_swdown_sd                =   5.9529858966744E+00
(PID.TID 0000.0001) %MON exf_swdown_del2              =   3.4385039484445E+00
(PID.TID 0000.0001) %MON exf_lwdown_max               =   2.8604370784238E+02
(PID.TID 0000.0001) %MON exf_lwdown_min               =   1.7405251877165E+02
(PID.TID 0000.0001) %MON exf_lwdown_mean              =   2.2899297247569E+02
(PID.TID 0000.0001) %MON exf_lwdown_sd                =   3.6582083444799E+01
(PID.TID 0000.0001) %MON exf_lwdown_del2              =   2.5135762164677E+01
(PID.TID 0000.0001) %MON exf_climsss_max              =   3.4649188078166E+01
(PID.TID 0000.0001) %MON exf_climsss_min              =   2.5629877580320E+01
(PID.TID 0000.0001) %MON exf_climsss_mean             =   3.1807854529883E+01
(PID.TID 0000.0001) %MON exf_climsss_sd               =   2.3421795715802E+00
(PID.TID 0000.0001) %MON exf_climsss_del2             =   9.6893040172876E-01
(PID.TID 0000.0001) // =======================================================
(PID.TID 0000.0001) // End MONITOR EXF statistics
(PID.TID 0000.0001) // =======================================================
 ph-ice B            1  -1.6113904977016018        0.0000000000000000        0.0000000000000000     
 ph-ice C            1   53815332522.571678     
 cg2d: Sum(rhs),rhsMax =   1.39505160191305E+00  4.42528481922167E-01
(PID.TID 0000.0001)      cg2d_init_res =   1.99102894890649E-01
(PID.TID 0000.0001)      cg2d_iters(min,last) =      -1      23
(PID.TID 0000.0001)      cg2d_last_res =   9.15446412331133E-13
(PID.TID 0000.0001) // =======================================================
(PID.TID 0000.0001) // Begin MONITOR dynamic field statistics
(PID.TID 0000.0001) // =======================================================
(PID.TID 0000.0001) %MON time_tsnumber                =                     2
(PID.TID 0000.0001) %MON time_secondsf                =   7.2000000000000E+03
(PID.TID 0000.0001) %MON dynstat_eta_max              =   6.2961052531759E-02
(PID.TID 0000.0001) %MON dynstat_eta_min              =  -1.0386366199324E-01
(PID.TID 0000.0001) %MON dynstat_eta_mean             =  -3.4901486191438E-02
(PID.TID 0000.0001) %MON dynstat_eta_sd               =   4.3332815135685E-02
(PID.TID 0000.0001) %MON dynstat_eta_del2             =   4.7472967692757E-03
(PID.TID 0000.0001) %MON dynstat_uvel_max             =   4.0192894199071E-02
(PID.TID 0000.0001) %MON dynstat_uvel_min             =  -3.1972115607894E-02
(PID.TID 0000.0001) %MON dynstat_uvel_mean            =  -3.7519195576518E-04
(PID.TID 0000.0001) %MON dynstat_uvel_sd              =   4.0834427198447E-03
(PID.TID 0000.0001) %MON dynstat_uvel_del2            =   4.0323454425168E-04
(PID.TID 0000.0001) %MON dynstat_vvel_max             =   2.9710565026809E-02
(PID.TID 0000.0001) %MON dynstat_vvel_min             =  -5.8186958745884E-02
(PID.TID 0000.0001) %MON dynstat_vvel_mean            =  -2.0398152359678E-04
(PID.TID 0000.0001) %MON dynstat_vvel_sd              =   5.3836553127705E-03
(PID.TID 0000.0001) %MON dynstat_vvel_del2            =   4.1592275916525E-04
(PID.TID 0000.0001) %MON dynstat_wvel_max             =   2.5809857846278E-05
(PID.TID 0000.0001) %MON dynstat_wvel_min             =  -1.9937144570854E-05
(PID.TID 0000.0001) %MON dynstat_wvel_mean            =   1.7463603677407E-06
(PID.TID 0000.0001) %MON dynstat_wvel_sd              =   8.7855031710009E-06
(PID.TID 0000.0001) %MON dynstat_wvel_del2            =   6.4539692394377E-07
(PID.TID 0000.0001) %MON dynstat_theta_max            =   6.0145223545413E+00
(PID.TID 0000.0001) %MON dynstat_theta_min            =  -1.8159030756420E+00
(PID.TID 0000.0001) %MON dynstat_theta_mean           =   3.1872951148941E+00
(PID.TID 0000.0001) %MON dynstat_theta_sd             =   7.9832844349628E-01
(PID.TID 0000.0001) %MON dynstat_theta_del2           =   4.3235934448559E-02
(PID.TID 0000.0001) %MON dynstat_salt_max             =   3.4939862911979E+01
(PID.TID 0000.0001) %MON dynstat_salt_min             =   3.2483891820741E+01
(PID.TID 0000.0001) %MON dynstat_salt_mean            =   3.4812213690508E+01
(PID.TID 0000.0001) %MON dynstat_salt_sd              =   3.1538389732552E-01
(PID.TID 0000.0001) %MON dynstat_salt_del2            =   9.5401807636427E-03
(PID.TID 0000.0001) %MON forcing_qnet_max             =   3.0351817628693E+02
(PID.TID 0000.0001) %MON forcing_qnet_min             =  -7.9906463904243E+00
(PID.TID 0000.0001) %MON forcing_qnet_mean            =   7.6046266604368E+01
(PID.TID 0000.0001) %MON forcing_qnet_sd              =   1.0617475938355E+02
(PID.TID 0000.0001) %MON forcing_qnet_del2            =   4.0574738240617E+01
(PID.TID 0000.0001) %MON forcing_qsw_max              =  -1.2335974405996E-02
(PID.TID 0000.0001) %MON forcing_qsw_min              =  -4.3130298511318E+01
(PID.TID 0000.0001) %MON forcing_qsw_mean             =  -2.3838954236863E+01
(PID.TID 0000.0001) %MON forcing_qsw_sd               =   1.5666382239622E+01
(PID.TID 0000.0001) %MON forcing_qsw_del2             =   2.4922451551671E+00
(PID.TID 0000.0001) %MON forcing_empmr_max            =   3.7295368130813E-04
(PID.TID 0000.0001) %MON forcing_empmr_min            =  -7.9727699416353E-05
(PID.TID 0000.0001) %MON forcing_empmr_mean           =   5.3178618154557E-05
(PID.TID 0000.0001) %MON forcing_empmr_sd             =   1.2885259450555E-04
(PID.TID 0000.0001) %MON forcing_empmr_del2           =   4.6603708770137E-05
(PID.TID 0000.0001) %MON forcing_fu_max               =   3.4263016343551E-02
(PID.TID 0000.0001) %MON forcing_fu_min               =   3.0417742564619E-03
(PID.TID 0000.0001) %MON forcing_fu_mean              =   1.8113410791594E-02
(PID.TID 0000.0001) %MON forcing_fu_sd                =   9.3857635064808E-03
(PID.TID 0000.0001) %MON forcing_fu_del2              =   2.9214720082622E-03
(PID.TID 0000.0001) %MON forcing_fv_max               =   6.2017678304457E-04
(PID.TID 0000.0001) %MON forcing_fv_min               =  -1.8878648447035E-02
(PID.TID 0000.0001) %MON forcing_fv_mean              =  -4.5753933005734E-03
(PID.TID 0000.0001) %MON forcing_fv_sd                =   5.7225632990251E-03
(PID.TID 0000.0001) %MON forcing_fv_del2              =   6.2996877336219E-04
(PID.TID 0000.0001) %MON trAdv_CFL_u_max              =   2.7922171782854E-03
(PID.TID 0000.0001) %MON trAdv_CFL_v_max              =   1.7607758625621E-03
(PID.TID 0000.0001) %MON trAdv_CFL_w_max              =   3.6944466176928E-03
(PID.TID 0000.0001) %MON advcfl_uvel_max              =   1.0811197158715E-03
(PID.TID 0000.0001) %MON advcfl_vvel_max              =   9.4191820529176E-04
(PID.TID 0000.0001) %MON advcfl_wvel_max              =   6.6810473496269E-03
(PID.TID 0000.0001) %MON advcfl_W_hf_max              =   3.0989228584388E-03
(PID.TID 0000.0001) %MON pe_b_mean                    =   8.8986689355675E-06
(PID.TID 0000.0001) %MON ke_max                       =   1.8796452955067E-03
(PID.TID 0000.0001) %MON ke_mean                      =   1.8630078036483E-05
(PID.TID 0000.0001) %MON ke_vol                       =   2.0812333426156E+15
(PID.TID 0000.0001) %MON vort_r_min                   =  -5.5719107709512E-07
(PID.TID 0000.0001) %MON vort_r_max                   =   3.1335034646644E-07
(PID.TID 0000.0001) %MON vort_a_mean                  =   1.1459530638008E-04
(PID.TID 0000.0001) %MON vort_a_sd                    =   5.2703909748123E-06
(PID.TID 0000.0001) %MON vort_p_mean                  =   1.7066156155611E-04
(PID.TID 0000.0001) %MON vort_p_sd                    =   1.1051705917537E-04
(PID.TID 0000.0001) %MON surfExpan_theta_mean         =   4.3857053147311E-06
(PID.TID 0000.0001) %MON surfExpan_salt_mean          =   6.0274158243479E-05
(PID.TID 0000.0001) // =======================================================
(PID.TID 0000.0001) // End MONITOR dynamic field statistics
(PID.TID 0000.0001) // =======================================================
(PID.TID 0000.0001) // =======================================================
(PID.TID 0000.0001) // Begin OBCS MONITOR field statistics
(PID.TID 0000.0001) // =======================================================
(PID.TID 0000.0001) %MON obc_E_uVel_max               =   1.5887133777142E-02
(PID.TID 0000.0001) %MON obc_E_uVel_min               =  -1.4387597329915E-02
(PID.TID 0000.0001) %MON obc_E_uVel_mean              =  -1.2117181589127E-03
(PID.TID 0000.0001) %MON obc_E_uVel_sd                =   2.5429300278294E-03
(PID.TID 0000.0001) %MON obc_E_uVel_Int               =  -2.5020644520178E+06
(PID.TID 0000.0001) %MON obc_W_uVel_max               =   7.4547496624291E-03
(PID.TID 0000.0001) %MON obc_W_uVel_min               =  -1.5265225432813E-02
(PID.TID 0000.0001) %MON obc_W_uVel_mean              =   1.0739927389435E-03
(PID.TID 0000.0001) %MON obc_W_uVel_sd                =   4.1434365311604E-03
(PID.TID 0000.0001) %MON obc_W_uVel_Int               =   1.2419944557656E+05
(PID.TID 0000.0001) %MON obc_N_vVel_max               =   1.1617552489042E-02
(PID.TID 0000.0001) %MON obc_N_vVel_min               =  -3.1334396451712E-02
(PID.TID 0000.0001) %MON obc_N_vVel_mean              =   4.5199859990951E-04
(PID.TID 0000.0001) %MON obc_N_vVel_sd                =   8.0401541133562E-03
(PID.TID 0000.0001) %MON obc_N_vVel_Int               =   5.9306742369250E+04
(PID.TID 0000.0001) %MON obc_S_vVel_max               =   2.8631365858018E-03
(PID.TID 0000.0001) %MON obc_S_vVel_min               =  -5.1312185823917E-02
(PID.TID 0000.0001) %MON obc_S_vVel_mean              =  -4.6170989019693E-04
(PID.TID 0000.0001) %MON obc_S_vVel_sd                =   5.6464756655201E-03
(PID.TID 0000.0001) %MON obc_S_vVel_Int               =  -4.0158691772540E+05
(PID.TID 0000.0001) // =======================================================
(PID.TID 0000.0001) // End OBCS MONITOR field statistics
(PID.TID 0000.0001) // =======================================================
(PID.TID 0000.0001) // =======================================================
(PID.TID 0000.0001) // Begin MONITOR SEAICE statistics
(PID.TID 0000.0001) // =======================================================
(PID.TID 0000.0001) %MON seaice_tsnumber              =                     2
(PID.TID 0000.0001) %MON seaice_time_sec              =   7.2000000000000E+03
(PID.TID 0000.0001) %MON seaice_uice_max              =   1.4151068785205E-01
(PID.TID 0000.0001) %MON seaice_uice_min              =  -4.6321929315656E-02
(PID.TID 0000.0001) %MON seaice_uice_mean             =   1.4611350344227E-02
(PID.TID 0000.0001) %MON seaice_uice_sd               =   3.1079704923789E-02
(PID.TID 0000.0001) %MON seaice_uice_del2             =   8.9733999812119E-03
(PID.TID 0000.0001) %MON seaice_vice_max              =   4.8407134798389E-02
(PID.TID 0000.0001) %MON seaice_vice_min              =  -9.8707465752233E-02
(PID.TID 0000.0001) %MON seaice_vice_mean             =  -2.7580576855271E-02
(PID.TID 0000.0001) %MON seaice_vice_sd               =   3.8963335487391E-02
(PID.TID 0000.0001) %MON seaice_vice_del2             =   5.8028657727166E-03
(PID.TID 0000.0001) %MON seaice_area_max              =   9.9948262892542E-01
(PID.TID 0000.0001) %MON seaice_area_min              =   0.0000000000000E+00
(PID.TID 0000.0001) %MON seaice_area_mean             =   3.3530051874350E-01
(PID.TID 0000.0001) %MON seaice_area_sd               =   4.1382048345300E-01
(PID.TID 0000.0001) %MON seaice_area_del2             =   7.1612467009016E-02
(PID.TID 0000.0001) %MON seaice_heff_max              =   4.6600454091120E-01
(PID.TID 0000.0001) %MON seaice_heff_min              =   0.0000000000000E+00
(PID.TID 0000.0001) %MON seaice_heff_mean             =   7.8466879631707E-02
(PID.TID 0000.0001) %MON seaice_heff_sd               =   1.1818608521626E-01
(PID.TID 0000.0001) %MON seaice_heff_del2             =   1.4124324928763E-02
(PID.TID 0000.0001) %MON seaice_hsnow_max             =   8.1579849653887E-02
(PID.TID 0000.0001) %MON seaice_hsnow_min             =   0.0000000000000E+00
(PID.TID 0000.0001) %MON seaice_hsnow_mean            =   1.7094696172440E-02
(PID.TID 0000.0001) %MON seaice_hsnow_sd              =   2.4662854171993E-02
(PID.TID 0000.0001) %MON seaice_hsnow_del2            =   4.2277247039882E-03
(PID.TID 0000.0001) %MON seaice_hsalt_max             =   0.0000000000000E+00
(PID.TID 0000.0001) %MON seaice_hsalt_min             =   0.0000000000000E+00
(PID.TID 0000.0001) %MON seaice_hsalt_mean            =   0.0000000000000E+00
(PID.TID 0000.0001) %MON seaice_hsalt_sd              =   0.0000000000000E+00
(PID.TID 0000.0001) %MON seaice_hsalt_del2            =   0.0000000000000E+00
(PID.TID 0000.0001) // =======================================================
(PID.TID 0000.0001) // End MONITOR SEAICE statistics
(PID.TID 0000.0001) // =======================================================
(PID.TID 0000.0001) // =======================================================
(PID.TID 0000.0001) // Begin MONITOR EXF statistics
(PID.TID 0000.0001) // =======================================================
(PID.TID 0000.0001) %MON exf_tsnumber                 =                     2
(PID.TID 0000.0001) %MON exf_time_sec                 =   7.2000000000000E+03
(PID.TID 0000.0001) %MON exf_ustress_max              =   3.4508448541780E-02
(PID.TID 0000.0001) %MON exf_ustress_min              =   3.8375256774878E-03
(PID.TID 0000.0001) %MON exf_ustress_mean             =   1.8067256882305E-02
(PID.TID 0000.0001) %MON exf_ustress_sd               =   9.7425872857614E-03
(PID.TID 0000.0001) %MON exf_ustress_del2             =   3.7666787786507E-03
(PID.TID 0000.0001) %MON exf_vstress_max              =   6.9085654867192E-03
(PID.TID 0000.0001) %MON exf_vstress_min              =  -1.4696733308977E-02
(PID.TID 0000.0001) %MON exf_vstress_mean             =  -1.4516881002362E-03
(PID.TID 0000.0001) %MON exf_vstress_sd               =   5.4604404983951E-03
(PID.TID 0000.0001) %MON exf_vstress_del2             =   2.5593012538378E-03
(PID.TID 0000.0001) %MON exf_hflux_max                =   3.0360626064428E+02
(PID.TID 0000.0001) %MON exf_hflux_min                =   1.4505404745171E+00
(PID.TID 0000.0001) %MON exf_hflux_mean               =   1.3237775103410E+02
(PID.TID 0000.0001) %MON exf_hflux_sd                 =   1.0761583967211E+02
(PID.TID 0000.0001) %MON exf_hflux_del2               =   5.2132966469600E+01
(PID.TID 0000.0001) %MON exf_sflux_max                =   8.8393605082164E-09
(PID.TID 0000.0001) %MON exf_sflux_min                =  -5.9114686627337E-08
(PID.TID 0000.0001) %MON exf_sflux_mean               =  -2.1072759655327E-08
(PID.TID 0000.0001) %MON exf_sflux_sd                 =   2.1982170516105E-08
(PID.TID 0000.0001) %MON exf_sflux_del2               =   1.0220179692604E-08
(PID.TID 0000.0001) %MON exf_uwind_max                =   5.3615644903131E+00
(PID.TID 0000.0001) %MON exf_uwind_min                =   6.3893064123685E-01
(PID.TID 0000.0001) %MON exf_uwind_mean               =   3.0586159036305E+00
(PID.TID 0000.0001) %MON exf_uwind_sd                 =   1.4730978258026E+00
(PID.TID 0000.0001) %MON exf_uwind_del2               =   6.1114036230914E-01
(PID.TID 0000.0001) %MON exf_vwind_max                =   1.1549970484822E+00
(PID.TID 0000.0001) %MON exf_vwind_min                =  -2.2573392062239E+00
(PID.TID 0000.0001) %MON exf_vwind_mean               =  -2.6028857469217E-01
(PID.TID 0000.0001) %MON exf_vwind_sd                 =   8.9327979366818E-01
(PID.TID 0000.0001) %MON exf_vwind_del2               =   4.2083017831403E-01
(PID.TID 0000.0001) %MON exf_wspeed_max               =   5.3971606819623E+00
(PID.TID 0000.0001) %MON exf_wspeed_min               =   1.2178056508362E+00
(PID.TID 0000.0001) %MON exf_wspeed_mean              =   3.2200724643846E+00
(PID.TID 0000.0001) %MON exf_wspeed_sd                =   1.4219636796798E+00
(PID.TID 0000.0001) %MON exf_wspeed_del2              =   6.6518589258455E-01
(PID.TID 0000.0001) %MON exf_atemp_max                =   2.7814940772552E+02
(PID.TID 0000.0001) %MON exf_atemp_min                =   2.5101112765953E+02
(PID.TID 0000.0001) %MON exf_atemp_mean               =   2.6468499484741E+02
(PID.TID 0000.0001) %MON exf_atemp_sd                 =   9.4989407989185E+00
(PID.TID 0000.0001) %MON exf_atemp_del2               =   4.4721497673665E+00
(PID.TID 0000.0001) %MON exf_aqh_max                  =   4.9631067404086E-03
(PID.TID 0000.0001) %MON exf_aqh_min                  =   8.9372847040942E-04
(PID.TID 0000.0001) %MON exf_aqh_mean                 =   2.4676404033270E-03
(PID.TID 0000.0001) %MON exf_aqh_sd                   =   1.2816313122703E-03
(PID.TID 0000.0001) %MON exf_aqh_del2                 =   6.0172866595941E-04
(PID.TID 0000.0001) %MON exf_lwflux_max               =   1.3445233562857E+02
(PID.TID 0000.0001) %MON exf_lwflux_min               =   4.4290956753108E+01
(PID.TID 0000.0001) %MON exf_lwflux_mean              =   8.5123257733640E+01
(PID.TID 0000.0001) %MON exf_lwflux_sd                =   3.4360710068285E+01
(PID.TID 0000.0001) %MON exf_lwflux_del2              =   1.8001058316498E+01
(PID.TID 0000.0001) %MON exf_evap_max                 =   2.7560077317711E-08
(PID.TID 0000.0001) %MON exf_evap_min                 =  -1.6438551761155E-09
(PID.TID 0000.0001) %MON exf_evap_mean                =   1.0965123641504E-08
(PID.TID 0000.0001) %MON exf_evap_sd                  =   8.4811569060370E-09
(PID.TID 0000.0001) %MON exf_evap_del2                =   3.8870658400758E-09
(PID.TID 0000.0001) %MON exf_precip_max               =   5.9498460337099E-08
(PID.TID 0000.0001) %MON exf_precip_min               =   7.5018961194897E-09
(PID.TID 0000.0001) %MON exf_precip_mean              =   3.2037883296831E-08
(PID.TID 0000.0001) %MON exf_precip_sd                =   1.5080499849368E-08
(PID.TID 0000.0001) %MON exf_precip_del2              =   6.8532700849896E-09
(PID.TID 0000.0001) %MON exf_swflux_max               =  -2.6155839663646E+01
(PID.TID 0000.0001) %MON exf_swflux_min               =  -4.3085196097952E+01
(PID.TID 0000.0001) %MON exf_swflux_mean              =  -3.3990532156621E+01
(PID.TID 0000.0001) %MON exf_swflux_sd                =   5.3553284830339E+00
(PID.TID 0000.0001) %MON exf_swflux_del2              =   3.0909436178235E+00
(PID.TID 0000.0001) %MON exf_swdown_max               =   4.7872440108836E+01
(PID.TID 0000.0001) %MON exf_swdown_min               =   2.9062044070718E+01
(PID.TID 0000.0001) %MON exf_swdown_mean              =   3.7767257951801E+01
(PID.TID 0000.0001) %MON exf_swdown_sd                =   5.9503649811487E+00
(PID.TID 0000.0001) %MON exf_swdown_del2              =   3.4343817975816E+00
(PID.TID 0000.0001) %MON exf_lwdown_max               =   2.8600321768672E+02
(PID.TID 0000.0001) %MON exf_lwdown_min               =   1.7400586304378E+02
(PID.TID 0000.0001) %MON exf_lwdown_mean              =   2.2897080402310E+02
(PID.TID 0000.0001) %MON exf_lwdown_sd                =   3.6582950086733E+01
(PID.TID 0000.0001) %MON exf_lwdown_del2              =   2.5135483095814E+01
(PID.TID 0000.0001) %MON exf_climsss_max              =   3.4649732662680E+01
(PID.TID 0000.0001) %MON exf_climsss_min              =   2.5633690860102E+01
(PID.TID 0000.0001) %MON exf_climsss_mean             =   3.1809148227269E+01
(PID.TID 0000.0001) %MON exf_climsss_sd               =   2.3421186631058E+00
(PID.TID 0000.0001) %MON exf_climsss_del2             =   9.6911334031996E-01
(PID.TID 0000.0001) // =======================================================
(PID.TID 0000.0001) // End MONITOR EXF statistics
(PID.TID 0000.0001) // =======================================================
 ph-ice B            2  -1.6128879097782618        0.0000000000000000        0.0000000000000000     
 ph-ice C            2   80841603280.378983     
 cg2d: Sum(rhs),rhsMax =   1.53750147972917E+00  4.29674202516824E-01
(PID.TID 0000.0001)      cg2d_init_res =   2.57697581716616E-01
(PID.TID 0000.0001)      cg2d_iters(min,last) =      -1      24
(PID.TID 0000.0001)      cg2d_last_res =   1.22078067761004E-13
(PID.TID 0000.0001) // =======================================================
(PID.TID 0000.0001) // Begin MONITOR dynamic field statistics
(PID.TID 0000.0001) // =======================================================
(PID.TID 0000.0001) %MON time_tsnumber                =                     3
(PID.TID 0000.0001) %MON time_secondsf                =   1.0800000000000E+04
(PID.TID 0000.0001) %MON dynstat_eta_max              =   4.0554470875347E-02
(PID.TID 0000.0001) %MON dynstat_eta_min              =  -1.1267896545028E-01
(PID.TID 0000.0001) %MON dynstat_eta_mean             =  -3.7347990757170E-02
(PID.TID 0000.0001) %MON dynstat_eta_sd               =   4.3848996563882E-02
(PID.TID 0000.0001) %MON dynstat_eta_del2             =   4.6724090017347E-03
(PID.TID 0000.0001) %MON dynstat_uvel_max             =   3.6987886623832E-02
(PID.TID 0000.0001) %MON dynstat_uvel_min             =  -3.1697245590954E-02
(PID.TID 0000.0001) %MON dynstat_uvel_mean            =   8.0810650338669E-06
(PID.TID 0000.0001) %MON dynstat_uvel_sd              =   4.3638170673611E-03
(PID.TID 0000.0001) %MON dynstat_uvel_del2            =   4.7370800186970E-04
(PID.TID 0000.0001) %MON dynstat_vvel_max             =   2.8261257665767E-02
(PID.TID 0000.0001) %MON dynstat_vvel_min             =  -5.6007059091321E-02
(PID.TID 0000.0001) %MON dynstat_vvel_mean            =  -3.8695693372743E-04
(PID.TID 0000.0001) %MON dynstat_vvel_sd              =   5.3385956778336E-03
(PID.TID 0000.0001) %MON dynstat_vvel_del2            =   4.5084156138502E-04
(PID.TID 0000.0001) %MON dynstat_wvel_max             =   4.1771367062907E-05
(PID.TID 0000.0001) %MON dynstat_wvel_min             =  -3.1909821420718E-05
(PID.TID 0000.0001) %MON dynstat_wvel_mean            =  -5.7980287909503E-07
(PID.TID 0000.0001) %MON dynstat_wvel_sd              =   1.1404602132544E-05
(PID.TID 0000.0001) %MON dynstat_wvel_del2            =   8.4443089073769E-07
(PID.TID 0000.0001) %MON dynstat_theta_max            =   6.0143538625511E+00
(PID.TID 0000.0001) %MON dynstat_theta_min            =  -1.8149090734342E+00
(PID.TID 0000.0001) %MON dynstat_theta_mean           =   3.1872607178422E+00
(PID.TID 0000.0001) %MON dynstat_theta_sd             =   7.9830876266713E-01
(PID.TID 0000.0001) %MON dynstat_theta_del2           =   4.3245438428941E-02
(PID.TID 0000.0001) %MON dynstat_salt_max             =   3.4939862662372E+01
(PID.TID 0000.0001) %MON dynstat_salt_min             =   3.2484057741768E+01
(PID.TID 0000.0001) %MON dynstat_salt_mean            =   3.4812213769532E+01
(PID.TID 0000.0001) %MON dynstat_salt_sd              =   3.1536913749095E-01
(PID.TID 0000.0001) %MON dynstat_salt_del2            =   9.5269105699996E-03
(PID.TID 0000.0001) %MON forcing_qnet_max             =   3.0360626064428E+02
(PID.TID 0000.0001) %MON forcing_qnet_min             =  -7.9820437349645E+00
(PID.TID 0000.0001) %MON forcing_qnet_mean            =   7.7253527574433E+01
(PID.TID 0000.0001) %MON forcing_qnet_sd              =   1.0553935868010E+02
(PID.TID 0000.0001) %MON forcing_qnet_del2            =   4.0511372832053E+01
(PID.TID 0000.0001) %MON forcing_qsw_max              =  -2.0485467201067E-02
(PID.TID 0000.0001) %MON forcing_qsw_min              =  -4.3085196097952E+01
(PID.TID 0000.0001) %MON forcing_qsw_mean             =  -2.3804202746909E+01
(PID.TID 0000.0001) %MON forcing_qsw_sd               =   1.5654323280399E+01
(PID.TID 0000.0001) %MON forcing_qsw_del2             =   2.4848547508410E+00
(PID.TID 0000.0001) %MON forcing_empmr_max            =   3.4637339264367E-04
(PID.TID 0000.0001) %MON forcing_empmr_min            =  -7.7498296714820E-05
(PID.TID 0000.0001) %MON forcing_empmr_mean           =   4.9473566914153E-05
(PID.TID 0000.0001) %MON forcing_empmr_sd             =   1.2348132685074E-04
(PID.TID 0000.0001) %MON forcing_empmr_del2           =   4.4451167961946E-05
(PID.TID 0000.0001) %MON forcing_fu_max               =   3.4217873515391E-02
(PID.TID 0000.0001) %MON forcing_fu_min               =   3.2054927084771E-03
(PID.TID 0000.0001) %MON forcing_fu_mean              =   1.7886776755966E-02
(PID.TID 0000.0001) %MON forcing_fu_sd                =   9.4717649390978E-03
(PID.TID 0000.0001) %MON forcing_fu_del2              =   2.9191996925126E-03
(PID.TID 0000.0001) %MON forcing_fv_max               =   6.1617849014071E-04
(PID.TID 0000.0001) %MON forcing_fv_min               =  -1.4399641356166E-02
(PID.TID 0000.0001) %MON forcing_fv_mean              =  -4.0543737541533E-03
(PID.TID 0000.0001) %MON forcing_fv_sd                =   4.7073832255554E-03
(PID.TID 0000.0001) %MON forcing_fv_del2              =   6.0668273329675E-04
(PID.TID 0000.0001) %MON trAdv_CFL_u_max              =   2.8491999849540E-03
(PID.TID 0000.0001) %MON trAdv_CFL_v_max              =   1.8248890468225E-03
(PID.TID 0000.0001) %MON trAdv_CFL_w_max              =   4.2815588429106E-03
(PID.TID 0000.0001) %MON advcfl_uvel_max              =   9.9491052521341E-04
(PID.TID 0000.0001) %MON advcfl_vvel_max              =   9.0663044984626E-04
(PID.TID 0000.0001) %MON advcfl_wvel_max              =   5.5778326247269E-03
(PID.TID 0000.0001) %MON advcfl_W_hf_max              =   2.5875805251247E-03
(PID.TID 0000.0001) %MON pe_b_mean                    =   9.5360944313713E-06
(PID.TID 0000.0001) %MON ke_max                       =   1.6319159124410E-03
(PID.TID 0000.0001) %MON ke_mean                      =   1.9511242661230E-05
(PID.TID 0000.0001) %MON ke_vol                       =   2.0812333426156E+15
(PID.TID 0000.0001) %MON vort_r_min                   =  -5.3225324933253E-07
(PID.TID 0000.0001) %MON vort_r_max                   =   3.2863538115129E-07
(PID.TID 0000.0001) %MON vort_a_mean                  =   1.1459534636395E-04
(PID.TID 0000.0001) %MON vort_a_sd                    =   5.2710874114003E-06
(PID.TID 0000.0001) %MON vort_p_mean                  =   1.7066162110226E-04
(PID.TID 0000.0001) %MON vort_p_sd                    =   1.1051709799802E-04
(PID.TID 0000.0001) %MON surfExpan_theta_mean         =  -1.9217199829248E-06
(PID.TID 0000.0001) %MON surfExpan_salt_mean          =  -2.2975739836699E-05
(PID.TID 0000.0001) // =======================================================
(PID.TID 0000.0001) // End MONITOR dynamic field statistics
(PID.TID 0000.0001) // =======================================================
(PID.TID 0000.0001) // =======================================================
(PID.TID 0000.0001) // Begin OBCS MONITOR field statistics
(PID.TID 0000.0001) // =======================================================
(PID.TID 0000.0001) %MON obc_E_uVel_max               =   1.5771539881825E-02
(PID.TID 0000.0001) %MON obc_E_uVel_min               =  -1.4828299172223E-02
(PID.TID 0000.0001) %MON obc_E_uVel_mean              =  -2.6682150968501E-04
(PID.TID 0000.0001) %MON obc_E_uVel_sd                =   3.1236111196742E-03
(PID.TID 0000.0001) %MON obc_E_uVel_Int               =  -5.5095701051115E+05
(PID.TID 0000.0001) %MON obc_W_uVel_max               =   6.8001798354089E-03
(PID.TID 0000.0001) %MON obc_W_uVel_min               =  -1.8022853881121E-02
(PID.TID 0000.0001) %MON obc_W_uVel_mean              =  -2.1494028876007E-04
(PID.TID 0000.0001) %MON obc_W_uVel_sd                =   4.0736009807059E-03
(PID.TID 0000.0001) %MON obc_W_uVel_Int               =  -2.4856280427302E+04
(PID.TID 0000.0001) %MON obc_N_vVel_max               =   1.3537532649934E-02
(PID.TID 0000.0001) %MON obc_N_vVel_min               =  -3.1327553093433E-02
(PID.TID 0000.0001) %MON obc_N_vVel_mean              =   4.2621446618025E-04
(PID.TID 0000.0001) %MON obc_N_vVel_sd                =   7.9827300057633E-03
(PID.TID 0000.0001) %MON obc_N_vVel_Int               =   5.5923605836080E+04
(PID.TID 0000.0001) %MON obc_S_vVel_max               =   1.2111861724406E-03
(PID.TID 0000.0001) %MON obc_S_vVel_min               =  -4.7052156180143E-02
(PID.TID 0000.0001) %MON obc_S_vVel_mean              =  -1.4929542784743E-03
(PID.TID 0000.0001) %MON obc_S_vVel_sd                =   5.2190380977078E-03
(PID.TID 0000.0001) %MON obc_S_vVel_Int               =  -1.2985446483326E+06
(PID.TID 0000.0001) // =======================================================
(PID.TID 0000.0001) // End OBCS MONITOR field statistics
(PID.TID 0000.0001) // =======================================================
(PID.TID 0000.0001) // =======================================================
(PID.TID 0000.0001) // Begin MONITOR SEAICE statistics
(PID.TID 0000.0001) // =======================================================
(PID.TID 0000.0001) %MON seaice_tsnumber              =                     3
(PID.TID 0000.0001) %MON seaice_time_sec              =   1.0800000000000E+04
(PID.TID 0000.0001) %MON seaice_uice_max              =   1.4048484296159E-01
(PID.TID 0000.0001) %MON seaice_uice_min              =  -4.2113026918505E-02
(PID.TID 0000.0001) %MON seaice_uice_mean             =   1.4217063817765E-02
(PID.TID 0000.0001) %MON seaice_uice_sd               =   3.0134087558936E-02
(PID.TID 0000.0001) %MON seaice_uice_del2             =   8.5744645697627E-03
(PID.TID 0000.0001) %MON seaice_vice_max              =   4.6696844448461E-02
(PID.TID 0000.0001) %MON seaice_vice_min              =  -9.2598140591569E-02
(PID.TID 0000.0001) %MON seaice_vice_mean             =  -2.4596228068847E-02
(PID.TID 0000.0001) %MON seaice_vice_sd               =   3.5106590059567E-02
(PID.TID 0000.0001) %MON seaice_vice_del2             =   5.7588535706047E-03
(PID.TID 0000.0001) %MON seaice_area_max              =   9.9916097719832E-01
(PID.TID 0000.0001) %MON seaice_area_min              =   0.0000000000000E+00
(PID.TID 0000.0001) %MON seaice_area_mean             =   3.3554090423320E-01
(PID.TID 0000.0001) %MON seaice_area_sd               =   4.1390090881345E-01
(PID.TID 0000.0001) %MON seaice_area_del2             =   7.1486346033275E-02
(PID.TID 0000.0001) %MON seaice_heff_max              =   4.6687207011406E-01
(PID.TID 0000.0001) %MON seaice_heff_min              =   0.0000000000000E+00
(PID.TID 0000.0001) %MON seaice_heff_mean             =   7.8767228268318E-02
(PID.TID 0000.0001) %MON seaice_heff_sd               =   1.1844106079571E-01
(PID.TID 0000.0001) %MON seaice_heff_del2             =   1.4124755168346E-02
(PID.TID 0000.0001) %MON seaice_hsnow_max             =   8.1661166610322E-02
(PID.TID 0000.0001) %MON seaice_hsnow_min             =   0.0000000000000E+00
(PID.TID 0000.0001) %MON seaice_hsnow_mean            =   1.7194894811682E-02
(PID.TID 0000.0001) %MON seaice_hsnow_sd              =   2.4754470969990E-02
(PID.TID 0000.0001) %MON seaice_hsnow_del2            =   4.2421174371684E-03
(PID.TID 0000.0001) %MON seaice_hsalt_max             =   0.0000000000000E+00
(PID.TID 0000.0001) %MON seaice_hsalt_min             =   0.0000000000000E+00
(PID.TID 0000.0001) %MON seaice_hsalt_mean            =   0.0000000000000E+00
(PID.TID 0000.0001) %MON seaice_hsalt_sd              =   0.0000000000000E+00
(PID.TID 0000.0001) %MON seaice_hsalt_del2            =   0.0000000000000E+00
(PID.TID 0000.0001) // =======================================================
(PID.TID 0000.0001) // End MONITOR SEAICE statistics
(PID.TID 0000.0001) // =======================================================
(PID.TID 0000.0001) // =======================================================
(PID.TID 0000.0001) // Begin MONITOR EXF statistics
(PID.TID 0000.0001) // =======================================================
(PID.TID 0000.0001) %MON exf_tsnumber                 =                     3
(PID.TID 0000.0001) %MON exf_time_sec                 =   1.0800000000000E+04
(PID.TID 0000.0001) %MON exf_ustress_max              =   3.4464973137773E-02
(PID.TID 0000.0001) %MON exf_ustress_min              =   3.8393515448821E-03
(PID.TID 0000.0001) %MON exf_ustress_mean             =   1.8062257716998E-02
(PID.TID 0000.0001) %MON exf_ustress_sd               =   9.7335665778815E-03
(PID.TID 0000.0001) %MON exf_ustress_del2             =   3.7599901170090E-03
(PID.TID 0000.0001) %MON exf_vstress_max              =   6.9049746686617E-03
(PID.TID 0000.0001) %MON exf_vstress_min              =  -1.4732694452996E-02
(PID.TID 0000.0001) %MON exf_vstress_mean             =  -1.4597956041644E-03
(PID.TID 0000.0001) %MON exf_vstress_sd               =   5.4676497269664E-03
(PID.TID 0000.0001) %MON exf_vstress_del2             =   2.5622819381770E-03
(PID.TID 0000.0001) %MON exf_hflux_max                =   3.0368905852297E+02
(PID.TID 0000.0001) %MON exf_hflux_min                =   1.5882921761717E+00
(PID.TID 0000.0001) %MON exf_hflux_mean               =   1.3248400918157E+02
(PID.TID 0000.0001) %MON exf_hflux_sd                 =   1.0764664497583E+02
(PID.TID 0000.0001) %MON exf_hflux_del2               =   5.2143766941276E+01
(PID.TID 0000.0001) %MON exf_sflux_max                =   8.8877173244308E-09
(PID.TID 0000.0001) %MON exf_sflux_min                =  -5.9090708365785E-08
(PID.TID 0000.0001) %MON exf_sflux_mean               =  -2.1063528206947E-08
(PID.TID 0000.0001) %MON exf_sflux_sd                 =   2.1990251917261E-08
(PID.TID 0000.0001) %MON exf_sflux_del2               =   1.0224251005701E-08
(PID.TID 0000.0001) %MON exf_uwind_max                =   5.3590723471563E+00
(PID.TID 0000.0001) %MON exf_uwind_min                =   6.3920666668259E-01
(PID.TID 0000.0001) %MON exf_uwind_mean               =   3.0578795193580E+00
(PID.TID 0000.0001) %MON exf_uwind_sd                 =   1.4717641307970E+00
(PID.TID 0000.0001) %MON exf_uwind_del2               =   6.1021516169814E-01
(PID.TID 0000.0001) %MON exf_vwind_max                =   1.1542525704278E+00
(PID.TID 0000.0001) %MON exf_vwind_min                =  -2.2619176460583E+00
(PID.TID 0000.0001) %MON exf_vwind_mean               =  -2.6167517683765E-01
(PID.TID 0000.0001) %MON exf_vwind_sd                 =   8.9434199273265E-01
(PID.TID 0000.0001) %MON exf_vwind_del2               =   4.2132323784870E-01
(PID.TID 0000.0001) %MON exf_wspeed_max               =   5.3945438213498E+00
(PID.TID 0000.0001) %MON exf_wspeed_min               =   1.2179743674897E+00
(PID.TID 0000.0001) %MON exf_wspeed_mean              =   3.2196594534197E+00
(PID.TID 0000.0001) %MON exf_wspeed_sd                =   1.4208558384837E+00
(PID.TID 0000.0001) %MON exf_wspeed_del2              =   6.6444463630153E-01
(PID.TID 0000.0001) %MON exf_atemp_max                =   2.7814265254286E+02
(PID.TID 0000.0001) %MON exf_atemp_min                =   2.5100196675785E+02
(PID.TID 0000.0001) %MON exf_atemp_mean               =   2.6468044515586E+02
(PID.TID 0000.0001) %MON exf_atemp_sd                 =   9.5013224631643E+00
(PID.TID 0000.0001) %MON exf_atemp_del2               =   4.4737792582742E+00
(PID.TID 0000.0001) %MON exf_aqh_max                  =   4.9607253644890E-03
(PID.TID 0000.0001) %MON exf_aqh_min                  =   8.9308682430276E-04
(PID.TID 0000.0001) %MON exf_aqh_mean                 =   2.4669735891982E-03
(PID.TID 0000.0001) %MON exf_aqh_sd                   =   1.2814990509225E-03
(PID.TID 0000.0001) %MON exf_aqh_del2                 =   6.0177087695386E-04
(PID.TID 0000.0001) %MON exf_lwflux_max               =   1.3443561335600E+02
(PID.TID 0000.0001) %MON exf_lwflux_min               =   4.4310862414017E+01
(PID.TID 0000.0001) %MON exf_lwflux_mean              =   8.5141979489037E+01
(PID.TID 0000.0001) %MON exf_lwflux_sd                =   3.4356953405915E+01
(PID.TID 0000.0001) %MON exf_lwflux_del2              =   1.7997369429538E+01
(PID.TID 0000.0001) %MON exf_evap_max                 =   2.7579056632264E-08
(PID.TID 0000.0001) %MON exf_evap_min                 =  -1.6327447778010E-09
(PID.TID 0000.0001) %MON exf_evap_mean                =   1.0969620696598E-08
(PID.TID 0000.0001) %MON exf_evap_sd                  =   8.4798782989076E-09
(PID.TID 0000.0001) %MON exf_evap_del2                =   3.8868808368139E-09
(PID.TID 0000.0001) %MON exf_precip_max               =   5.9491621785516E-08
(PID.TID 0000.0001) %MON exf_precip_min               =   7.4893457774248E-09
(PID.TID 0000.0001) %MON exf_precip_mean              =   3.2033148903546E-08
(PID.TID 0000.0001) %MON exf_precip_sd                =   1.5086968075920E-08
(PID.TID 0000.0001) %MON exf_precip_del2              =   6.8569642463325E-09
(PID.TID 0000.0001) %MON exf_swflux_max               =  -2.6125989863130E+01
(PID.TID 0000.0001) %MON exf_swflux_min               =  -4.3040093684587E+01
(PID.TID 0000.0001) %MON exf_swflux_mean              =  -3.3953115408683E+01
(PID.TID 0000.0001) %MON exf_swflux_sd                =   5.3529725421105E+00
(PID.TID 0000.0001) %MON exf_swflux_del2              =   3.0872339958363E+00
(PID.TID 0000.0001) %MON exf_swdown_max               =   4.7822326316208E+01
(PID.TID 0000.0001) %MON exf_swdown_min               =   2.9028877625700E+01
(PID.TID 0000.0001) %MON exf_swdown_mean              =   3.7725683787426E+01
(PID.TID 0000.0001) %MON exf_swdown_sd                =   5.9477472690116E+00
(PID.TID 0000.0001) %MON exf_swdown_del2              =   3.4302599953736E+00
(PID.TID 0000.0001) %MON exf_lwdown_max               =   2.8596272753106E+02
(PID.TID 0000.0001) %MON exf_lwdown_min               =   1.7395920731591E+02
(PID.TID 0000.0001) %MON exf_lwdown_mean              =   2.2894863557051E+02
(PID.TID 0000.0001) %MON exf_lwdown_sd                =   3.6583823164761E+01
(PID.TID 0000.0001) %MON exf_lwdown_del2              =   2.5135205425235E+01
(PID.TID 0000.0001) %MON exf_climsss_max              =   3.4650277247194E+01
(PID.TID 0000.0001) %MON exf_climsss_min              =   2.5637504139885E+01
(PID.TID 0000.0001) %MON exf_climsss_mean             =   3.1810441924655E+01
(PID.TID 0000.0001) %MON exf_climsss_sd               =   2.3420589096563E+00
(PID.TID 0000.0001) %MON exf_climsss_del2             =   9.6929652021692E-01
(PID.TID 0000.0001) // =======================================================
(PID.TID 0000.0001) // End MONITOR EXF statistics
(PID.TID 0000.0001) // =======================================================
 ph-ice B            3  -1.6145652712825660        0.0000000000000000        0.0000000000000000     
 ph-ice C            3   107941969017.64813     
 cg2d: Sum(rhs),rhsMax =   1.66300803566020E+00  4.46105399632518E-01
(PID.TID 0000.0001)      cg2d_init_res =   8.57160999002939E-02
(PID.TID 0000.0001)      cg2d_iters(min,last) =      -1      23
(PID.TID 0000.0001)      cg2d_last_res =   4.78787295719762E-13
(PID.TID 0000.0001) // =======================================================
(PID.TID 0000.0001) // Begin MONITOR dynamic field statistics
(PID.TID 0000.0001) // =======================================================
(PID.TID 0000.0001) %MON time_tsnumber                =                     4
(PID.TID 0000.0001) %MON time_secondsf                =   1.4400000000000E+04
(PID.TID 0000.0001) %MON dynstat_eta_max              =   3.5186905524291E-02
(PID.TID 0000.0001) %MON dynstat_eta_min              =  -1.1941053127618E-01
(PID.TID 0000.0001) %MON dynstat_eta_mean             =  -4.1941527984725E-02
(PID.TID 0000.0001) %MON dynstat_eta_sd               =   4.4805193603398E-02
(PID.TID 0000.0001) %MON dynstat_eta_del2             =   4.7314524803472E-03
(PID.TID 0000.0001) %MON dynstat_uvel_max             =   3.8613916225297E-02
(PID.TID 0000.0001) %MON dynstat_uvel_min             =  -2.9374372912584E-02
(PID.TID 0000.0001) %MON dynstat_uvel_mean            =   1.6820405646869E-04
(PID.TID 0000.0001) %MON dynstat_uvel_sd              =   4.7431661918768E-03
(PID.TID 0000.0001) %MON dynstat_uvel_del2            =   5.5357655173488E-04
(PID.TID 0000.0001) %MON dynstat_vvel_max             =   2.9149512824162E-02
(PID.TID 0000.0001) %MON dynstat_vvel_min             =  -5.2743235178847E-02
(PID.TID 0000.0001) %MON dynstat_vvel_mean            =  -7.4747317751977E-04
(PID.TID 0000.0001) %MON dynstat_vvel_sd              =   5.3481781509957E-03
(PID.TID 0000.0001) %MON dynstat_vvel_del2            =   5.0426019724265E-04
(PID.TID 0000.0001) %MON dynstat_wvel_max             =   5.4995854537561E-05
(PID.TID 0000.0001) %MON dynstat_wvel_min             =  -4.2585816330652E-05
(PID.TID 0000.0001) %MON dynstat_wvel_mean            =  -1.7810094341414E-06
(PID.TID 0000.0001) %MON dynstat_wvel_sd              =   1.4801812325145E-05
(PID.TID 0000.0001) %MON dynstat_wvel_del2            =   1.0648014110301E-06
(PID.TID 0000.0001) %MON dynstat_theta_max            =   6.0142354544148E+00
(PID.TID 0000.0001) %MON dynstat_theta_min            =  -1.8138876086752E+00
(PID.TID 0000.0001) %MON dynstat_theta_mean           =   3.1872228575033E+00
(PID.TID 0000.0001) %MON dynstat_theta_sd             =   7.9831457632577E-01
(PID.TID 0000.0001) %MON dynstat_theta_del2           =   4.3255185898416E-02
(PID.TID 0000.0001) %MON dynstat_salt_max             =   3.4939862390963E+01
(PID.TID 0000.0001) %MON dynstat_salt_min             =   3.2484190845094E+01
(PID.TID 0000.0001) %MON dynstat_salt_mean            =   3.4812211377748E+01
(PID.TID 0000.0001) %MON dynstat_salt_sd              =   3.1536103234288E-01
(PID.TID 0000.0001) %MON dynstat_salt_del2            =   9.5152895366635E-03
(PID.TID 0000.0001) %MON forcing_qnet_max             =   3.0368905852297E+02
(PID.TID 0000.0001) %MON forcing_qnet_min             =  -7.9737858194179E+00
(PID.TID 0000.0001) %MON forcing_qnet_mean            =   7.8201281272438E+01
(PID.TID 0000.0001) %MON forcing_qnet_sd              =   1.0492059928933E+02
(PID.TID 0000.0001) %MON forcing_qnet_del2            =   4.0481205779442E+01
(PID.TID 0000.0001) %MON forcing_qsw_max              =  -2.8996460972813E-02
(PID.TID 0000.0001) %MON forcing_qsw_min              =  -4.3040093684587E+01
(PID.TID 0000.0001) %MON forcing_qsw_mean             =  -2.3771342272587E+01
(PID.TID 0000.0001) %MON forcing_qsw_sd               =   1.5640970516199E+01
(PID.TID 0000.0001) %MON forcing_qsw_del2             =   2.4774019381631E+00
(PID.TID 0000.0001) %MON forcing_empmr_max            =   3.2775799837008E-04
(PID.TID 0000.0001) %MON forcing_empmr_min            =  -7.7335080955508E-05
(PID.TID 0000.0001) %MON forcing_empmr_mean           =   4.6568178881037E-05
(PID.TID 0000.0001) %MON forcing_empmr_sd             =   1.1953620410426E-04
(PID.TID 0000.0001) %MON forcing_empmr_del2           =   4.3885005724983E-05
(PID.TID 0000.0001) %MON forcing_fu_max               =   3.4172829323465E-02
(PID.TID 0000.0001) %MON forcing_fu_min               =   3.0949432779711E-03
(PID.TID 0000.0001) %MON forcing_fu_mean              =   1.7642088072905E-02
(PID.TID 0000.0001) %MON forcing_fu_sd                =   9.5997677616856E-03
(PID.TID 0000.0001) %MON forcing_fu_del2              =   2.9266056617656E-03
(PID.TID 0000.0001) %MON forcing_fv_max               =   6.1217688997489E-04
(PID.TID 0000.0001) %MON forcing_fv_min               =  -1.3039972673874E-02
(PID.TID 0000.0001) %MON forcing_fv_mean              =  -3.7146821907385E-03
(PID.TID 0000.0001) %MON forcing_fv_sd                =   4.1503728407903E-03
(PID.TID 0000.0001) %MON forcing_fv_del2              =   5.8912401285748E-04
(PID.TID 0000.0001) %MON trAdv_CFL_u_max              =   2.9618782010726E-03
(PID.TID 0000.0001) %MON trAdv_CFL_v_max              =   1.8800474790038E-03
(PID.TID 0000.0001) %MON trAdv_CFL_w_max              =   4.1108027663968E-03
(PID.TID 0000.0001) %MON advcfl_uvel_max              =   9.5277085915827E-04
(PID.TID 0000.0001) %MON advcfl_vvel_max              =   8.5379635732302E-04
(PID.TID 0000.0001) %MON advcfl_wvel_max              =   3.5307601751783E-03
(PID.TID 0000.0001) %MON advcfl_W_hf_max              =   2.6500817171971E-03
(PID.TID 0000.0001) %MON pe_b_mean                    =   1.0826667228755E-05
(PID.TID 0000.0001) %MON ke_max                       =   1.4186009284797E-03
(PID.TID 0000.0001) %MON ke_mean                      =   2.1055631505977E-05
(PID.TID 0000.0001) %MON ke_vol                       =   2.0812333426156E+15
(PID.TID 0000.0001) %MON vort_r_min                   =  -4.9790648421695E-07
(PID.TID 0000.0001) %MON vort_r_max                   =   3.2905514343256E-07
(PID.TID 0000.0001) %MON vort_a_mean                  =   1.1459529858107E-04
(PID.TID 0000.0001) %MON vort_a_sd                    =   5.2714118070518E-06
(PID.TID 0000.0001) %MON vort_p_mean                  =   1.7066154994139E-04
(PID.TID 0000.0001) %MON vort_p_sd                    =   1.1051950823190E-04
(PID.TID 0000.0001) %MON surfExpan_theta_mean         =  -1.1384905233760E-06
(PID.TID 0000.0001) %MON surfExpan_salt_mean          =  -4.2776183332171E-05
(PID.TID 0000.0001) // =======================================================
(PID.TID 0000.0001) // End MONITOR dynamic field statistics
(PID.TID 0000.0001) // =======================================================
(PID.TID 0000.0001) // =======================================================
(PID.TID 0000.0001) // Begin OBCS MONITOR field statistics
(PID.TID 0000.0001) // =======================================================
(PID.TID 0000.0001) %MON obc_E_uVel_max               =   1.5055320225656E-02
(PID.TID 0000.0001) %MON obc_E_uVel_min               =  -2.1006641909480E-02
(PID.TID 0000.0001) %MON obc_E_uVel_mean              =  -2.1921387422590E-04
(PID.TID 0000.0001) %MON obc_E_uVel_sd                =   4.1936629969897E-03
(PID.TID 0000.0001) %MON obc_E_uVel_Int               =  -4.5265249023083E+05
(PID.TID 0000.0001) %MON obc_W_uVel_max               =   7.8391525894403E-03
(PID.TID 0000.0001) %MON obc_W_uVel_min               =  -2.1544605493546E-02
(PID.TID 0000.0001) %MON obc_W_uVel_mean              =  -1.0906891161889E-03
(PID.TID 0000.0001) %MON obc_W_uVel_sd                =   4.9947514808017E-03
(PID.TID 0000.0001) %MON obc_W_uVel_Int               =  -1.2613026011731E+05
(PID.TID 0000.0001) %MON obc_N_vVel_max               =   1.5023468062282E-02
(PID.TID 0000.0001) %MON obc_N_vVel_min               =  -3.2323099672794E-02
(PID.TID 0000.0001) %MON obc_N_vVel_mean              =   9.5606983554948E-04
(PID.TID 0000.0001) %MON obc_N_vVel_sd                =   8.2692207921070E-03
(PID.TID 0000.0001) %MON obc_N_vVel_Int               =   1.2544593597258E+05
(PID.TID 0000.0001) %MON obc_S_vVel_max               =   6.1266624834388E-04
(PID.TID 0000.0001) %MON obc_S_vVel_min               =  -4.8755627125502E-02
(PID.TID 0000.0001) %MON obc_S_vVel_mean              =  -2.0193710843611E-03
(PID.TID 0000.0001) %MON obc_S_vVel_sd                =   5.0054242958188E-03
(PID.TID 0000.0001) %MON obc_S_vVel_Int               =  -1.7564124718369E+06
(PID.TID 0000.0001) // =======================================================
(PID.TID 0000.0001) // End OBCS MONITOR field statistics
(PID.TID 0000.0001) // =======================================================
(PID.TID 0000.0001) // =======================================================
(PID.TID 0000.0001) // Begin MONITOR SEAICE statistics
(PID.TID 0000.0001) // =======================================================
(PID.TID 0000.0001) %MON seaice_tsnumber              =                     4
(PID.TID 0000.0001) %MON seaice_time_sec              =   1.4400000000000E+04
(PID.TID 0000.0001) %MON seaice_uice_max              =   1.3980426290078E-01
(PID.TID 0000.0001) %MON seaice_uice_min              =  -3.7903269534509E-02
(PID.TID 0000.0001) %MON seaice_uice_mean             =   1.4282919782962E-02
(PID.TID 0000.0001) %MON seaice_uice_sd               =   2.9637521733558E-02
(PID.TID 0000.0001) %MON seaice_uice_del2             =   8.3461536854056E-03
(PID.TID 0000.0001) %MON seaice_vice_max              =   4.5028420575099E-02
(PID.TID 0000.0001) %MON seaice_vice_min              =  -8.7997624247624E-02
(PID.TID 0000.0001) %MON seaice_vice_mean             =  -2.2449280102050E-02
(PID.TID 0000.0001) %MON seaice_vice_sd               =   3.2459160810138E-02
(PID.TID 0000.0001) %MON seaice_vice_del2             =   5.8060034167729E-03
(PID.TID 0000.0001) %MON seaice_area_max              =   9.9882649544781E-01
(PID.TID 0000.0001) %MON seaice_area_min              =   0.0000000000000E+00
(PID.TID 0000.0001) %MON seaice_area_mean             =   3.3572871495406E-01
(PID.TID 0000.0001) %MON seaice_area_sd               =   4.1393303097915E-01
(PID.TID 0000.0001) %MON seaice_area_del2             =   7.1351238992972E-02
(PID.TID 0000.0001) %MON seaice_heff_max              =   4.6772390944930E-01
(PID.TID 0000.0001) %MON seaice_heff_min              =   0.0000000000000E+00
(PID.TID 0000.0001) %MON seaice_heff_mean             =   7.9051428723620E-02
(PID.TID 0000.0001) %MON seaice_heff_sd               =   1.1868625862591E-01
(PID.TID 0000.0001) %MON seaice_heff_del2             =   1.4126882103091E-02
(PID.TID 0000.0001) %MON seaice_hsnow_max             =   8.1740753802900E-02
(PID.TID 0000.0001) %MON seaice_hsnow_min             =   0.0000000000000E+00
(PID.TID 0000.0001) %MON seaice_hsnow_mean            =   1.7294041965486E-02
(PID.TID 0000.0001) %MON seaice_hsnow_sd              =   2.4845667311217E-02
(PID.TID 0000.0001) %MON seaice_hsnow_del2            =   4.2568398700104E-03
(PID.TID 0000.0001) %MON seaice_hsalt_max             =   0.0000000000000E+00
(PID.TID 0000.0001) %MON seaice_hsalt_min             =   0.0000000000000E+00
(PID.TID 0000.0001) %MON seaice_hsalt_mean            =   0.0000000000000E+00
(PID.TID 0000.0001) %MON seaice_hsalt_sd              =   0.0000000000000E+00
(PID.TID 0000.0001) %MON seaice_hsalt_del2            =   0.0000000000000E+00
(PID.TID 0000.0001) // =======================================================
(PID.TID 0000.0001) // End MONITOR SEAICE statistics
(PID.TID 0000.0001) // =======================================================
(PID.TID 0000.0001) // =======================================================
(PID.TID 0000.0001) // Begin MONITOR EXF statistics
(PID.TID 0000.0001) // =======================================================
(PID.TID 0000.0001) %MON exf_tsnumber                 =                     4
(PID.TID 0000.0001) %MON exf_time_sec                 =   1.4400000000000E+04
(PID.TID 0000.0001) %MON exf_ustress_max              =   3.4421587463099E-02
(PID.TID 0000.0001) %MON exf_ustress_min              =   3.8411754090791E-03
(PID.TID 0000.0001) %MON exf_ustress_mean             =   1.8057042717765E-02
(PID.TID 0000.0001) %MON exf_ustress_sd               =   9.7246429492888E-03
(PID.TID 0000.0001) %MON exf_ustress_del2             =   3.7532525449449E-03
(PID.TID 0000.0001) %MON exf_vstress_max              =   6.9013866373272E-03
(PID.TID 0000.0001) %MON exf_vstress_min              =  -1.4768694103007E-02
(PID.TID 0000.0001) %MON exf_vstress_mean             =  -1.4678376084476E-03
(PID.TID 0000.0001) %MON exf_vstress_sd               =   5.4748183463229E-03
(PID.TID 0000.0001) %MON exf_vstress_del2             =   2.5652444385948E-03
(PID.TID 0000.0001) %MON exf_hflux_max                =   3.0376741584158E+02
(PID.TID 0000.0001) %MON exf_hflux_min                =   1.7272274802785E+00
(PID.TID 0000.0001) %MON exf_hflux_mean               =   1.3258476900685E+02
(PID.TID 0000.0001) %MON exf_hflux_sd                 =   1.0767540189819E+02
(PID.TID 0000.0001) %MON exf_hflux_del2               =   5.2153890770962E+01
(PID.TID 0000.0001) %MON exf_sflux_max                =   8.9323532750252E-09
(PID.TID 0000.0001) %MON exf_sflux_min                =  -5.9066519850316E-08
(PID.TID 0000.0001) %MON exf_sflux_mean               =  -2.1054898416067E-08
(PID.TID 0000.0001) %MON exf_sflux_sd                 =   2.1998200203436E-08
(PID.TID 0000.0001) %MON exf_sflux_del2               =   1.0228403184476E-08
(PID.TID 0000.0001) %MON exf_uwind_max                =   5.3565802039996E+00
(PID.TID 0000.0001) %MON exf_uwind_min                =   6.3948269212832E-01
(PID.TID 0000.0001) %MON exf_uwind_mean               =   3.0571431350855E+00
(PID.TID 0000.0001) %MON exf_uwind_sd                 =   1.4704346511650E+00
(PID.TID 0000.0001) %MON exf_uwind_del2               =   6.0929151542209E-01
(PID.TID 0000.0001) %MON exf_vwind_max                =   1.1535080923734E+00
(PID.TID 0000.0001) %MON exf_vwind_min                =  -2.2664960858926E+00
(PID.TID 0000.0001) %MON exf_vwind_mean               =  -2.6306177898313E-01
(PID.TID 0000.0001) %MON exf_vwind_sd                 =   8.9540655929560E-01
(PID.TID 0000.0001) %MON exf_vwind_del2               =   4.2181725841542E-01
(PID.TID 0000.0001) %MON exf_wspeed_max               =   5.3919271239551E+00
(PID.TID 0000.0001) %MON exf_wspeed_min               =   1.2181431239673E+00
(PID.TID 0000.0001) %MON exf_wspeed_mean              =   3.2192480735527E+00
(PID.TID 0000.0001) %MON exf_wspeed_sd                =   1.4197529569138E+00
(PID.TID 0000.0001) %MON exf_wspeed_del2              =   6.6370556836059E-01
(PID.TID 0000.0001) %MON exf_atemp_max                =   2.7813589736021E+02
(PID.TID 0000.0001) %MON exf_atemp_min                =   2.5099280585617E+02
(PID.TID 0000.0001) %MON exf_atemp_mean               =   2.6467589546430E+02
(PID.TID 0000.0001) %MON exf_atemp_sd                 =   9.5037053955692E+00
(PID.TID 0000.0001) %MON exf_atemp_del2               =   4.4754089344737E+00
(PID.TID 0000.0001) %MON exf_aqh_max                  =   4.9583439885695E-03
(PID.TID 0000.0001) %MON exf_aqh_min                  =   8.9244517819610E-04
(PID.TID 0000.0001) %MON exf_aqh_mean                 =   2.4663067750694E-03
(PID.TID 0000.0001) %MON exf_aqh_sd                   =   1.2813670305131E-03
(PID.TID 0000.0001) %MON exf_aqh_del2                 =   6.0181312336198E-04
(PID.TID 0000.0001) %MON exf_lwflux_max               =   1.3441778640622E+02
(PID.TID 0000.0001) %MON exf_lwflux_min               =   4.4331030065242E+01
(PID.TID 0000.0001) %MON exf_lwflux_mean              =   8.5158995554075E+01
(PID.TID 0000.0001) %MON exf_lwflux_sd                =   3.4352833327865E+01
(PID.TID 0000.0001) %MON exf_lwflux_del2              =   1.7993440673438E+01
(PID.TID 0000.0001) %MON exf_evap_max                 =   2.7597846765327E-08
(PID.TID 0000.0001) %MON exf_evap_min                 =  -1.6218878208495E-09
(PID.TID 0000.0001) %MON exf_evap_mean                =   1.0973516094194E-08
(PID.TID 0000.0001) %MON exf_evap_sd                  =   8.4786644340366E-09
(PID.TID 0000.0001) %MON exf_evap_del2                =   3.8866302730102E-09
(PID.TID 0000.0001) %MON exf_precip_max               =   5.9484783233933E-08
(PID.TID 0000.0001) %MON exf_precip_min               =   7.4767954353598E-09
(PID.TID 0000.0001) %MON exf_precip_mean              =   3.2028414510261E-08
(PID.TID 0000.0001) %MON exf_precip_sd                =   1.5093444238404E-08
(PID.TID 0000.0001) %MON exf_precip_del2              =   6.8606601315283E-09
(PID.TID 0000.0001) %MON exf_swflux_max               =  -2.6096140062614E+01
(PID.TID 0000.0001) %MON exf_swflux_min               =  -4.2994991271222E+01
(PID.TID 0000.0001) %MON exf_swflux_mean              =  -3.3915698660746E+01
(PID.TID 0000.0001) %MON exf_swflux_sd                =   5.3506194880451E+00
(PID.TID 0000.0001) %MON exf_swflux_del2              =   3.0835246887711E+00
(PID.TID 0000.0001) %MON exf_swdown_max               =   4.7772212523580E+01
(PID.TID 0000.0001) %MON exf_swdown_min               =   2.8995711180682E+01
(PID.TID 0000.0001) %MON exf_swdown_mean              =   3.7684109623051E+01
(PID.TID 0000.0001) %MON exf_swdown_sd                =   5.9451327644946E+00
(PID.TID 0000.0001) %MON exf_swdown_del2              =   3.4261385430790E+00
(PID.TID 0000.0001) %MON exf_lwdown_max               =   2.8592223737539E+02
(PID.TID 0000.0001) %MON exf_lwdown_min               =   1.7391255158805E+02
(PID.TID 0000.0001) %MON exf_lwdown_mean              =   2.2892646711791E+02
(PID.TID 0000.0001) %MON exf_lwdown_sd                =   3.6584702678422E+01
(PID.TID 0000.0001) %MON exf_lwdown_del2              =   2.5134929152987E+01
(PID.TID 0000.0001) %MON exf_climsss_max              =   3.4650821831708E+01
(PID.TID 0000.0001) %MON exf_climsss_min              =   2.5641317419667E+01
(PID.TID 0000.0001) %MON exf_climsss_mean             =   3.1811735622041E+01
(PID.TID 0000.0001) %MON exf_climsss_sd               =   2.3420003113202E+00
(PID.TID 0000.0001) %MON exf_climsss_del2             =   9.6947994128286E-01
(PID.TID 0000.0001) // =======================================================
(PID.TID 0000.0001) // End MONITOR EXF statistics
(PID.TID 0000.0001) // =======================================================
 ph-ice B            4  -1.6167936166999199        0.0000000000000000        0.0000000000000000     
 ph-ice C            4   135113261201.50304     
 cg2d: Sum(rhs),rhsMax =   1.82393025165992E+00  4.43087549025086E-01
(PID.TID 0000.0001)      cg2d_init_res =   7.59677822143471E-02
(PID.TID 0000.0001)      cg2d_iters(min,last) =      -1      23
(PID.TID 0000.0001)      cg2d_last_res =   4.48197131845072E-13
(PID.TID 0000.0001) // =======================================================
(PID.TID 0000.0001) // Begin MONITOR dynamic field statistics
(PID.TID 0000.0001) // =======================================================
(PID.TID 0000.0001) %MON time_tsnumber                =                     5
(PID.TID 0000.0001) %MON time_secondsf                =   1.8000000000000E+04
(PID.TID 0000.0001) %MON dynstat_eta_max              =   2.9529412249288E-02
(PID.TID 0000.0001) %MON dynstat_eta_min              =  -1.2056794651039E-01
(PID.TID 0000.0001) %MON dynstat_eta_mean             =  -4.5688846493438E-02
(PID.TID 0000.0001) %MON dynstat_eta_sd               =   4.4291575509591E-02
(PID.TID 0000.0001) %MON dynstat_eta_del2             =   4.7180750676111E-03
(PID.TID 0000.0001) %MON dynstat_uvel_max             =   4.4642110125956E-02
(PID.TID 0000.0001) %MON dynstat_uvel_min             =  -2.8972107917070E-02
(PID.TID 0000.0001) %MON dynstat_uvel_mean            =   1.0881982338121E-04
(PID.TID 0000.0001) %MON dynstat_uvel_sd              =   5.2356463721607E-03
(PID.TID 0000.0001) %MON dynstat_uvel_del2            =   6.3959609441492E-04
(PID.TID 0000.0001) %MON dynstat_vvel_max             =   3.0990473960556E-02
(PID.TID 0000.0001) %MON dynstat_vvel_min             =  -5.2185349166393E-02
(PID.TID 0000.0001) %MON dynstat_vvel_mean            =  -8.6468871371369E-04
(PID.TID 0000.0001) %MON dynstat_vvel_sd              =   5.4864391306425E-03
(PID.TID 0000.0001) %MON dynstat_vvel_del2            =   5.6429285674417E-04
(PID.TID 0000.0001) %MON dynstat_wvel_max             =   6.6298931371321E-05
(PID.TID 0000.0001) %MON dynstat_wvel_min             =  -5.1569171035767E-05
(PID.TID 0000.0001) %MON dynstat_wvel_mean            =  -2.5823983550323E-06
(PID.TID 0000.0001) %MON dynstat_wvel_sd              =   1.8145369958397E-05
(PID.TID 0000.0001) %MON dynstat_wvel_del2            =   1.2834299832906E-06
(PID.TID 0000.0001) %MON dynstat_theta_max            =   6.0141707386386E+00
(PID.TID 0000.0001) %MON dynstat_theta_min            =  -1.8128473937786E+00
(PID.TID 0000.0001) %MON dynstat_theta_mean           =   3.1871860481295E+00
(PID.TID 0000.0001) %MON dynstat_theta_sd             =   7.9833172864520E-01
(PID.TID 0000.0001) %MON dynstat_theta_del2           =   4.3260184500706E-02
(PID.TID 0000.0001) %MON dynstat_salt_max             =   3.4939862112605E+01
(PID.TID 0000.0001) %MON dynstat_salt_min             =   3.2484306143676E+01
(PID.TID 0000.0001) %MON dynstat_salt_mean            =   3.4812208379502E+01
(PID.TID 0000.0001) %MON dynstat_salt_sd              =   3.1535537650192E-01
(PID.TID 0000.0001) %MON dynstat_salt_del2            =   9.5051946317880E-03
(PID.TID 0000.0001) %MON forcing_qnet_max             =   3.0376741584158E+02
(PID.TID 0000.0001) %MON forcing_qnet_min             =  -7.9658051251344E+00
(PID.TID 0000.0001) %MON forcing_qnet_mean            =   7.9144673497430E+01
(PID.TID 0000.0001) %MON forcing_qnet_sd              =   1.0449716009755E+02
(PID.TID 0000.0001) %MON forcing_qnet_del2            =   4.0515005759041E+01
(PID.TID 0000.0001) %MON forcing_qsw_max              =  -3.7493997940389E-02
(PID.TID 0000.0001) %MON forcing_qsw_min              =  -4.2994991271222E+01
(PID.TID 0000.0001) %MON forcing_qsw_mean             =  -2.3740043091419E+01
(PID.TID 0000.0001) %MON forcing_qsw_sd               =   1.5626203077359E+01
(PID.TID 0000.0001) %MON forcing_qsw_del2             =   2.4698588350736E+00
(PID.TID 0000.0001) %MON forcing_empmr_max            =   3.1312462819883E-04
(PID.TID 0000.0001) %MON forcing_empmr_min            =  -7.7223969314849E-05
(PID.TID 0000.0001) %MON forcing_empmr_mean           =   4.3692525625336E-05
(PID.TID 0000.0001) %MON forcing_empmr_sd             =   1.1533405846146E-04
(PID.TID 0000.0001) %MON forcing_empmr_del2           =   4.2420190184554E-05
(PID.TID 0000.0001) %MON forcing_fu_max               =   3.4127875619191E-02
(PID.TID 0000.0001) %MON forcing_fu_min               =   3.0636584248502E-03
(PID.TID 0000.0001) %MON forcing_fu_mean              =   1.7461612435278E-02
(PID.TID 0000.0001) %MON forcing_fu_sd                =   9.7200371856670E-03
(PID.TID 0000.0001) %MON forcing_fu_del2              =   2.9408444659324E-03
(PID.TID 0000.0001) %MON forcing_fv_max               =   6.0817840542517E-04
(PID.TID 0000.0001) %MON forcing_fv_min               =  -1.2147735670221E-02
(PID.TID 0000.0001) %MON forcing_fv_mean              =  -3.3982435854429E-03
(PID.TID 0000.0001) %MON forcing_fv_sd                =   3.7095906218919E-03
(PID.TID 0000.0001) %MON forcing_fv_del2              =   5.7448940556598E-04
(PID.TID 0000.0001) %MON trAdv_CFL_u_max              =   2.8134462622300E-03
(PID.TID 0000.0001) %MON trAdv_CFL_v_max              =   1.9278076917798E-03
(PID.TID 0000.0001) %MON trAdv_CFL_w_max              =   4.9022743796032E-03
(PID.TID 0000.0001) %MON advcfl_uvel_max              =   1.1015122468070E-03
(PID.TID 0000.0001) %MON advcfl_vvel_max              =   8.4476541631951E-04
(PID.TID 0000.0001) %MON advcfl_wvel_max              =   2.8436347974687E-03
(PID.TID 0000.0001) %MON advcfl_W_hf_max              =   3.4123617569624E-03
(PID.TID 0000.0001) %MON pe_b_mean                    =   1.1639019170132E-05
(PID.TID 0000.0001) %MON ke_max                       =   1.7383354709260E-03
(PID.TID 0000.0001) %MON ke_mean                      =   2.3490975170816E-05
(PID.TID 0000.0001) %MON ke_vol                       =   2.0812333426156E+15
(PID.TID 0000.0001) %MON vort_r_min                   =  -5.4753389054415E-07
(PID.TID 0000.0001) %MON vort_r_max                   =   3.2000025123629E-07
(PID.TID 0000.0001) %MON vort_a_mean                  =   1.1459532562613E-04
(PID.TID 0000.0001) %MON vort_a_sd                    =   5.2712115305012E-06
(PID.TID 0000.0001) %MON vort_p_mean                  =   1.7066159021837E-04
(PID.TID 0000.0001) %MON vort_p_sd                    =   1.1052025741241E-04
(PID.TID 0000.0001) %MON surfExpan_theta_mean         =   2.3416026657157E-07
(PID.TID 0000.0001) %MON surfExpan_salt_mean          =  -3.4653977506050E-05
(PID.TID 0000.0001) // =======================================================
(PID.TID 0000.0001) // End MONITOR dynamic field statistics
(PID.TID 0000.0001) // =======================================================
(PID.TID 0000.0001) // =======================================================
(PID.TID 0000.0001) // Begin OBCS MONITOR field statistics
(PID.TID 0000.0001) // =======================================================
(PID.TID 0000.0001) %MON obc_E_uVel_max               =   1.4708673581481E-02
(PID.TID 0000.0001) %MON obc_E_uVel_min               =  -2.8972107917070E-02
(PID.TID 0000.0001) %MON obc_E_uVel_mean              =  -3.8792793300792E-04
(PID.TID 0000.0001) %MON obc_E_uVel_sd                =   5.6631681590713E-03
(PID.TID 0000.0001) %MON obc_E_uVel_Int               =  -8.0102842726632E+05
(PID.TID 0000.0001) %MON obc_W_uVel_max               =   1.1476527899504E-02
(PID.TID 0000.0001) %MON obc_W_uVel_min               =  -2.4759428575635E-02
(PID.TID 0000.0001) %MON obc_W_uVel_mean              =  -1.0559115432373E-03
(PID.TID 0000.0001) %MON obc_W_uVel_sd                =   6.2974940898310E-03
(PID.TID 0000.0001) %MON obc_W_uVel_Int               =  -1.2210848685715E+05
(PID.TID 0000.0001) %MON obc_N_vVel_max               =   1.5576710924506E-02
(PID.TID 0000.0001) %MON obc_N_vVel_min               =  -3.2434400171041E-02
(PID.TID 0000.0001) %MON obc_N_vVel_mean              =   1.3336812241459E-03
(PID.TID 0000.0001) %MON obc_N_vVel_sd                =   8.4165221230421E-03
(PID.TID 0000.0001) %MON obc_N_vVel_Int               =   1.7499233134563E+05
(PID.TID 0000.0001) %MON obc_S_vVel_max               =   2.0488649606705E-03
(PID.TID 0000.0001) %MON obc_S_vVel_min               =  -5.2185349166393E-02
(PID.TID 0000.0001) %MON obc_S_vVel_mean              =  -2.0381438377289E-03
(PID.TID 0000.0001) %MON obc_S_vVel_sd                =   5.0853668829259E-03
(PID.TID 0000.0001) %MON obc_S_vVel_Int               =  -1.7727406734247E+06
(PID.TID 0000.0001) // =======================================================
(PID.TID 0000.0001) // End OBCS MONITOR field statistics
(PID.TID 0000.0001) // =======================================================
(PID.TID 0000.0001) // =======================================================
(PID.TID 0000.0001) // Begin MONITOR SEAICE statistics
(PID.TID 0000.0001) // =======================================================
(PID.TID 0000.0001) %MON seaice_tsnumber              =                     5
(PID.TID 0000.0001) %MON seaice_time_sec              =   1.8000000000000E+04
(PID.TID 0000.0001) %MON seaice_uice_max              =   1.3931916049441E-01
(PID.TID 0000.0001) %MON seaice_uice_min              =  -3.3758342816138E-02
(PID.TID 0000.0001) %MON seaice_uice_mean             =   1.4651125179918E-02
(PID.TID 0000.0001) %MON seaice_uice_sd               =   2.9373402382135E-02
(PID.TID 0000.0001) %MON seaice_uice_del2             =   8.2265157188016E-03
(PID.TID 0000.0001) %MON seaice_vice_max              =   4.3294637493677E-02
(PID.TID 0000.0001) %MON seaice_vice_min              =  -8.2320606537916E-02
(PID.TID 0000.0001) %MON seaice_vice_mean             =  -2.0799018018074E-02
(PID.TID 0000.0001) %MON seaice_vice_sd               =   3.0351846414646E-02
(PID.TID 0000.0001) %MON seaice_vice_del2             =   5.8937178020710E-03
(PID.TID 0000.0001) %MON seaice_area_max              =   9.9849356815074E-01
(PID.TID 0000.0001) %MON seaice_area_min              =   0.0000000000000E+00
(PID.TID 0000.0001) %MON seaice_area_mean             =   3.3587339987132E-01
(PID.TID 0000.0001) %MON seaice_area_sd               =   4.1392564846594E-01
(PID.TID 0000.0001) %MON seaice_area_del2             =   7.1216393066932E-02
(PID.TID 0000.0001) %MON seaice_heff_max              =   4.6856051644186E-01
(PID.TID 0000.0001) %MON seaice_heff_min              =   0.0000000000000E+00
(PID.TID 0000.0001) %MON seaice_heff_mean             =   7.9320954332828E-02
(PID.TID 0000.0001) %MON seaice_heff_sd               =   1.1892281339942E-01
(PID.TID 0000.0001) %MON seaice_heff_del2             =   1.4132653312731E-02
(PID.TID 0000.0001) %MON seaice_hsnow_max             =   8.1818383257592E-02
(PID.TID 0000.0001) %MON seaice_hsnow_min             =   0.0000000000000E+00
(PID.TID 0000.0001) %MON seaice_hsnow_mean            =   1.7392376574272E-02
(PID.TID 0000.0001) %MON seaice_hsnow_sd              =   2.4936218191781E-02
(PID.TID 0000.0001) %MON seaice_hsnow_del2            =   4.2718324742497E-03
(PID.TID 0000.0001) %MON seaice_hsalt_max             =   0.0000000000000E+00
(PID.TID 0000.0001) %MON seaice_hsalt_min             =   0.0000000000000E+00
(PID.TID 0000.0001) %MON seaice_hsalt_mean            =   0.0000000000000E+00
(PID.TID 0000.0001) %MON seaice_hsalt_sd              =   0.0000000000000E+00
(PID.TID 0000.0001) %MON seaice_hsalt_del2            =   0.0000000000000E+00
(PID.TID 0000.0001) // =======================================================
(PID.TID 0000.0001) // End MONITOR SEAICE statistics
(PID.TID 0000.0001) // =======================================================
(PID.TID 0000.0001) // =======================================================
(PID.TID 0000.0001) // Begin MONITOR EXF statistics
(PID.TID 0000.0001) // =======================================================
(PID.TID 0000.0001) %MON exf_tsnumber                 =                     5
(PID.TID 0000.0001) %MON exf_time_sec                 =   1.8000000000000E+04
(PID.TID 0000.0001) %MON exf_ustress_max              =   3.4378208445289E-02
(PID.TID 0000.0001) %MON exf_ustress_min              =   3.8429968767270E-03
(PID.TID 0000.0001) %MON exf_ustress_mean             =   1.8051663873954E-02
(PID.TID 0000.0001) %MON exf_ustress_sd               =   9.7157638651664E-03
(PID.TID 0000.0001) %MON exf_ustress_del2             =   3.7464730386769E-03
(PID.TID 0000.0001) %MON exf_vstress_max              =   6.8977990654012E-03
(PID.TID 0000.0001) %MON exf_vstress_min              =  -1.4804730508962E-02
(PID.TID 0000.0001) %MON exf_vstress_mean             =  -1.4758358358144E-03
(PID.TID 0000.0001) %MON exf_vstress_sd               =   5.4819605926072E-03
(PID.TID 0000.0001) %MON exf_vstress_del2             =   2.5681924386905E-03
(PID.TID 0000.0001) %MON exf_hflux_max                =   3.0384257685502E+02
(PID.TID 0000.0001) %MON exf_hflux_min                =   1.8669181523574E+00
(PID.TID 0000.0001) %MON exf_hflux_mean               =   1.3268053137932E+02
(PID.TID 0000.0001) %MON exf_hflux_sd                 =   1.0770197154670E+02
(PID.TID 0000.0001) %MON exf_hflux_del2               =   5.2163174941966E+01
(PID.TID 0000.0001) %MON exf_sflux_max                =   8.9722516776118E-09
(PID.TID 0000.0001) %MON exf_sflux_min                =  -5.9042197595885E-08
(PID.TID 0000.0001) %MON exf_sflux_mean               =  -2.1046818681012E-08
(PID.TID 0000.0001) %MON exf_sflux_sd                 =   2.2005952133667E-08
(PID.TID 0000.0001) %MON exf_sflux_del2               =   1.0232575998092E-08
(PID.TID 0000.0001) %MON exf_uwind_max                =   5.3540880608428E+00
(PID.TID 0000.0001) %MON exf_uwind_min                =   6.3975871757406E-01
(PID.TID 0000.0001) %MON exf_uwind_mean               =   3.0564067508130E+00
(PID.TID 0000.0001) %MON exf_uwind_sd                 =   1.4691093983507E+00
(PID.TID 0000.0001) %MON exf_uwind_del2               =   6.0836943056052E-01
(PID.TID 0000.0001) %MON exf_vwind_max                =   1.1527636143191E+00
(PID.TID 0000.0001) %MON exf_vwind_min                =  -2.2710745257269E+00
(PID.TID 0000.0001) %MON exf_vwind_mean               =  -2.6444838112862E-01
(PID.TID 0000.0001) %MON exf_vwind_sd                 =   8.9647348492279E-01
(PID.TID 0000.0001) %MON exf_vwind_del2               =   4.2231223664153E-01
(PID.TID 0000.0001) %MON exf_wspeed_max               =   5.3893105900161E+00
(PID.TID 0000.0001) %MON exf_wspeed_min               =   1.2183119202524E+00
(PID.TID 0000.0001) %MON exf_wspeed_mean              =   3.2188383271704E+00
(PID.TID 0000.0001) %MON exf_wspeed_sd                =   1.4186550425412E+00
(PID.TID 0000.0001) %MON exf_wspeed_del2              =   6.6296869507609E-01
(PID.TID 0000.0001) %MON exf_atemp_max                =   2.7812914217756E+02
(PID.TID 0000.0001) %MON exf_atemp_min                =   2.5098364495449E+02
(PID.TID 0000.0001) %MON exf_atemp_mean               =   2.6467134577275E+02
(PID.TID 0000.0001) %MON exf_atemp_sd                 =   9.5060895951796E+00
(PID.TID 0000.0001) %MON exf_atemp_del2               =   4.4770387957626E+00
(PID.TID 0000.0001) %MON exf_aqh_max                  =   4.9559626126499E-03
(PID.TID 0000.0001) %MON exf_aqh_min                  =   8.9180353208944E-04
(PID.TID 0000.0001) %MON exf_aqh_mean                 =   2.4656399609405E-03
(PID.TID 0000.0001) %MON exf_aqh_sd                   =   1.2812352511166E-03
(PID.TID 0000.0001) %MON exf_aqh_del2                 =   6.0185540517630E-04
(PID.TID 0000.0001) %MON exf_lwflux_max               =   1.3439916517968E+02
(PID.TID 0000.0001) %MON exf_lwflux_min               =   4.4351432950926E+01
(PID.TID 0000.0001) %MON exf_lwflux_mean              =   8.5174483129688E+01
(PID.TID 0000.0001) %MON exf_lwflux_sd                =   3.4348184716831E+01
(PID.TID 0000.0001) %MON exf_lwflux_del2              =   1.7989217202642E+01
(PID.TID 0000.0001) %MON exf_evap_max                 =   2.7616670633882E-08
(PID.TID 0000.0001) %MON exf_evap_min                 =  -1.6113174351027E-09
(PID.TID 0000.0001) %MON exf_evap_mean                =   1.0976861435964E-08
(PID.TID 0000.0001) %MON exf_evap_sd                  =   8.4774790480663E-09
(PID.TID 0000.0001) %MON exf_evap_del2                =   3.8863119723945E-09
(PID.TID 0000.0001) %MON exf_precip_max               =   5.9477944682351E-08
(PID.TID 0000.0001) %MON exf_precip_min               =   7.4642450932949E-09
(PID.TID 0000.0001) %MON exf_precip_mean              =   3.2023680116976E-08
(PID.TID 0000.0001) %MON exf_precip_sd                =   1.5099928326610E-08
(PID.TID 0000.0001) %MON exf_precip_del2              =   6.8643577377926E-09
(PID.TID 0000.0001) %MON exf_swflux_max               =  -2.6066290262097E+01
(PID.TID 0000.0001) %MON exf_swflux_min               =  -4.2949888857857E+01
(PID.TID 0000.0001) %MON exf_swflux_mean              =  -3.3878281912809E+01
(PID.TID 0000.0001) %MON exf_swflux_sd                =   5.3482693246481E+00
(PID.TID 0000.0001) %MON exf_swflux_del2              =   3.0798156977657E+00
(PID.TID 0000.0001) %MON exf_swdown_max               =   4.7722098730952E+01
(PID.TID 0000.0001) %MON exf_swdown_min               =   2.8962544735664E+01
(PID.TID 0000.0001) %MON exf_swdown_mean              =   3.7642535458676E+01
(PID.TID 0000.0001) %MON exf_swdown_sd                =   5.9425214718313E+00
(PID.TID 0000.0001) %MON exf_swdown_del2              =   3.4220174419619E+00
(PID.TID 0000.0001) %MON exf_lwdown_max               =   2.8588174721973E+02
(PID.TID 0000.0001) %MON exf_lwdown_min               =   1.7386589586018E+02
(PID.TID 0000.0001) %MON exf_lwdown_mean              =   2.2890429866532E+02
(PID.TID 0000.0001) %MON exf_lwdown_sd                =   3.6585588627253E+01
(PID.TID 0000.0001) %MON exf_lwdown_del2              =   2.5134654279117E+01
(PID.TID 0000.0001) %MON exf_climsss_max              =   3.4651366416222E+01
(PID.TID 0000.0001) %MON exf_climsss_min              =   2.5645130699450E+01
(PID.TID 0000.0001) %MON exf_climsss_mean             =   3.1813029319426E+01
(PID.TID 0000.0001) %MON exf_climsss_sd               =   2.3419428681841E+00
(PID.TID 0000.0001) %MON exf_climsss_del2             =   9.6966360338091E-01
(PID.TID 0000.0001) // =======================================================
(PID.TID 0000.0001) // End MONITOR EXF statistics
(PID.TID 0000.0001) // =======================================================
 ph-ice B            5  -1.6196520313477425        0.0000000000000000        0.0000000000000000     
 ph-ice C            5   162352802225.42188     
 cg2d: Sum(rhs),rhsMax =   1.93707784247266E+00  4.41599465002389E-01
(PID.TID 0000.0001)      cg2d_init_res =   3.22055482898265E-02
(PID.TID 0000.0001)      cg2d_iters(min,last) =      -1      23
(PID.TID 0000.0001)      cg2d_last_res =   2.73610930860092E-13
(PID.TID 0000.0001) // =======================================================
(PID.TID 0000.0001) // Begin MONITOR dynamic field statistics
(PID.TID 0000.0001) // =======================================================
(PID.TID 0000.0001) %MON time_tsnumber                =                     6
(PID.TID 0000.0001) %MON time_secondsf                =   2.1600000000000E+04
(PID.TID 0000.0001) %MON dynstat_eta_max              =   2.5398788201082E-02
(PID.TID 0000.0001) %MON dynstat_eta_min              =  -1.2147017276598E-01
(PID.TID 0000.0001) %MON dynstat_eta_mean             =  -4.8360193804975E-02
(PID.TID 0000.0001) %MON dynstat_eta_sd               =   4.3535074553133E-02
(PID.TID 0000.0001) %MON dynstat_eta_del2             =   4.6924824585392E-03
(PID.TID 0000.0001) %MON dynstat_uvel_max             =   5.0470145027047E-02
(PID.TID 0000.0001) %MON dynstat_uvel_min             =  -3.6727920174599E-02
(PID.TID 0000.0001) %MON dynstat_uvel_mean            =   3.2042148733442E-05
(PID.TID 0000.0001) %MON dynstat_uvel_sd              =   5.7926789244141E-03
(PID.TID 0000.0001) %MON dynstat_uvel_del2            =   7.2611627621745E-04
(PID.TID 0000.0001) %MON dynstat_vvel_max             =   3.3654458431756E-02
(PID.TID 0000.0001) %MON dynstat_vvel_min             =  -5.6353695690632E-02
(PID.TID 0000.0001) %MON dynstat_vvel_mean            =  -8.0421867409069E-04
(PID.TID 0000.0001) %MON dynstat_vvel_sd              =   5.7323923112423E-03
(PID.TID 0000.0001) %MON dynstat_vvel_del2            =   6.2059642216162E-04
(PID.TID 0000.0001) %MON dynstat_wvel_max             =   7.5073877697373E-05
(PID.TID 0000.0001) %MON dynstat_wvel_min             =  -5.9567331813237E-05
(PID.TID 0000.0001) %MON dynstat_wvel_mean            =  -3.4542503309158E-06
(PID.TID 0000.0001) %MON dynstat_wvel_sd              =   2.1303463004852E-05
(PID.TID 0000.0001) %MON dynstat_wvel_del2            =   1.4941671516735E-06
(PID.TID 0000.0001) %MON dynstat_theta_max            =   6.0141052982487E+00
(PID.TID 0000.0001) %MON dynstat_theta_min            =  -1.8117643205987E+00
(PID.TID 0000.0001) %MON dynstat_theta_mean           =   3.1871526063159E+00
(PID.TID 0000.0001) %MON dynstat_theta_sd             =   7.9834983191998E-01
(PID.TID 0000.0001) %MON dynstat_theta_del2           =   4.3260194912080E-02
(PID.TID 0000.0001) %MON dynstat_salt_max             =   3.4939861832203E+01
(PID.TID 0000.0001) %MON dynstat_salt_min             =   3.2484415948613E+01
(PID.TID 0000.0001) %MON dynstat_salt_mean            =   3.4812205273733E+01
(PID.TID 0000.0001) %MON dynstat_salt_sd              =   3.1534986218851E-01
(PID.TID 0000.0001) %MON dynstat_salt_del2            =   9.4963986626712E-03
(PID.TID 0000.0001) %MON forcing_qnet_max             =   3.0384257685502E+02
(PID.TID 0000.0001) %MON forcing_qnet_min             =  -7.9580094254769E+00
(PID.TID 0000.0001) %MON forcing_qnet_mean            =   7.9959742103327E+01
(PID.TID 0000.0001) %MON forcing_qnet_sd              =   1.0417676759085E+02
(PID.TID 0000.0001) %MON forcing_qnet_del2            =   4.0561632298308E+01
(PID.TID 0000.0001) %MON forcing_qsw_max              =  -4.6023166288960E-02
(PID.TID 0000.0001) %MON forcing_qsw_min              =  -4.2949888857857E+01
(PID.TID 0000.0001) %MON forcing_qsw_mean             =  -2.3710045957000E+01
(PID.TID 0000.0001) %MON forcing_qsw_sd               =   1.5610300469440E+01
(PID.TID 0000.0001) %MON forcing_qsw_del2             =   2.4624939281380E+00
(PID.TID 0000.0001) %MON forcing_empmr_max            =   3.0371993178158E-04
(PID.TID 0000.0001) %MON forcing_empmr_min            =  -7.7156472881639E-05
(PID.TID 0000.0001) %MON forcing_empmr_mean           =   4.1214670399251E-05
(PID.TID 0000.0001) %MON forcing_empmr_sd             =   1.1172398094663E-04
(PID.TID 0000.0001) %MON forcing_empmr_del2           =   4.1044170674225E-05
(PID.TID 0000.0001) %MON forcing_fu_max               =   3.4082973825790E-02
(PID.TID 0000.0001) %MON forcing_fu_min               =   2.2814895494829E-03
(PID.TID 0000.0001) %MON forcing_fu_mean              =   1.7373993632006E-02
(PID.TID 0000.0001) %MON forcing_fu_sd                =   9.8062754777984E-03
(PID.TID 0000.0001) %MON forcing_fu_del2              =   2.9674381589450E-03
(PID.TID 0000.0001) %MON forcing_fv_max               =   6.0418572876072E-04
(PID.TID 0000.0001) %MON forcing_fv_min               =  -1.1606189485422E-02
(PID.TID 0000.0001) %MON forcing_fv_mean              =  -3.1306904979569E-03
(PID.TID 0000.0001) %MON forcing_fv_sd                =   3.3835917105082E-03
(PID.TID 0000.0001) %MON forcing_fv_del2              =   5.5420962111132E-04
(PID.TID 0000.0001) %MON trAdv_CFL_u_max              =   2.7501455232330E-03
(PID.TID 0000.0001) %MON trAdv_CFL_v_max              =   1.9738409044466E-03
(PID.TID 0000.0001) %MON trAdv_CFL_w_max              =   5.2539006148966E-03
(PID.TID 0000.0001) %MON advcfl_uvel_max              =   1.2453148538132E-03
(PID.TID 0000.0001) %MON advcfl_vvel_max              =   9.1224172994318E-04
(PID.TID 0000.0001) %MON advcfl_wvel_max              =   3.2078878856854E-03
(PID.TID 0000.0001) %MON advcfl_W_hf_max              =   3.8494654628225E-03
(PID.TID 0000.0001) %MON pe_b_mean                    =   1.2170196879488E-05
(PID.TID 0000.0001) %MON ke_max                       =   2.1169114139206E-03
(PID.TID 0000.0001) %MON ke_mean                      =   2.6728476113374E-05
(PID.TID 0000.0001) %MON ke_vol                       =   2.0812333426156E+15
(PID.TID 0000.0001) %MON vort_r_min                   =  -5.9923058149366E-07
(PID.TID 0000.0001) %MON vort_r_max                   =   3.0496287427417E-07
(PID.TID 0000.0001) %MON vort_a_mean                  =   1.1459534918479E-04
(PID.TID 0000.0001) %MON vort_a_sd                    =   5.2710333288276E-06
(PID.TID 0000.0001) %MON vort_p_mean                  =   1.7066162530322E-04
(PID.TID 0000.0001) %MON vort_p_sd                    =   1.1052007717378E-04
(PID.TID 0000.0001) %MON surfExpan_theta_mean         =   4.4032771360628E-07
(PID.TID 0000.0001) %MON surfExpan_salt_mean          =  -2.4627839277722E-05
(PID.TID 0000.0001) // =======================================================
(PID.TID 0000.0001) // End MONITOR dynamic field statistics
(PID.TID 0000.0001) // =======================================================
(PID.TID 0000.0001) // =======================================================
(PID.TID 0000.0001) // Begin OBCS MONITOR field statistics
(PID.TID 0000.0001) // =======================================================
(PID.TID 0000.0001) %MON obc_E_uVel_max               =   1.5196190215647E-02
(PID.TID 0000.0001) %MON obc_E_uVel_min               =  -3.6727920174599E-02
(PID.TID 0000.0001) %MON obc_E_uVel_mean              =  -4.4418895776611E-04
(PID.TID 0000.0001) %MON obc_E_uVel_sd                =   7.1840489387000E-03
(PID.TID 0000.0001) %MON obc_E_uVel_Int               =  -9.1720124274008E+05
(PID.TID 0000.0001) %MON obc_W_uVel_max               =   1.8005758523941E-02
(PID.TID 0000.0001) %MON obc_W_uVel_min               =  -2.7252623811364E-02
(PID.TID 0000.0001) %MON obc_W_uVel_mean              =  -6.3465182588866E-04
(PID.TID 0000.0001) %MON obc_W_uVel_sd                =   7.6776894306928E-03
(PID.TID 0000.0001) %MON obc_W_uVel_Int               =  -7.3392865753505E+04
(PID.TID 0000.0001) %MON obc_N_vVel_max               =   1.5229964628816E-02
(PID.TID 0000.0001) %MON obc_N_vVel_min               =  -3.2034579664469E-02
(PID.TID 0000.0001) %MON obc_N_vVel_mean              =   1.1833664477493E-03
(PID.TID 0000.0001) %MON obc_N_vVel_sd                =   8.5601217363373E-03
(PID.TID 0000.0001) %MON obc_N_vVel_Int               =   1.5526952751432E+05
(PID.TID 0000.0001) %MON obc_S_vVel_max               =   4.4600074179471E-03
(PID.TID 0000.0001) %MON obc_S_vVel_min               =  -5.6353695690632E-02
(PID.TID 0000.0001) %MON obc_S_vVel_mean              =  -1.8315353998245E-03
(PID.TID 0000.0001) %MON obc_S_vVel_sd                =   5.2679812136830E-03
(PID.TID 0000.0001) %MON obc_S_vVel_Int               =  -1.5930363882973E+06
(PID.TID 0000.0001) // =======================================================
(PID.TID 0000.0001) // End OBCS MONITOR field statistics
(PID.TID 0000.0001) // =======================================================
(PID.TID 0000.0001) // =======================================================
(PID.TID 0000.0001) // Begin MONITOR SEAICE statistics
(PID.TID 0000.0001) // =======================================================
(PID.TID 0000.0001) %MON seaice_tsnumber              =                     6
(PID.TID 0000.0001) %MON seaice_time_sec              =   2.1600000000000E+04
(PID.TID 0000.0001) %MON seaice_uice_max              =   1.3899661101795E-01
(PID.TID 0000.0001) %MON seaice_uice_min              =  -2.9781245327720E-02
(PID.TID 0000.0001) %MON seaice_uice_mean             =   1.5263915242988E-02
(PID.TID 0000.0001) %MON seaice_uice_sd               =   2.9299314853327E-02
(PID.TID 0000.0001) %MON seaice_uice_del2             =   8.1784468831108E-03
(PID.TID 0000.0001) %MON seaice_vice_max              =   4.1501948194159E-02
(PID.TID 0000.0001) %MON seaice_vice_min              =  -8.4564784011626E-02
(PID.TID 0000.0001) %MON seaice_vice_mean             =  -1.9545686658993E-02
(PID.TID 0000.0001) %MON seaice_vice_sd               =   2.8642161314048E-02
(PID.TID 0000.0001) %MON seaice_vice_del2             =   5.9785299951842E-03
(PID.TID 0000.0001) %MON seaice_area_max              =   9.9816025650509E-01
(PID.TID 0000.0001) %MON seaice_area_min              =   0.0000000000000E+00
(PID.TID 0000.0001) %MON seaice_area_mean             =   3.3598482467560E-01
(PID.TID 0000.0001) %MON seaice_area_sd               =   4.1388441076522E-01
(PID.TID 0000.0001) %MON seaice_area_del2             =   7.1085059673442E-02
(PID.TID 0000.0001) %MON seaice_heff_max              =   4.6938222500332E-01
(PID.TID 0000.0001) %MON seaice_heff_min              =   0.0000000000000E+00
(PID.TID 0000.0001) %MON seaice_heff_mean             =   7.9578646691456E-02
(PID.TID 0000.0001) %MON seaice_heff_sd               =   1.1915132018965E-01
(PID.TID 0000.0001) %MON seaice_heff_del2             =   1.4141019379660E-02
(PID.TID 0000.0001) %MON seaice_hsnow_max             =   8.1894016437749E-02
(PID.TID 0000.0001) %MON seaice_hsnow_min             =   0.0000000000000E+00
(PID.TID 0000.0001) %MON seaice_hsnow_mean            =   1.7490126175216E-02
(PID.TID 0000.0001) %MON seaice_hsnow_sd              =   2.5026008212739E-02
(PID.TID 0000.0001) %MON seaice_hsnow_del2            =   4.2870321784853E-03
(PID.TID 0000.0001) %MON seaice_hsalt_max             =   0.0000000000000E+00
(PID.TID 0000.0001) %MON seaice_hsalt_min             =   0.0000000000000E+00
(PID.TID 0000.0001) %MON seaice_hsalt_mean            =   0.0000000000000E+00
(PID.TID 0000.0001) %MON seaice_hsalt_sd              =   0.0000000000000E+00
(PID.TID 0000.0001) %MON seaice_hsalt_del2            =   0.0000000000000E+00
(PID.TID 0000.0001) // =======================================================
(PID.TID 0000.0001) // End MONITOR SEAICE statistics
(PID.TID 0000.0001) // =======================================================
(PID.TID 0000.0001) %CHECKPOINT         6 ckptA
 --> f_ice     = 0.177293944179767D+12
(PID.TID 0000.0001)   early fc =  0.000000000000000D+00
(PID.TID 0000.0001)   local fc =  0.177293944179767D-03
(PID.TID 0000.0001)  global fc =  0.177293944179767D-03
(PID.TID 0000.0001) whio : write lev 2 rec   1
 ph-ice B            0  -1.6099159502251632        0.0000000000000000        0.0000000000000000     
 ph-ice C            0   26866466183.909428     
(PID.TID 0000.0001) SOLVE_FOR_PRESSURE: putPmEinXvector =    F
 cg2d: Sum(rhs),rhsMax =   1.60928057501076E+00  4.53911481785241E-01
 ph-ice B            1  -1.6113904977016018        0.0000000000000000        0.0000000000000000     
 ph-ice C            1   53815332522.571678     
 cg2d: Sum(rhs),rhsMax =   1.39505160191305E+00  4.42528481922167E-01
 ph-ice B            2  -1.6128879097782618        0.0000000000000000        0.0000000000000000     
 ph-ice C            2   80841603280.378983     
 cg2d: Sum(rhs),rhsMax =   1.53750147972917E+00  4.29674202516824E-01
 ph-ice B            3  -1.6145652712825660        0.0000000000000000        0.0000000000000000     
 ph-ice C            3   107941969017.64813     
 cg2d: Sum(rhs),rhsMax =   1.66300803566020E+00  4.46105399632518E-01
 ph-ice B            4  -1.6167936166999199        0.0000000000000000        0.0000000000000000     
 ph-ice C            4   135113261201.50304     
 cg2d: Sum(rhs),rhsMax =   1.82393025165992E+00  4.43087549025086E-01
(PID.TID 0000.0001) whio : write lev 2 rec   2
 ph-ice B            5  -1.6196520313477425        0.0000000000000000        0.0000000000000000     
 ph-ice C            5   162352802225.42188     
 cg2d: Sum(rhs),rhsMax =   1.93707784247266E+00  4.41599465002389E-01
(PID.TID 0000.0001) Did not write pickup because writePickupAtEnd = FALSE
 ph-ice B            5  -1.6196520313477425        0.0000000000000000        0.0000000000000000     
 ph-ice C            5   162352802225.42188     
 cg2d: Sum(rhs),rhsMax =   1.93707784247266E+00  4.41599465002389E-01
(PID.TID 0000.0001) Did not write pickup because writePickupAtEnd = FALSE
(PID.TID 0000.0001) Did not write pickup because writePickupAtEnd = FALSE
(PID.TID 0000.0001) // =======================================================
(PID.TID 0000.0001) // Begin AD_MONITOR dynamic field statistics
(PID.TID 0000.0001) // =======================================================
(PID.TID 0000.0001) %MON ad_time_tsnumber             =                     6
(PID.TID 0000.0001) %MON ad_time_secondsf             =   2.1600000000000E+04
(PID.TID 0000.0001) %MON ad_dynstat_adeta_max         =   0.0000000000000E+00
(PID.TID 0000.0001) %MON ad_dynstat_adeta_min         =   0.0000000000000E+00
(PID.TID 0000.0001) %MON ad_dynstat_adeta_mean        =   0.0000000000000E+00
(PID.TID 0000.0001) %MON ad_dynstat_adeta_sd          =   0.0000000000000E+00
(PID.TID 0000.0001) %MON ad_dynstat_adeta_del2        =   0.0000000000000E+00
(PID.TID 0000.0001) %MON ad_dynstat_aduvel_max        =   0.0000000000000E+00
(PID.TID 0000.0001) %MON ad_dynstat_aduvel_min        =   0.0000000000000E+00
(PID.TID 0000.0001) %MON ad_dynstat_aduvel_mean       =   0.0000000000000E+00
(PID.TID 0000.0001) %MON ad_dynstat_aduvel_sd         =   0.0000000000000E+00
(PID.TID 0000.0001) %MON ad_dynstat_aduvel_del2       =   0.0000000000000E+00
(PID.TID 0000.0001) %MON ad_dynstat_advvel_max        =   0.0000000000000E+00
(PID.TID 0000.0001) %MON ad_dynstat_advvel_min        =   0.0000000000000E+00
(PID.TID 0000.0001) %MON ad_dynstat_advvel_mean       =   0.0000000000000E+00
(PID.TID 0000.0001) %MON ad_dynstat_advvel_sd         =   0.0000000000000E+00
(PID.TID 0000.0001) %MON ad_dynstat_advvel_del2       =   0.0000000000000E+00
(PID.TID 0000.0001) %MON ad_dynstat_adwvel_max        =   0.0000000000000E+00
(PID.TID 0000.0001) %MON ad_dynstat_adwvel_min        =   0.0000000000000E+00
(PID.TID 0000.0001) %MON ad_dynstat_adwvel_mean       =   0.0000000000000E+00
(PID.TID 0000.0001) %MON ad_dynstat_adwvel_sd         =   0.0000000000000E+00
(PID.TID 0000.0001) %MON ad_dynstat_adwvel_del2       =   0.0000000000000E+00
(PID.TID 0000.0001) %MON ad_dynstat_adtheta_max       =   0.0000000000000E+00
(PID.TID 0000.0001) %MON ad_dynstat_adtheta_min       =   0.0000000000000E+00
(PID.TID 0000.0001) %MON ad_dynstat_adtheta_mean      =   0.0000000000000E+00
(PID.TID 0000.0001) %MON ad_dynstat_adtheta_sd        =   0.0000000000000E+00
(PID.TID 0000.0001) %MON ad_dynstat_adtheta_del2      =   0.0000000000000E+00
(PID.TID 0000.0001) %MON ad_dynstat_adsalt_max        =   0.0000000000000E+00
(PID.TID 0000.0001) %MON ad_dynstat_adsalt_min        =   0.0000000000000E+00
(PID.TID 0000.0001) %MON ad_dynstat_adsalt_mean       =   0.0000000000000E+00
(PID.TID 0000.0001) %MON ad_dynstat_adsalt_sd         =   0.0000000000000E+00
(PID.TID 0000.0001) %MON ad_dynstat_adsalt_del2       =   0.0000000000000E+00
(PID.TID 0000.0001) // =======================================================
(PID.TID 0000.0001) // End AD_MONITOR dynamic field statistics
(PID.TID 0000.0001) // =======================================================
(PID.TID 0000.0001) // =======================================================
(PID.TID 0000.0001) // Begin AD_MONITOR SEAICE statistics
(PID.TID 0000.0001) // =======================================================
(PID.TID 0000.0001) %MON ad_seaice_tsnumber           =                     6
(PID.TID 0000.0001) %MON ad_seaice_time_sec           =   2.1600000000000E+04
(PID.TID 0000.0001) %MON ad_seaice_aduice_max         =   0.0000000000000E+00
(PID.TID 0000.0001) %MON ad_seaice_aduice_min         =   0.0000000000000E+00
(PID.TID 0000.0001) %MON ad_seaice_aduice_mean        =   0.0000000000000E+00
(PID.TID 0000.0001) %MON ad_seaice_aduice_sd          =   0.0000000000000E+00
(PID.TID 0000.0001) %MON ad_seaice_aduice_del2        =   0.0000000000000E+00
(PID.TID 0000.0001) %MON ad_seaice_advice_max         =   0.0000000000000E+00
(PID.TID 0000.0001) %MON ad_seaice_advice_min         =   0.0000000000000E+00
(PID.TID 0000.0001) %MON ad_seaice_advice_mean        =   0.0000000000000E+00
(PID.TID 0000.0001) %MON ad_seaice_advice_sd          =   0.0000000000000E+00
(PID.TID 0000.0001) %MON ad_seaice_advice_del2        =   0.0000000000000E+00
(PID.TID 0000.0001) %MON ad_seaice_adarea_max         =   0.0000000000000E+00
(PID.TID 0000.0001) %MON ad_seaice_adarea_min         =   0.0000000000000E+00
(PID.TID 0000.0001) %MON ad_seaice_adarea_mean        =   0.0000000000000E+00
(PID.TID 0000.0001) %MON ad_seaice_adarea_sd          =   0.0000000000000E+00
(PID.TID 0000.0001) %MON ad_seaice_adarea_del2        =   0.0000000000000E+00
(PID.TID 0000.0001) %MON ad_seaice_adheff_max         =   0.0000000000000E+00
(PID.TID 0000.0001) %MON ad_seaice_adheff_min         =   0.0000000000000E+00
(PID.TID 0000.0001) %MON ad_seaice_adheff_mean        =   0.0000000000000E+00
(PID.TID 0000.0001) %MON ad_seaice_adheff_sd          =   0.0000000000000E+00
(PID.TID 0000.0001) %MON ad_seaice_adheff_del2        =   0.0000000000000E+00
(PID.TID 0000.0001) %MON ad_seaice_adhsnow_max        =   0.0000000000000E+00
(PID.TID 0000.0001) %MON ad_seaice_adhsnow_min        =   0.0000000000000E+00
(PID.TID 0000.0001) %MON ad_seaice_adhsnow_mean       =   0.0000000000000E+00
(PID.TID 0000.0001) %MON ad_seaice_adhsnow_sd         =   0.0000000000000E+00
(PID.TID 0000.0001) %MON ad_seaice_adhsnow_del2       =   0.0000000000000E+00
(PID.TID 0000.0001) %MON ad_seaice_adhsalt_max        =   0.0000000000000E+00
(PID.TID 0000.0001) %MON ad_seaice_adhsalt_min        =   0.0000000000000E+00
(PID.TID 0000.0001) %MON ad_seaice_adhsalt_mean       =   0.0000000000000E+00
(PID.TID 0000.0001) %MON ad_seaice_adhsalt_sd         =   0.0000000000000E+00
(PID.TID 0000.0001) %MON ad_seaice_adhsalt_del2       =   0.0000000000000E+00
(PID.TID 0000.0001) // =======================================================
(PID.TID 0000.0001) // End AD_MONITOR SEAICE statistics
(PID.TID 0000.0001) // =======================================================
 Calling cg2d from S/R CG2D_MAD
 cg2d: Sum(rhs),rhsMax =   0.00000000000000E+00  0.00000000000000E+00
(PID.TID 0000.0001) // =======================================================
(PID.TID 0000.0001) // Begin AD_MONITOR EXF statistics for iwhen =  3
(PID.TID 0000.0001) // =======================================================
(PID.TID 0000.0001) %MON ad_exf_tsnumber              =                     5
(PID.TID 0000.0001) %MON ad_exf_time_sec              =   1.8000000000000E+04
(PID.TID 0000.0001) %MON ad_exf_adfu_max              =   0.0000000000000E+00
(PID.TID 0000.0001) %MON ad_exf_adfu_min              =   0.0000000000000E+00
(PID.TID 0000.0001) %MON ad_exf_adfu_mean             =   0.0000000000000E+00
(PID.TID 0000.0001) %MON ad_exf_adfu_sd               =   0.0000000000000E+00
(PID.TID 0000.0001) %MON ad_exf_adfu_del2             =   0.0000000000000E+00
(PID.TID 0000.0001) %MON ad_exf_adfv_max              =   0.0000000000000E+00
(PID.TID 0000.0001) %MON ad_exf_adfv_min              =   0.0000000000000E+00
(PID.TID 0000.0001) %MON ad_exf_adfv_mean             =   0.0000000000000E+00
(PID.TID 0000.0001) %MON ad_exf_adfv_sd               =   0.0000000000000E+00
(PID.TID 0000.0001) %MON ad_exf_adfv_del2             =   0.0000000000000E+00
(PID.TID 0000.0001) %MON ad_exf_adqnet_max            =   0.0000000000000E+00
(PID.TID 0000.0001) %MON ad_exf_adqnet_min            =   0.0000000000000E+00
(PID.TID 0000.0001) %MON ad_exf_adqnet_mean           =   0.0000000000000E+00
(PID.TID 0000.0001) %MON ad_exf_adqnet_sd             =   0.0000000000000E+00
(PID.TID 0000.0001) %MON ad_exf_adqnet_del2           =   0.0000000000000E+00
(PID.TID 0000.0001) %MON ad_exf_adempmr_max           =   0.0000000000000E+00
(PID.TID 0000.0001) %MON ad_exf_adempmr_min           =   0.0000000000000E+00
(PID.TID 0000.0001) %MON ad_exf_adempmr_mean          =   0.0000000000000E+00
(PID.TID 0000.0001) %MON ad_exf_adempmr_sd            =   0.0000000000000E+00
(PID.TID 0000.0001) %MON ad_exf_adempmr_del2          =   0.0000000000000E+00
(PID.TID 0000.0001) %MON ad_exf_adqsw_max             =   0.0000000000000E+00
(PID.TID 0000.0001) %MON ad_exf_adqsw_min             =   0.0000000000000E+00
(PID.TID 0000.0001) %MON ad_exf_adqsw_mean            =   0.0000000000000E+00
(PID.TID 0000.0001) %MON ad_exf_adqsw_sd              =   0.0000000000000E+00
(PID.TID 0000.0001) %MON ad_exf_adqsw_del2            =   0.0000000000000E+00
(PID.TID 0000.0001) // =======================================================
(PID.TID 0000.0001) // End AD_MONITOR EXF statistics for iwhen =  3
(PID.TID 0000.0001) // =======================================================
 ph-ice B            0  -1.6099159502251632        0.0000000000000000        0.0000000000000000     
 ph-ice C            0   26866466183.909428     
(PID.TID 0000.0001) SOLVE_FOR_PRESSURE: putPmEinXvector =    F
 cg2d: Sum(rhs),rhsMax =   1.60928057501076E+00  4.53911481785241E-01
 ph-ice B            1  -1.6113904977016018        0.0000000000000000        0.0000000000000000     
 ph-ice C            1   53815332522.571678     
 cg2d: Sum(rhs),rhsMax =   1.39505160191305E+00  4.42528481922167E-01
 ph-ice B            2  -1.6128879097782618        0.0000000000000000        0.0000000000000000     
 ph-ice C            2   80841603280.378983     
 cg2d: Sum(rhs),rhsMax =   1.53750147972917E+00  4.29674202516824E-01
 ph-ice B            3  -1.6145652712825660        0.0000000000000000        0.0000000000000000     
 ph-ice C            3   107941969017.64813     
 cg2d: Sum(rhs),rhsMax =   1.66300803566020E+00  4.46105399632518E-01
 ph-ice B            4  -1.6167936166999199        0.0000000000000000        0.0000000000000000     
 ph-ice C            4   135113261201.50304     
 cg2d: Sum(rhs),rhsMax =   1.82393025165992E+00  4.43087549025086E-01
(PID.TID 0000.0001) // =======================================================
(PID.TID 0000.0001) // Begin AD_MONITOR dynamic field statistics
(PID.TID 0000.0001) // =======================================================
(PID.TID 0000.0001) %MON ad_time_tsnumber             =                     5
(PID.TID 0000.0001) %MON ad_time_secondsf             =   1.8000000000000E+04
(PID.TID 0000.0001) %MON ad_dynstat_adeta_max         =   6.1405015004580E-10
(PID.TID 0000.0001) %MON ad_dynstat_adeta_min         =  -1.0888862136779E-09
(PID.TID 0000.0001) %MON ad_dynstat_adeta_mean        =   8.2032498088082E-13
(PID.TID 0000.0001) %MON ad_dynstat_adeta_sd          =   2.3770355319587E-10
(PID.TID 0000.0001) %MON ad_dynstat_adeta_del2        =   6.4847185016608E-11
(PID.TID 0000.0001) %MON ad_dynstat_aduvel_max        =   4.8941140828337E-10
(PID.TID 0000.0001) %MON ad_dynstat_aduvel_min        =  -1.1998508772477E-08
(PID.TID 0000.0001) %MON ad_dynstat_aduvel_mean       =  -8.6643981745487E-12
(PID.TID 0000.0001) %MON ad_dynstat_aduvel_sd         =   2.4760997327685E-10
(PID.TID 0000.0001) %MON ad_dynstat_aduvel_del2       =   5.0766566955106E-11
(PID.TID 0000.0001) %MON ad_dynstat_advvel_max        =   8.2302603759016E-09
(PID.TID 0000.0001) %MON ad_dynstat_advvel_min        =  -5.5223145861097E-09
(PID.TID 0000.0001) %MON ad_dynstat_advvel_mean       =   5.1245674146370E-12
(PID.TID 0000.0001) %MON ad_dynstat_advvel_sd         =   2.0247487406080E-10
(PID.TID 0000.0001) %MON ad_dynstat_advvel_del2       =   4.8229227229726E-11
(PID.TID 0000.0001) %MON ad_dynstat_adwvel_max        =   0.0000000000000E+00
(PID.TID 0000.0001) %MON ad_dynstat_adwvel_min        =   0.0000000000000E+00
(PID.TID 0000.0001) %MON ad_dynstat_adwvel_mean       =   0.0000000000000E+00
(PID.TID 0000.0001) %MON ad_dynstat_adwvel_sd         =   0.0000000000000E+00
(PID.TID 0000.0001) %MON ad_dynstat_adwvel_del2       =   0.0000000000000E+00
(PID.TID 0000.0001) %MON ad_dynstat_adtheta_max       =   1.3651105372358E-09
(PID.TID 0000.0001) %MON ad_dynstat_adtheta_min       =  -1.9551620817625E-07
(PID.TID 0000.0001) %MON ad_dynstat_adtheta_mean      =  -1.0482734128531E-10
(PID.TID 0000.0001) %MON ad_dynstat_adtheta_sd        =   3.1359921842843E-09
(PID.TID 0000.0001) %MON ad_dynstat_adtheta_del2      =   1.4873821639765E-09
(PID.TID 0000.0001) %MON ad_dynstat_adsalt_max        =   0.0000000000000E+00
(PID.TID 0000.0001) %MON ad_dynstat_adsalt_min        =  -1.1284909354787E-08
(PID.TID 0000.0001) %MON ad_dynstat_adsalt_mean       =  -6.1053623242559E-12
(PID.TID 0000.0001) %MON ad_dynstat_adsalt_sd         =   1.8136953088299E-10
(PID.TID 0000.0001) %MON ad_dynstat_adsalt_del2       =   8.5832254822064E-11
(PID.TID 0000.0001) // =======================================================
(PID.TID 0000.0001) // End AD_MONITOR dynamic field statistics
(PID.TID 0000.0001) // =======================================================
(PID.TID 0000.0001) // =======================================================
(PID.TID 0000.0001) // Begin AD_MONITOR SEAICE statistics
(PID.TID 0000.0001) // =======================================================
(PID.TID 0000.0001) %MON ad_seaice_tsnumber           =                     5
(PID.TID 0000.0001) %MON ad_seaice_time_sec           =   1.8000000000000E+04
(PID.TID 0000.0001) %MON ad_seaice_aduice_max         =   1.3364543156072E-07
(PID.TID 0000.0001) %MON ad_seaice_aduice_min         =  -1.5778317172218E-08
(PID.TID 0000.0001) %MON ad_seaice_aduice_mean        =   4.8004287314909E-09
(PID.TID 0000.0001) %MON ad_seaice_aduice_sd          =   2.2679843417689E-08
(PID.TID 0000.0001) %MON ad_seaice_aduice_del2        =   8.4785208457720E-09
(PID.TID 0000.0001) %MON ad_seaice_advice_max         =   2.3409904089902E-09
(PID.TID 0000.0001) %MON ad_seaice_advice_min         =  -6.4829208851868E-08
(PID.TID 0000.0001) %MON ad_seaice_advice_mean        =  -3.2173122188061E-09
(PID.TID 0000.0001) %MON ad_seaice_advice_sd          =   1.1769426210020E-08
(PID.TID 0000.0001) %MON ad_seaice_advice_del2        =   4.6629499383283E-09
(PID.TID 0000.0001) %MON ad_seaice_adarea_max         =   1.3511214428217E-08
(PID.TID 0000.0001) %MON ad_seaice_adarea_min         =  -3.1982384903027E-08
(PID.TID 0000.0001) %MON ad_seaice_adarea_mean        =  -2.4632409228122E-09
(PID.TID 0000.0001) %MON ad_seaice_adarea_sd          =   7.4292181234897E-09
(PID.TID 0000.0001) %MON ad_seaice_adarea_del2        =   2.1289681816457E-09
(PID.TID 0000.0001) %MON ad_seaice_adheff_max         =   1.6460050204686E-05
(PID.TID 0000.0001) %MON ad_seaice_adheff_min         =  -7.6099892544196E-09
(PID.TID 0000.0001) %MON ad_seaice_adheff_mean        =   3.2576484362525E-06
(PID.TID 0000.0001) %MON ad_seaice_adheff_sd          =   4.1025996879993E-06
(PID.TID 0000.0001) %MON ad_seaice_adheff_del2        =   7.1252505684811E-07
(PID.TID 0000.0001) %MON ad_seaice_adhsnow_max        =   3.6101599486030E-10
(PID.TID 0000.0001) %MON ad_seaice_adhsnow_min        =  -1.0848994447317E-07
(PID.TID 0000.0001) %MON ad_seaice_adhsnow_mean       =  -1.2204831593856E-08
(PID.TID 0000.0001) %MON ad_seaice_adhsnow_sd         =   2.1636621201786E-08
(PID.TID 0000.0001) %MON ad_seaice_adhsnow_del2       =   7.6850279123377E-09
(PID.TID 0000.0001) %MON ad_seaice_adhsalt_max        =   0.0000000000000E+00
(PID.TID 0000.0001) %MON ad_seaice_adhsalt_min        =   0.0000000000000E+00
(PID.TID 0000.0001) %MON ad_seaice_adhsalt_mean       =   0.0000000000000E+00
(PID.TID 0000.0001) %MON ad_seaice_adhsalt_sd         =   0.0000000000000E+00
(PID.TID 0000.0001) %MON ad_seaice_adhsalt_del2       =   0.0000000000000E+00
(PID.TID 0000.0001) // =======================================================
(PID.TID 0000.0001) // End AD_MONITOR SEAICE statistics
(PID.TID 0000.0001) // =======================================================
 Calling cg2d from S/R CG2D_MAD
 cg2d: Sum(rhs),rhsMax =   6.93889390390723E-17  5.87535015997525E-13
(PID.TID 0000.0001) // =======================================================
(PID.TID 0000.0001) // Begin AD_MONITOR EXF statistics for iwhen =  3
(PID.TID 0000.0001) // =======================================================
(PID.TID 0000.0001) %MON ad_exf_tsnumber              =                     4
(PID.TID 0000.0001) %MON ad_exf_time_sec              =   1.4400000000000E+04
(PID.TID 0000.0001) %MON ad_exf_adfu_max              =   2.8214151223502E-08
(PID.TID 0000.0001) %MON ad_exf_adfu_min              =  -3.3170309051429E-09
(PID.TID 0000.0001) %MON ad_exf_adfu_mean             =   1.4641504734426E-09
(PID.TID 0000.0001) %MON ad_exf_adfu_sd               =   5.6784272067172E-09
(PID.TID 0000.0001) %MON ad_exf_adfu_del2             =   2.6428340378811E-09
(PID.TID 0000.0001) %MON ad_exf_adfv_max              =   1.9723145943626E-09
(PID.TID 0000.0001) %MON ad_exf_adfv_min              =  -1.3618253484376E-08
(PID.TID 0000.0001) %MON ad_exf_adfv_mean             =  -7.0621150888598E-10
(PID.TID 0000.0001) %MON ad_exf_adfv_sd               =   2.7914788985574E-09
(PID.TID 0000.0001) %MON ad_exf_adfv_del2             =   1.2787992072831E-09
(PID.TID 0000.0001) %MON ad_exf_adqnet_max            =   1.2263086458614E-11
(PID.TID 0000.0001) %MON ad_exf_adqnet_min            =  -1.9456336679985E-12
(PID.TID 0000.0001) %MON ad_exf_adqnet_mean           =   5.3861775662709E-13
(PID.TID 0000.0001) %MON ad_exf_adqnet_sd             =   1.8834878500274E-12
(PID.TID 0000.0001) %MON ad_exf_adqnet_del2           =   9.2084799318613E-13
(PID.TID 0000.0001) %MON ad_exf_adempmr_max           =   6.1327491499617E-09
(PID.TID 0000.0001) %MON ad_exf_adempmr_min           =  -4.7901585953211E-05
(PID.TID 0000.0001) %MON ad_exf_adempmr_mean          =  -1.3539052999257E-06
(PID.TID 0000.0001) %MON ad_exf_adempmr_sd            =   7.1966519902762E-06
(PID.TID 0000.0001) %MON ad_exf_adempmr_del2          =   3.9601928020826E-06
(PID.TID 0000.0001) %MON ad_exf_adqsw_max             =   1.3578783924965E-14
(PID.TID 0000.0001) %MON ad_exf_adqsw_min             =  -2.8234769090839E-12
(PID.TID 0000.0001) %MON ad_exf_adqsw_mean            =  -1.6334405935604E-13
(PID.TID 0000.0001) %MON ad_exf_adqsw_sd              =   4.2779358870855E-13
(PID.TID 0000.0001) %MON ad_exf_adqsw_del2            =   2.1062730049853E-13
(PID.TID 0000.0001) // =======================================================
(PID.TID 0000.0001) // End AD_MONITOR EXF statistics for iwhen =  3
(PID.TID 0000.0001) // =======================================================
(PID.TID 0000.0001) // =======================================================
(PID.TID 0000.0001) // Begin AD_MONITOR dynamic field statistics
(PID.TID 0000.0001) // =======================================================
(PID.TID 0000.0001) %MON ad_time_tsnumber             =                     4
(PID.TID 0000.0001) %MON ad_time_secondsf             =   1.4400000000000E+04
(PID.TID 0000.0001) %MON ad_dynstat_adeta_max         =   1.2749935119328E-09
(PID.TID 0000.0001) %MON ad_dynstat_adeta_min         =  -2.4869233059626E-09
(PID.TID 0000.0001) %MON ad_dynstat_adeta_mean        =   5.4678459269061E-12
(PID.TID 0000.0001) %MON ad_dynstat_adeta_sd          =   6.6384851357977E-10
(PID.TID 0000.0001) %MON ad_dynstat_adeta_del2        =   1.7123438656185E-10
(PID.TID 0000.0001) %MON ad_dynstat_aduvel_max        =   9.7021514271167E-08
(PID.TID 0000.0001) %MON ad_dynstat_aduvel_min        =  -9.2595505322833E-08
(PID.TID 0000.0001) %MON ad_dynstat_aduvel_mean       =  -1.3773766369839E-10
(PID.TID 0000.0001) %MON ad_dynstat_aduvel_sd         =   1.7583107723082E-09
(PID.TID 0000.0001) %MON ad_dynstat_aduvel_del2       =   7.8114549590802E-10
(PID.TID 0000.0001) %MON ad_dynstat_advvel_max        =   1.3269324240270E-07
(PID.TID 0000.0001) %MON ad_dynstat_advvel_min        =  -1.2980476566268E-07
(PID.TID 0000.0001) %MON ad_dynstat_advvel_mean       =  -8.4345423082755E-12
(PID.TID 0000.0001) %MON ad_dynstat_advvel_sd         =   2.8957996656663E-09
(PID.TID 0000.0001) %MON ad_dynstat_advvel_del2       =   1.2036769361303E-09
(PID.TID 0000.0001) %MON ad_dynstat_adwvel_max        =   5.3192523167950E-08
(PID.TID 0000.0001) %MON ad_dynstat_adwvel_min        =  -6.1124168893474E-08
(PID.TID 0000.0001) %MON ad_dynstat_adwvel_mean       =   1.1562365492405E-11
(PID.TID 0000.0001) %MON ad_dynstat_adwvel_sd         =   1.8765650583748E-09
(PID.TID 0000.0001) %MON ad_dynstat_adwvel_del2       =   6.8031692036046E-10
(PID.TID 0000.0001) %MON ad_dynstat_adtheta_max       =   3.8745149540644E-09
(PID.TID 0000.0001) %MON ad_dynstat_adtheta_min       =  -3.8711595082504E-07
(PID.TID 0000.0001) %MON ad_dynstat_adtheta_mean      =  -2.4156506189719E-10
(PID.TID 0000.0001) %MON ad_dynstat_adtheta_sd        =   5.9741807653280E-09
(PID.TID 0000.0001) %MON ad_dynstat_adtheta_del2      =   2.4882707814320E-09
(PID.TID 0000.0001) %MON ad_dynstat_adsalt_max        =   1.8927433977880E-06
(PID.TID 0000.0001) %MON ad_dynstat_adsalt_min        =  -1.8255734078097E-06
(PID.TID 0000.0001) %MON ad_dynstat_adsalt_mean       =  -1.2685526057340E-11
(PID.TID 0000.0001) %MON ad_dynstat_adsalt_sd         =   3.0752565368921E-08
(PID.TID 0000.0001) %MON ad_dynstat_adsalt_del2       =   1.6033566475112E-08
(PID.TID 0000.0001) // =======================================================
(PID.TID 0000.0001) // End AD_MONITOR dynamic field statistics
(PID.TID 0000.0001) // =======================================================
(PID.TID 0000.0001) // =======================================================
(PID.TID 0000.0001) // Begin AD_MONITOR SEAICE statistics
(PID.TID 0000.0001) // =======================================================
(PID.TID 0000.0001) %MON ad_seaice_tsnumber           =                     4
(PID.TID 0000.0001) %MON ad_seaice_time_sec           =   1.4400000000000E+04
(PID.TID 0000.0001) %MON ad_seaice_aduice_max         =   3.8456545870404E-07
(PID.TID 0000.0001) %MON ad_seaice_aduice_min         =  -4.5534556960198E-08
(PID.TID 0000.0001) %MON ad_seaice_aduice_mean        =   1.3035550842880E-08
(PID.TID 0000.0001) %MON ad_seaice_aduice_sd          =   6.3334982586259E-08
(PID.TID 0000.0001) %MON ad_seaice_aduice_del2        =   2.3753668916393E-08
(PID.TID 0000.0001) %MON ad_seaice_advice_max         =   3.5035162992547E-09
(PID.TID 0000.0001) %MON ad_seaice_advice_min         =  -1.7387427306398E-07
(PID.TID 0000.0001) %MON ad_seaice_advice_mean        =  -8.6408574495914E-09
(PID.TID 0000.0001) %MON ad_seaice_advice_sd          =   3.1340927852459E-08
(PID.TID 0000.0001) %MON ad_seaice_advice_del2        =   1.1787668476655E-08
(PID.TID 0000.0001) %MON ad_seaice_adarea_max         =   3.4519271705456E-08
(PID.TID 0000.0001) %MON ad_seaice_adarea_min         =  -9.5080277443152E-08
(PID.TID 0000.0001) %MON ad_seaice_adarea_mean        =  -7.4537869638582E-09
(PID.TID 0000.0001) %MON ad_seaice_adarea_sd          =   2.1175815549114E-08
(PID.TID 0000.0001) %MON ad_seaice_adarea_del2        =   5.9704494423044E-09
(PID.TID 0000.0001) %MON ad_seaice_adheff_max         =   3.2915842931039E-05
(PID.TID 0000.0001) %MON ad_seaice_adheff_min         =  -1.6586420029603E-08
(PID.TID 0000.0001) %MON ad_seaice_adheff_mean        =   6.5126148057457E-06
(PID.TID 0000.0001) %MON ad_seaice_adheff_sd          =   8.2014236398155E-06
(PID.TID 0000.0001) %MON ad_seaice_adheff_del2        =   1.4241343650422E-06
(PID.TID 0000.0001) %MON ad_seaice_adhsnow_max        =   5.6215226471568E-10
(PID.TID 0000.0001) %MON ad_seaice_adhsnow_min        =  -3.2513301681360E-07
(PID.TID 0000.0001) %MON ad_seaice_adhsnow_mean       =  -3.3328124709138E-08
(PID.TID 0000.0001) %MON ad_seaice_adhsnow_sd         =   6.1893323955071E-08
(PID.TID 0000.0001) %MON ad_seaice_adhsnow_del2       =   1.8911222431087E-08
(PID.TID 0000.0001) %MON ad_seaice_adhsalt_max        =   0.0000000000000E+00
(PID.TID 0000.0001) %MON ad_seaice_adhsalt_min        =   0.0000000000000E+00
(PID.TID 0000.0001) %MON ad_seaice_adhsalt_mean       =   0.0000000000000E+00
(PID.TID 0000.0001) %MON ad_seaice_adhsalt_sd         =   0.0000000000000E+00
(PID.TID 0000.0001) %MON ad_seaice_adhsalt_del2       =   0.0000000000000E+00
(PID.TID 0000.0001) // =======================================================
(PID.TID 0000.0001) // End AD_MONITOR SEAICE statistics
(PID.TID 0000.0001) // =======================================================
 Calling cg2d from S/R CG2D_MAD
 cg2d: Sum(rhs),rhsMax =  -1.18793863634892E-14  3.99204416107257E-12
(PID.TID 0000.0001) // =======================================================
(PID.TID 0000.0001) // Begin AD_MONITOR EXF statistics for iwhen =  3
(PID.TID 0000.0001) // =======================================================
(PID.TID 0000.0001) %MON ad_exf_tsnumber              =                     3
(PID.TID 0000.0001) %MON ad_exf_time_sec              =   1.0800000000000E+04
(PID.TID 0000.0001) %MON ad_exf_adfu_max              =   5.4926097163636E-08
(PID.TID 0000.0001) %MON ad_exf_adfu_min              =  -4.8890909009053E-09
(PID.TID 0000.0001) %MON ad_exf_adfu_mean             =   3.1175472192575E-09
(PID.TID 0000.0001) %MON ad_exf_adfu_sd               =   9.3466655070848E-09
(PID.TID 0000.0001) %MON ad_exf_adfu_del2             =   4.3904371020183E-09
(PID.TID 0000.0001) %MON ad_exf_adfv_max              =   3.1596087115420E-08
(PID.TID 0000.0001) %MON ad_exf_adfv_min              =  -5.9491702902001E-09
(PID.TID 0000.0001) %MON ad_exf_adfv_mean             =   3.6549110299351E-10
(PID.TID 0000.0001) %MON ad_exf_adfv_sd               =   5.7839487366929E-09
(PID.TID 0000.0001) %MON ad_exf_adfv_del2             =   2.5077160047599E-09
(PID.TID 0000.0001) %MON ad_exf_adqnet_max            =   3.3884077769728E-11
(PID.TID 0000.0001) %MON ad_exf_adqnet_min            =  -1.1697096673186E-12
(PID.TID 0000.0001) %MON ad_exf_adqnet_mean           =   1.6796563305045E-12
(PID.TID 0000.0001) %MON ad_exf_adqnet_sd             =   5.1382293830025E-12
(PID.TID 0000.0001) %MON ad_exf_adqnet_del2           =   2.5076576493572E-12
(PID.TID 0000.0001) %MON ad_exf_adempmr_max           =   8.8738170477074E-07
(PID.TID 0000.0001) %MON ad_exf_adempmr_min           =  -2.5592539578096E-05
(PID.TID 0000.0001) %MON ad_exf_adempmr_mean          =  -1.2953567636553E-06
(PID.TID 0000.0001) %MON ad_exf_adempmr_sd            =   3.9567606022126E-06
(PID.TID 0000.0001) %MON ad_exf_adempmr_del2          =   2.1967426389517E-06
(PID.TID 0000.0001) %MON ad_exf_adqsw_max             =   6.6666629739980E-13
(PID.TID 0000.0001) %MON ad_exf_adqsw_min             =  -7.7942501065842E-12
(PID.TID 0000.0001) %MON ad_exf_adqsw_mean            =  -4.1931399820076E-13
(PID.TID 0000.0001) %MON ad_exf_adqsw_sd              =   1.1940656138119E-12
(PID.TID 0000.0001) %MON ad_exf_adqsw_del2            =   5.8120112601461E-13
(PID.TID 0000.0001) // =======================================================
(PID.TID 0000.0001) // End AD_MONITOR EXF statistics for iwhen =  3
(PID.TID 0000.0001) // =======================================================
(PID.TID 0000.0001) // =======================================================
(PID.TID 0000.0001) // Begin AD_MONITOR dynamic field statistics
(PID.TID 0000.0001) // =======================================================
(PID.TID 0000.0001) %MON ad_time_tsnumber             =                     3
(PID.TID 0000.0001) %MON ad_time_secondsf             =   1.0800000000000E+04
(PID.TID 0000.0001) %MON ad_dynstat_adeta_max         =   7.6005557877177E-09
(PID.TID 0000.0001) %MON ad_dynstat_adeta_min         =  -5.8044925414907E-09
(PID.TID 0000.0001) %MON ad_dynstat_adeta_mean        =  -2.0768135620281E-11
(PID.TID 0000.0001) %MON ad_dynstat_adeta_sd          =   1.7895875366670E-09
(PID.TID 0000.0001) %MON ad_dynstat_adeta_del2        =   7.3527319652454E-10
(PID.TID 0000.0001) %MON ad_dynstat_aduvel_max        =   9.6389188456913E-08
(PID.TID 0000.0001) %MON ad_dynstat_aduvel_min        =  -9.1249338118646E-08
(PID.TID 0000.0001) %MON ad_dynstat_aduvel_mean       =   1.6671925134492E-10
(PID.TID 0000.0001) %MON ad_dynstat_aduvel_sd         =   1.9571542886148E-09
(PID.TID 0000.0001) %MON ad_dynstat_aduvel_del2       =   9.4052560741629E-10
(PID.TID 0000.0001) %MON ad_dynstat_advvel_max        =   1.8189289942165E-07
(PID.TID 0000.0001) %MON ad_dynstat_advvel_min        =  -1.8088363041187E-07
(PID.TID 0000.0001) %MON ad_dynstat_advvel_mean       =  -7.1507315120943E-10
(PID.TID 0000.0001) %MON ad_dynstat_advvel_sd         =   4.2109418954689E-09
(PID.TID 0000.0001) %MON ad_dynstat_advvel_del2       =   1.6054308724778E-09
(PID.TID 0000.0001) %MON ad_dynstat_adwvel_max        =   2.5137439007622E-06
(PID.TID 0000.0001) %MON ad_dynstat_adwvel_min        =  -3.6364987289143E-06
(PID.TID 0000.0001) %MON ad_dynstat_adwvel_mean       =  -2.4180902152598E-10
(PID.TID 0000.0001) %MON ad_dynstat_adwvel_sd         =   6.1423973401544E-08
(PID.TID 0000.0001) %MON ad_dynstat_adwvel_del2       =   2.3385144803607E-08
(PID.TID 0000.0001) %MON ad_dynstat_adtheta_max       =   7.3826982236111E-09
(PID.TID 0000.0001) %MON ad_dynstat_adtheta_min       =  -7.1370633780232E-07
(PID.TID 0000.0001) %MON ad_dynstat_adtheta_mean      =  -5.0424488507337E-10
(PID.TID 0000.0001) %MON ad_dynstat_adtheta_sd        =   1.1584791787069E-08
(PID.TID 0000.0001) %MON ad_dynstat_adtheta_del2      =   4.9237088221824E-09
(PID.TID 0000.0001) %MON ad_dynstat_adsalt_max        =   2.3624332968150E-06
(PID.TID 0000.0001) %MON ad_dynstat_adsalt_min        =  -2.2928662667108E-06
(PID.TID 0000.0001) %MON ad_dynstat_adsalt_mean       =  -1.4750451682109E-11
(PID.TID 0000.0001) %MON ad_dynstat_adsalt_sd         =   3.8776213491728E-08
(PID.TID 0000.0001) %MON ad_dynstat_adsalt_del2       =   2.0143200750307E-08
(PID.TID 0000.0001) // =======================================================
(PID.TID 0000.0001) // End AD_MONITOR dynamic field statistics
(PID.TID 0000.0001) // =======================================================
(PID.TID 0000.0001) // =======================================================
(PID.TID 0000.0001) // Begin AD_MONITOR SEAICE statistics
(PID.TID 0000.0001) // =======================================================
(PID.TID 0000.0001) %MON ad_seaice_tsnumber           =                     3
(PID.TID 0000.0001) %MON ad_seaice_time_sec           =   1.0800000000000E+04
(PID.TID 0000.0001) %MON ad_seaice_aduice_max         =   7.5809907737004E-07
(PID.TID 0000.0001) %MON ad_seaice_aduice_min         =  -9.2715768469008E-08
(PID.TID 0000.0001) %MON ad_seaice_aduice_mean        =   2.4153056374547E-08
(PID.TID 0000.0001) %MON ad_seaice_aduice_sd          =   1.2166822094238E-07
(PID.TID 0000.0001) %MON ad_seaice_aduice_del2        =   4.5900187605259E-08
(PID.TID 0000.0001) %MON ad_seaice_advice_max         =   4.5204390794499E-09
(PID.TID 0000.0001) %MON ad_seaice_advice_min         =  -3.7819390674822E-07
(PID.TID 0000.0001) %MON ad_seaice_advice_mean        =  -1.5401774835068E-08
(PID.TID 0000.0001) %MON ad_seaice_advice_sd          =   6.0689553487204E-08
(PID.TID 0000.0001) %MON ad_seaice_advice_del2        =   2.3089138423137E-08
(PID.TID 0000.0001) %MON ad_seaice_adarea_max         =   5.6330851432058E-08
(PID.TID 0000.0001) %MON ad_seaice_adarea_min         =  -1.7855550688993E-07
(PID.TID 0000.0001) %MON ad_seaice_adarea_mean        =  -1.4535676539026E-08
(PID.TID 0000.0001) %MON ad_seaice_adarea_sd          =   3.9336404272850E-08
(PID.TID 0000.0001) %MON ad_seaice_adarea_del2        =   1.0905566408979E-08
(PID.TID 0000.0001) %MON ad_seaice_adheff_max         =   4.9369069062840E-05
(PID.TID 0000.0001) %MON ad_seaice_adheff_min         =  -2.0229689147689E-07
(PID.TID 0000.0001) %MON ad_seaice_adheff_mean        =   9.7606197393000E-06
(PID.TID 0000.0001) %MON ad_seaice_adheff_sd          =   1.2299696812381E-05
(PID.TID 0000.0001) %MON ad_seaice_adheff_del2        =   2.1383480842081E-06
(PID.TID 0000.0001) %MON ad_seaice_adhsnow_max        =   1.9771110330538E-08
(PID.TID 0000.0001) %MON ad_seaice_adhsnow_min        =  -6.4797596643047E-07
(PID.TID 0000.0001) %MON ad_seaice_adhsnow_mean       =  -6.9571677109298E-08
(PID.TID 0000.0001) %MON ad_seaice_adhsnow_sd         =   1.2331772748757E-07
(PID.TID 0000.0001) %MON ad_seaice_adhsnow_del2       =   3.7805054644283E-08
(PID.TID 0000.0001) %MON ad_seaice_adhsalt_max        =   0.0000000000000E+00
(PID.TID 0000.0001) %MON ad_seaice_adhsalt_min        =   0.0000000000000E+00
(PID.TID 0000.0001) %MON ad_seaice_adhsalt_mean       =   0.0000000000000E+00
(PID.TID 0000.0001) %MON ad_seaice_adhsalt_sd         =   0.0000000000000E+00
(PID.TID 0000.0001) %MON ad_seaice_adhsalt_del2       =   0.0000000000000E+00
(PID.TID 0000.0001) // =======================================================
(PID.TID 0000.0001) // End AD_MONITOR SEAICE statistics
(PID.TID 0000.0001) // =======================================================
 Calling cg2d from S/R CG2D_MAD
 cg2d: Sum(rhs),rhsMax =  -1.35585986882347E-14  7.80352516745126E-12
(PID.TID 0000.0001) // =======================================================
(PID.TID 0000.0001) // Begin AD_MONITOR EXF statistics for iwhen =  3
(PID.TID 0000.0001) // =======================================================
(PID.TID 0000.0001) %MON ad_exf_tsnumber              =                     2
(PID.TID 0000.0001) %MON ad_exf_time_sec              =   7.2000000000000E+03
(PID.TID 0000.0001) %MON ad_exf_adfu_max              =   8.6848136192264E-08
(PID.TID 0000.0001) %MON ad_exf_adfu_min              =  -7.4548489572739E-09
(PID.TID 0000.0001) %MON ad_exf_adfu_mean             =   5.9490618047391E-09
(PID.TID 0000.0001) %MON ad_exf_adfu_sd               =   1.5960542592225E-08
(PID.TID 0000.0001) %MON ad_exf_adfu_del2             =   7.6640931381765E-09
(PID.TID 0000.0001) %MON ad_exf_adfv_max              =   3.6486720259148E-08
(PID.TID 0000.0001) %MON ad_exf_adfv_min              =  -1.5043742735734E-08
(PID.TID 0000.0001) %MON ad_exf_adfv_mean             =  -4.3878779310511E-10
(PID.TID 0000.0001) %MON ad_exf_adfv_sd               =   7.7344622540313E-09
(PID.TID 0000.0001) %MON ad_exf_adfv_del2             =   2.8928484768846E-09
(PID.TID 0000.0001) %MON ad_exf_adqnet_max            =   6.2246178845039E-11
(PID.TID 0000.0001) %MON ad_exf_adqnet_min            =  -3.1577892884342E-13
(PID.TID 0000.0001) %MON ad_exf_adqnet_mean           =   3.4529393947997E-12
(PID.TID 0000.0001) %MON ad_exf_adqnet_sd             =   9.4692797700674E-12
(PID.TID 0000.0001) %MON ad_exf_adqnet_del2           =   4.6436367929239E-12
(PID.TID 0000.0001) %MON ad_exf_adempmr_max           =   1.0459768225109E-06
(PID.TID 0000.0001) %MON ad_exf_adempmr_min           =  -7.5162254816209E-05
(PID.TID 0000.0001) %MON ad_exf_adempmr_mean          =  -3.2071495457564E-06
(PID.TID 0000.0001) %MON ad_exf_adempmr_sd            =   1.1399143490808E-05
(PID.TID 0000.0001) %MON ad_exf_adempmr_del2          =   6.3187596572281E-06
(PID.TID 0000.0001) %MON ad_exf_adqsw_max             =   9.5461269205193E-14
(PID.TID 0000.0001) %MON ad_exf_adqsw_min             =  -1.4302974642690E-11
(PID.TID 0000.0001) %MON ad_exf_adqsw_mean            =  -8.4249469701108E-13
(PID.TID 0000.0001) %MON ad_exf_adqsw_sd              =   2.1784835875041E-12
(PID.TID 0000.0001) %MON ad_exf_adqsw_del2            =   1.0688374950676E-12
(PID.TID 0000.0001) // =======================================================
(PID.TID 0000.0001) // End AD_MONITOR EXF statistics for iwhen =  3
(PID.TID 0000.0001) // =======================================================
(PID.TID 0000.0001) // =======================================================
(PID.TID 0000.0001) // Begin AD_MONITOR dynamic field statistics
(PID.TID 0000.0001) // =======================================================
(PID.TID 0000.0001) %MON ad_time_tsnumber             =                     2
(PID.TID 0000.0001) %MON ad_time_secondsf             =   7.2000000000000E+03
(PID.TID 0000.0001) %MON ad_dynstat_adeta_max         =   1.4371619885992E-08
(PID.TID 0000.0001) %MON ad_dynstat_adeta_min         =  -1.0597401056383E-08
(PID.TID 0000.0001) %MON ad_dynstat_adeta_mean        =  -9.9108244026759E-11
(PID.TID 0000.0001) %MON ad_dynstat_adeta_sd          =   3.4913321560608E-09
(PID.TID 0000.0001) %MON ad_dynstat_adeta_del2        =   1.4454561994222E-09
(PID.TID 0000.0001) %MON ad_dynstat_aduvel_max        =   1.9649660089907E-07
(PID.TID 0000.0001) %MON ad_dynstat_aduvel_min        =  -1.7548550311643E-07
(PID.TID 0000.0001) %MON ad_dynstat_aduvel_mean       =   8.5340567143593E-10
(PID.TID 0000.0001) %MON ad_dynstat_aduvel_sd         =   3.8424365037763E-09
(PID.TID 0000.0001) %MON ad_dynstat_aduvel_del2       =   1.7906347800802E-09
(PID.TID 0000.0001) %MON ad_dynstat_advvel_max        =   3.9164145580386E-07
(PID.TID 0000.0001) %MON ad_dynstat_advvel_min        =  -3.8967618894629E-07
(PID.TID 0000.0001) %MON ad_dynstat_advvel_mean       =  -1.5554845863054E-09
(PID.TID 0000.0001) %MON ad_dynstat_advvel_sd         =   8.9778443455487E-09
(PID.TID 0000.0001) %MON ad_dynstat_advvel_del2       =   3.5873998647717E-09
(PID.TID 0000.0001) %MON ad_dynstat_adwvel_max        =   2.6559252004593E-06
(PID.TID 0000.0001) %MON ad_dynstat_adwvel_min        =  -3.7629547207635E-06
(PID.TID 0000.0001) %MON ad_dynstat_adwvel_mean       =  -2.6002918517889E-10
(PID.TID 0000.0001) %MON ad_dynstat_adwvel_sd         =   6.4698427569697E-08
(PID.TID 0000.0001) %MON ad_dynstat_adwvel_del2       =   2.5301407592814E-08
(PID.TID 0000.0001) %MON ad_dynstat_adtheta_max       =   1.1794798720240E-08
(PID.TID 0000.0001) %MON ad_dynstat_adtheta_min       =  -1.0906978469758E-06
(PID.TID 0000.0001) %MON ad_dynstat_adtheta_mean      =  -7.8111679944758E-10
(PID.TID 0000.0001) %MON ad_dynstat_adtheta_sd        =   1.7143497415933E-08
(PID.TID 0000.0001) %MON ad_dynstat_adtheta_del2      =   7.0731865112440E-09
(PID.TID 0000.0001) %MON ad_dynstat_adsalt_max        =   4.4604551096475E-06
(PID.TID 0000.0001) %MON ad_dynstat_adsalt_min        =  -4.3019224133803E-06
(PID.TID 0000.0001) %MON ad_dynstat_adsalt_mean       =  -1.1150837462884E-11
(PID.TID 0000.0001) %MON ad_dynstat_adsalt_sd         =   7.3253737236225E-08
(PID.TID 0000.0001) %MON ad_dynstat_adsalt_del2       =   3.7913005466883E-08
(PID.TID 0000.0001) // =======================================================
(PID.TID 0000.0001) // End AD_MONITOR dynamic field statistics
(PID.TID 0000.0001) // =======================================================
(PID.TID 0000.0001) // =======================================================
(PID.TID 0000.0001) // Begin AD_MONITOR SEAICE statistics
(PID.TID 0000.0001) // =======================================================
(PID.TID 0000.0001) %MON ad_seaice_tsnumber           =                     2
(PID.TID 0000.0001) %MON ad_seaice_time_sec           =   7.2000000000000E+03
(PID.TID 0000.0001) %MON ad_seaice_aduice_max         =   1.2493919067474E-06
(PID.TID 0000.0001) %MON ad_seaice_aduice_min         =  -1.5306245796977E-07
(PID.TID 0000.0001) %MON ad_seaice_aduice_mean        =   3.7841215259752E-08
(PID.TID 0000.0001) %MON ad_seaice_aduice_sd          =   1.9641390361267E-07
(PID.TID 0000.0001) %MON ad_seaice_aduice_del2        =   7.4571475809835E-08
(PID.TID 0000.0001) %MON ad_seaice_advice_max         =   6.1187096129847E-09
(PID.TID 0000.0001) %MON ad_seaice_advice_min         =  -6.2795997293601E-07
(PID.TID 0000.0001) %MON ad_seaice_advice_mean        =  -2.2775174752786E-08
(PID.TID 0000.0001) %MON ad_seaice_advice_sd          =   9.6373268785232E-08
(PID.TID 0000.0001) %MON ad_seaice_advice_del2        =   3.7130588851374E-08
(PID.TID 0000.0001) %MON ad_seaice_adarea_max         =   7.0423830990203E-08
(PID.TID 0000.0001) %MON ad_seaice_adarea_min         =  -2.6995537052207E-07
(PID.TID 0000.0001) %MON ad_seaice_adarea_mean        =  -2.3606863764056E-08
(PID.TID 0000.0001) %MON ad_seaice_adarea_sd          =   5.9957206407645E-08
(PID.TID 0000.0001) %MON ad_seaice_adarea_del2        =   1.6482629149015E-08
(PID.TID 0000.0001) %MON ad_seaice_adheff_max         =   6.5821225898914E-05
(PID.TID 0000.0001) %MON ad_seaice_adheff_min         =  -2.2987698788920E-07
(PID.TID 0000.0001) %MON ad_seaice_adheff_mean        =   1.3006490991699E-05
(PID.TID 0000.0001) %MON ad_seaice_adheff_sd          =   1.6394641872517E-05
(PID.TID 0000.0001) %MON ad_seaice_adheff_del2        =   2.8459187588551E-06
(PID.TID 0000.0001) %MON ad_seaice_adhsnow_max        =   4.8745798153544E-08
(PID.TID 0000.0001) %MON ad_seaice_adhsnow_min        =  -1.0732151790876E-06
(PID.TID 0000.0001) %MON ad_seaice_adhsnow_mean       =  -1.1411880938797E-07
(PID.TID 0000.0001) %MON ad_seaice_adhsnow_sd         =   2.0383753116935E-07
(PID.TID 0000.0001) %MON ad_seaice_adhsnow_del2       =   6.2040192903125E-08
(PID.TID 0000.0001) %MON ad_seaice_adhsalt_max        =   0.0000000000000E+00
(PID.TID 0000.0001) %MON ad_seaice_adhsalt_min        =   0.0000000000000E+00
(PID.TID 0000.0001) %MON ad_seaice_adhsalt_mean       =   0.0000000000000E+00
(PID.TID 0000.0001) %MON ad_seaice_adhsalt_sd         =   0.0000000000000E+00
(PID.TID 0000.0001) %MON ad_seaice_adhsalt_del2       =   0.0000000000000E+00
(PID.TID 0000.0001) // =======================================================
(PID.TID 0000.0001) // End AD_MONITOR SEAICE statistics
(PID.TID 0000.0001) // =======================================================
 Calling cg2d from S/R CG2D_MAD
 cg2d: Sum(rhs),rhsMax =  -7.75768338456828E-14  1.22851285822741E-11
(PID.TID 0000.0001) // =======================================================
(PID.TID 0000.0001) // Begin AD_MONITOR EXF statistics for iwhen =  3
(PID.TID 0000.0001) // =======================================================
(PID.TID 0000.0001) %MON ad_exf_tsnumber              =                     1
(PID.TID 0000.0001) %MON ad_exf_time_sec              =   3.6000000000000E+03
(PID.TID 0000.0001) %MON ad_exf_adfu_max              =   1.7341870033675E-07
(PID.TID 0000.0001) %MON ad_exf_adfu_min              =  -1.3745150357585E-08
(PID.TID 0000.0001) %MON ad_exf_adfu_mean             =   1.8854892953081E-08
(PID.TID 0000.0001) %MON ad_exf_adfu_sd               =   4.4327268016713E-08
(PID.TID 0000.0001) %MON ad_exf_adfu_del2             =   1.5432038093101E-08
(PID.TID 0000.0001) %MON ad_exf_adfv_max              =   8.9453234628890E-08
(PID.TID 0000.0001) %MON ad_exf_adfv_min              =  -1.1468940251296E-07
(PID.TID 0000.0001) %MON ad_exf_adfv_mean             =  -3.0525254684509E-09
(PID.TID 0000.0001) %MON ad_exf_adfv_sd               =   2.5917853117343E-08
(PID.TID 0000.0001) %MON ad_exf_adfv_del2             =   1.0017052189772E-08
(PID.TID 0000.0001) %MON ad_exf_adqnet_max            =   9.3973911793017E-11
(PID.TID 0000.0001) %MON ad_exf_adqnet_min            =  -5.0943991322567E-12
(PID.TID 0000.0001) %MON ad_exf_adqnet_mean           =   5.0213928508573E-12
(PID.TID 0000.0001) %MON ad_exf_adqnet_sd             =   1.4465133271997E-11
(PID.TID 0000.0001) %MON ad_exf_adqnet_del2           =   6.9959245294865E-12
(PID.TID 0000.0001) %MON ad_exf_adempmr_max           =   2.7027706498416E-06
(PID.TID 0000.0001) %MON ad_exf_adempmr_min           =  -8.7838809733676E-05
(PID.TID 0000.0001) %MON ad_exf_adempmr_mean          =  -6.1518653206993E-06
(PID.TID 0000.0001) %MON ad_exf_adempmr_sd            =   1.6306469004065E-05
(PID.TID 0000.0001) %MON ad_exf_adempmr_del2          =   8.3348294916995E-06
(PID.TID 0000.0001) %MON ad_exf_adqsw_max             =   4.4895900026492E-13
(PID.TID 0000.0001) %MON ad_exf_adqsw_min             =  -2.1569185972971E-11
(PID.TID 0000.0001) %MON ad_exf_adqsw_mean            =  -1.1993688353587E-12
(PID.TID 0000.0001) %MON ad_exf_adqsw_sd              =   3.3071383670197E-12
(PID.TID 0000.0001) %MON ad_exf_adqsw_del2            =   1.6022796810456E-12
(PID.TID 0000.0001) // =======================================================
(PID.TID 0000.0001) // End AD_MONITOR EXF statistics for iwhen =  3
(PID.TID 0000.0001) // =======================================================
(PID.TID 0000.0001) // =======================================================
(PID.TID 0000.0001) // Begin AD_MONITOR dynamic field statistics
(PID.TID 0000.0001) // =======================================================
(PID.TID 0000.0001) %MON ad_time_tsnumber             =                     1
(PID.TID 0000.0001) %MON ad_time_secondsf             =   3.6000000000000E+03
(PID.TID 0000.0001) %MON ad_dynstat_adeta_max         =   2.2048499119872E-08
(PID.TID 0000.0001) %MON ad_dynstat_adeta_min         =  -1.5862806917982E-08
(PID.TID 0000.0001) %MON ad_dynstat_adeta_mean        =  -2.3047090269365E-10
(PID.TID 0000.0001) %MON ad_dynstat_adeta_sd          =   5.7342268042946E-09
(PID.TID 0000.0001) %MON ad_dynstat_adeta_del2        =   2.2798793372300E-09
(PID.TID 0000.0001) %MON ad_dynstat_aduvel_max        =   2.3000893047246E-07
(PID.TID 0000.0001) %MON ad_dynstat_aduvel_min        =  -3.1142861375448E-07
(PID.TID 0000.0001) %MON ad_dynstat_aduvel_mean       =   1.4534983398874E-09
(PID.TID 0000.0001) %MON ad_dynstat_aduvel_sd         =   6.6837133566920E-09
(PID.TID 0000.0001) %MON ad_dynstat_aduvel_del2       =   2.9308919930312E-09
(PID.TID 0000.0001) %MON ad_dynstat_advvel_max        =   6.6870174651643E-07
(PID.TID 0000.0001) %MON ad_dynstat_advvel_min        =  -6.5886164481078E-07
(PID.TID 0000.0001) %MON ad_dynstat_advvel_mean       =  -2.5271262437107E-09
(PID.TID 0000.0001) %MON ad_dynstat_advvel_sd         =   1.5559341934356E-08
(PID.TID 0000.0001) %MON ad_dynstat_advvel_del2       =   6.1769984605363E-09
(PID.TID 0000.0001) %MON ad_dynstat_adwvel_max        =   7.7804678791169E-06
(PID.TID 0000.0001) %MON ad_dynstat_adwvel_min        =  -1.1155739350402E-05
(PID.TID 0000.0001) %MON ad_dynstat_adwvel_mean       =  -9.6887991960330E-10
(PID.TID 0000.0001) %MON ad_dynstat_adwvel_sd         =   1.8712225412409E-07
(PID.TID 0000.0001) %MON ad_dynstat_adwvel_del2       =   7.3767934640676E-08
(PID.TID 0000.0001) %MON ad_dynstat_adtheta_max       =   1.7477923442160E-08
(PID.TID 0000.0001) %MON ad_dynstat_adtheta_min       =  -1.4658053775163E-06
(PID.TID 0000.0001) %MON ad_dynstat_adtheta_mean      =  -1.0852577712785E-09
(PID.TID 0000.0001) %MON ad_dynstat_adtheta_sd        =   2.2857515609542E-08
(PID.TID 0000.0001) %MON ad_dynstat_adtheta_del2      =   9.1125652502641E-09
(PID.TID 0000.0001) %MON ad_dynstat_adsalt_max        =   6.4954367748742E-06
(PID.TID 0000.0001) %MON ad_dynstat_adsalt_min        =  -6.2466506440775E-06
(PID.TID 0000.0001) %MON ad_dynstat_adsalt_mean       =   7.5065559501164E-11
(PID.TID 0000.0001) %MON ad_dynstat_adsalt_sd         =   1.1241796278419E-07
(PID.TID 0000.0001) %MON ad_dynstat_adsalt_del2       =   5.7175325833667E-08
(PID.TID 0000.0001) // =======================================================
(PID.TID 0000.0001) // End AD_MONITOR dynamic field statistics
(PID.TID 0000.0001) // =======================================================
(PID.TID 0000.0001) // =======================================================
(PID.TID 0000.0001) // Begin AD_MONITOR SEAICE statistics
(PID.TID 0000.0001) // =======================================================
(PID.TID 0000.0001) %MON ad_seaice_tsnumber           =                     1
(PID.TID 0000.0001) %MON ad_seaice_time_sec           =   3.6000000000000E+03
(PID.TID 0000.0001) %MON ad_seaice_aduice_max         =   1.8831158074725E-06
(PID.TID 0000.0001) %MON ad_seaice_aduice_min         =  -1.6658045683981E-07
(PID.TID 0000.0001) %MON ad_seaice_aduice_mean        =   5.9085878092364E-08
(PID.TID 0000.0001) %MON ad_seaice_aduice_sd          =   2.8594583214680E-07
(PID.TID 0000.0001) %MON ad_seaice_aduice_del2        =   1.0833170903752E-07
(PID.TID 0000.0001) %MON ad_seaice_advice_max         =   1.8140703154583E-08
(PID.TID 0000.0001) %MON ad_seaice_advice_min         =  -9.4255846809734E-07
(PID.TID 0000.0001) %MON ad_seaice_advice_mean        =  -3.1768990381447E-08
(PID.TID 0000.0001) %MON ad_seaice_advice_sd          =   1.4042375120542E-07
(PID.TID 0000.0001) %MON ad_seaice_advice_del2        =   5.3600999587511E-08
(PID.TID 0000.0001) %MON ad_seaice_adarea_max         =   7.4586130991268E-08
(PID.TID 0000.0001) %MON ad_seaice_adarea_min         =  -3.3126109473419E-07
(PID.TID 0000.0001) %MON ad_seaice_adarea_mean        =  -3.3638191587518E-08
(PID.TID 0000.0001) %MON ad_seaice_adarea_sd          =   7.8306309605726E-08
(PID.TID 0000.0001) %MON ad_seaice_adarea_del2        =   2.1676532099855E-08
(PID.TID 0000.0001) %MON ad_seaice_adheff_max         =   8.2278707349661E-05
(PID.TID 0000.0001) %MON ad_seaice_adheff_min         =  -6.0513277596642E-07
(PID.TID 0000.0001) %MON ad_seaice_adheff_mean        =   1.6248325204091E-05
(PID.TID 0000.0001) %MON ad_seaice_adheff_sd          =   2.0490343769959E-05
(PID.TID 0000.0001) %MON ad_seaice_adheff_del2        =   3.5602977714941E-06
(PID.TID 0000.0001) %MON ad_seaice_adhsnow_max        =   1.2784709043818E-07
(PID.TID 0000.0001) %MON ad_seaice_adhsnow_min        =  -1.4943552969682E-06
(PID.TID 0000.0001) %MON ad_seaice_adhsnow_mean       =  -1.6765200782838E-07
(PID.TID 0000.0001) %MON ad_seaice_adhsnow_sd         =   2.9473763300606E-07
(PID.TID 0000.0001) %MON ad_seaice_adhsnow_del2       =   8.7919171882496E-08
(PID.TID 0000.0001) %MON ad_seaice_adhsalt_max        =   0.0000000000000E+00
(PID.TID 0000.0001) %MON ad_seaice_adhsalt_min        =   0.0000000000000E+00
(PID.TID 0000.0001) %MON ad_seaice_adhsalt_mean       =   0.0000000000000E+00
(PID.TID 0000.0001) %MON ad_seaice_adhsalt_sd         =   0.0000000000000E+00
(PID.TID 0000.0001) %MON ad_seaice_adhsalt_del2       =   0.0000000000000E+00
(PID.TID 0000.0001) // =======================================================
(PID.TID 0000.0001) // End AD_MONITOR SEAICE statistics
(PID.TID 0000.0001) // =======================================================
 Calling cg2d from S/R CG2D_MAD
 cg2d: Sum(rhs),rhsMax =  -7.76045894212984E-14  1.75518776329508E-11
(PID.TID 0000.0001) // =======================================================
(PID.TID 0000.0001) // Begin AD_MONITOR EXF statistics for iwhen =  3
(PID.TID 0000.0001) // =======================================================
(PID.TID 0000.0001) %MON ad_exf_tsnumber              =                     0
(PID.TID 0000.0001) %MON ad_exf_time_sec              =   0.0000000000000E+00
(PID.TID 0000.0001) %MON ad_exf_adfu_max              =   2.6135075523069E-07
(PID.TID 0000.0001) %MON ad_exf_adfu_min              =  -6.9143079725649E-08
(PID.TID 0000.0001) %MON ad_exf_adfu_mean             =   2.3219823621253E-08
(PID.TID 0000.0001) %MON ad_exf_adfu_sd               =   6.0905252029556E-08
(PID.TID 0000.0001) %MON ad_exf_adfu_del2             =   2.7547062118040E-08
(PID.TID 0000.0001) %MON ad_exf_adfv_max              =   9.2226972321552E-08
(PID.TID 0000.0001) %MON ad_exf_adfv_min              =  -7.1741602414390E-08
(PID.TID 0000.0001) %MON ad_exf_adfv_mean             =  -1.1901535282597E-09
(PID.TID 0000.0001) %MON ad_exf_adfv_sd               =   2.3758734381818E-08
(PID.TID 0000.0001) %MON ad_exf_adfv_del2             =   9.2651935836378E-09
(PID.TID 0000.0001) %MON ad_exf_adqnet_max            =   6.5921997357599E-11
(PID.TID 0000.0001) %MON ad_exf_adqnet_min            =  -1.5331944999443E-12
(PID.TID 0000.0001) %MON ad_exf_adqnet_mean           =   6.0206740774582E-12
(PID.TID 0000.0001) %MON ad_exf_adqnet_sd             =   1.1781096924858E-11
(PID.TID 0000.0001) %MON ad_exf_adqnet_del2           =   5.0065013989436E-12
(PID.TID 0000.0001) %MON ad_exf_adempmr_max           =   1.0410750016447E-05
(PID.TID 0000.0001) %MON ad_exf_adempmr_min           =  -3.0144375514743E-04
(PID.TID 0000.0001) %MON ad_exf_adempmr_mean          =  -1.3240594290028E-05
(PID.TID 0000.0001) %MON ad_exf_adempmr_sd            =   4.6232756482972E-05
(PID.TID 0000.0001) %MON ad_exf_adempmr_del2          =   2.4143222361941E-05
(PID.TID 0000.0001) %MON ad_exf_adqsw_max             =   6.7431720813481E-13
(PID.TID 0000.0001) %MON ad_exf_adqsw_min             =  -1.8157134923354E-11
(PID.TID 0000.0001) %MON ad_exf_adqsw_mean            =  -1.4089289643969E-12
(PID.TID 0000.0001) %MON ad_exf_adqsw_sd              =   3.0705776611103E-12
(PID.TID 0000.0001) %MON ad_exf_adqsw_del2            =   1.3739574608509E-12
(PID.TID 0000.0001) // =======================================================
(PID.TID 0000.0001) // End AD_MONITOR EXF statistics for iwhen =  3
(PID.TID 0000.0001) // =======================================================
(PID.TID 0000.0001)  nRecords = 187 ; filePrec =  64 ; fileIter =      8760
(PID.TID 0000.0001)     nDims =   2 , dims:
(PID.TID 0000.0001)    1:  10   1  10
(PID.TID 0000.0001)    2:   8   1   8
(PID.TID 0000.0001)     nFlds =  11 , nFl3D =   8 , fields:
(PID.TID 0000.0001)  >Uvel    < >Vvel    < >Theta   < >Salt    < >GuNm1   < >GvNm1   < >GtNm1   < >GsNm1   < >EtaN    < >dEtaHdt < >EtaH    <
(PID.TID 0000.0001) missingVal=  1.00000000000000E+00 ; nTimRec =   1 , timeList:
(PID.TID 0000.0001)   3.153600000000E+07
(PID.TID 0000.0001) READ_MFLDS_3D_RL: read field: "Uvel    ", #   1 in fldList, rec=   1
(PID.TID 0000.0001) READ_MFLDS_3D_RL: read field: "Vvel    ", #   2 in fldList, rec=   2
(PID.TID 0000.0001) READ_MFLDS_3D_RL: read field: "Theta   ", #   3 in fldList, rec=   3
(PID.TID 0000.0001) READ_MFLDS_3D_RL: read field: "Salt    ", #   4 in fldList, rec=   4
(PID.TID 0000.0001) READ_MFLDS_3D_RL: read field: "GuNm1   ", #   5 in fldList, rec=   5
(PID.TID 0000.0001) READ_MFLDS_3D_RL: read field: "GvNm1   ", #   6 in fldList, rec=   6
(PID.TID 0000.0001) READ_MFLDS_3D_RL: read field: "EtaN    ", #   9 in fldList, rec= 185
(PID.TID 0000.0001) READ_MFLDS_CHECK: - normal end ; reset MFLDS file-name: pickup.0000000001
(PID.TID 0000.0001) // =======================================================
(PID.TID 0000.0001) // Begin AD_MONITOR dynamic field statistics
(PID.TID 0000.0001) // =======================================================
(PID.TID 0000.0001) %MON ad_time_tsnumber             =                     0
(PID.TID 0000.0001) %MON ad_time_secondsf             =   0.0000000000000E+00
(PID.TID 0000.0001) %MON ad_dynstat_adeta_max         =   4.7111723595431E-08
(PID.TID 0000.0001) %MON ad_dynstat_adeta_min         =  -2.4753637199473E-08
(PID.TID 0000.0001) %MON ad_dynstat_adeta_mean        =  -3.7142069740652E-10
(PID.TID 0000.0001) %MON ad_dynstat_adeta_sd          =   1.0562800568519E-08
(PID.TID 0000.0001) %MON ad_dynstat_adeta_del2        =   3.8306560023566E-09
(PID.TID 0000.0001) %MON ad_dynstat_aduvel_max        =   4.1464508482981E-07
(PID.TID 0000.0001) %MON ad_dynstat_aduvel_min        =  -2.8017424578242E-07
(PID.TID 0000.0001) %MON ad_dynstat_aduvel_mean       =  -3.0902780178488E-10
(PID.TID 0000.0001) %MON ad_dynstat_aduvel_sd         =   1.0691068271869E-08
(PID.TID 0000.0001) %MON ad_dynstat_aduvel_del2       =   3.6056080033597E-09
(PID.TID 0000.0001) %MON ad_dynstat_advvel_max        =   9.4972233356443E-07
(PID.TID 0000.0001) %MON ad_dynstat_advvel_min        =  -9.6187701891529E-07
(PID.TID 0000.0001) %MON ad_dynstat_advvel_mean       =  -3.7074480285104E-09
(PID.TID 0000.0001) %MON ad_dynstat_advvel_sd         =   2.3427069428311E-08
(PID.TID 0000.0001) %MON ad_dynstat_advvel_del2       =   9.3369002415338E-09
(PID.TID 0000.0001) %MON ad_dynstat_adwvel_max        =   6.2541240836008E-06
(PID.TID 0000.0001) %MON ad_dynstat_adwvel_min        =  -8.6932365167060E-06
(PID.TID 0000.0001) %MON ad_dynstat_adwvel_mean       =  -8.6625309049569E-10
(PID.TID 0000.0001) %MON ad_dynstat_adwvel_sd         =   1.5000998122739E-07
(PID.TID 0000.0001) %MON ad_dynstat_adwvel_del2       =   5.9329552595764E-08
(PID.TID 0000.0001) %MON ad_dynstat_adtheta_max       =   2.8100923726041E-07
(PID.TID 0000.0001) %MON ad_dynstat_adtheta_min       =  -5.2939046119792E-07
(PID.TID 0000.0001) %MON ad_dynstat_adtheta_mean      =  -1.1045207664004E-09
(PID.TID 0000.0001) %MON ad_dynstat_adtheta_sd        =   1.8466263571097E-08
(PID.TID 0000.0001) %MON ad_dynstat_adtheta_del2      =   6.5410218382971E-09
(PID.TID 0000.0001) %MON ad_dynstat_adsalt_max        =   8.2350726628701E-06
(PID.TID 0000.0001) %MON ad_dynstat_adsalt_min        =  -7.8600091373127E-06
(PID.TID 0000.0001) %MON ad_dynstat_adsalt_mean       =   1.8135593610306E-10
(PID.TID 0000.0001) %MON ad_dynstat_adsalt_sd         =   1.4662880448654E-07
(PID.TID 0000.0001) %MON ad_dynstat_adsalt_del2       =   7.3382706099787E-08
(PID.TID 0000.0001) // =======================================================
(PID.TID 0000.0001) // End AD_MONITOR dynamic field statistics
(PID.TID 0000.0001) // =======================================================
(PID.TID 0000.0001) // =======================================================
(PID.TID 0000.0001) // Begin AD_MONITOR SEAICE statistics
(PID.TID 0000.0001) // =======================================================
(PID.TID 0000.0001) %MON ad_seaice_tsnumber           =                     0
(PID.TID 0000.0001) %MON ad_seaice_time_sec           =   0.0000000000000E+00
(PID.TID 0000.0001) %MON ad_seaice_aduice_max         =   1.3611583143737E-06
(PID.TID 0000.0001) %MON ad_seaice_aduice_min         =  -2.2886923951746E-07
(PID.TID 0000.0001) %MON ad_seaice_aduice_mean        =   4.9830918178096E-08
(PID.TID 0000.0001) %MON ad_seaice_aduice_sd          =   2.2481385328389E-07
(PID.TID 0000.0001) %MON ad_seaice_aduice_del2        =   7.9975068584067E-08
(PID.TID 0000.0001) %MON ad_seaice_advice_max         =   5.0284675285844E-08
(PID.TID 0000.0001) %MON ad_seaice_advice_min         =  -9.5225660662217E-07
(PID.TID 0000.0001) %MON ad_seaice_advice_mean        =  -3.0181171547503E-08
(PID.TID 0000.0001) %MON ad_seaice_advice_sd          =   1.4113208268067E-07
(PID.TID 0000.0001) %MON ad_seaice_advice_del2        =   5.7112526229253E-08
(PID.TID 0000.0001) %MON ad_seaice_adarea_max         =   7.1138043837882E+11
(PID.TID 0000.0001) %MON ad_seaice_adarea_min         =  -4.6336327460257E-06
(PID.TID 0000.0001) %MON ad_seaice_adarea_mean        =   3.4739478322620E+10
(PID.TID 0000.0001) %MON ad_seaice_adarea_sd          =   1.5331716787128E+11
(PID.TID 0000.0001) %MON ad_seaice_adarea_del2        =   6.5599156920450E+10
(PID.TID 0000.0001) %MON ad_seaice_adheff_max         =   9.8874503792876E-05
(PID.TID 0000.0001) %MON ad_seaice_adheff_min         =  -3.6738293655196E+09
(PID.TID 0000.0001) %MON ad_seaice_adheff_mean        =  -1.7940740092960E+08
(PID.TID 0000.0001) %MON ad_seaice_adheff_sd          =   7.9178605821970E+08
(PID.TID 0000.0001) %MON ad_seaice_adheff_del2        =   3.3877809380057E+08
(PID.TID 0000.0001) %MON ad_seaice_adhsnow_max        =   2.3183319506232E-07
(PID.TID 0000.0001) %MON ad_seaice_adhsnow_min        =  -1.3322677918917E+09
(PID.TID 0000.0001) %MON ad_seaice_adhsnow_mean       =  -6.5059826710741E+07
(PID.TID 0000.0001) %MON ad_seaice_adhsnow_sd         =   2.8713120792583E+08
(PID.TID 0000.0001) %MON ad_seaice_adhsnow_del2       =   1.2285359445515E+08
(PID.TID 0000.0001) %MON ad_seaice_adhsalt_max        =   0.0000000000000E+00
(PID.TID 0000.0001) %MON ad_seaice_adhsalt_min        =   0.0000000000000E+00
(PID.TID 0000.0001) %MON ad_seaice_adhsalt_mean       =   0.0000000000000E+00
(PID.TID 0000.0001) %MON ad_seaice_adhsalt_sd         =   0.0000000000000E+00
(PID.TID 0000.0001) %MON ad_seaice_adhsalt_del2       =   0.0000000000000E+00
(PID.TID 0000.0001) // =======================================================
(PID.TID 0000.0001) // End AD_MONITOR SEAICE statistics
(PID.TID 0000.0001) // =======================================================
(PID.TID 0000.0001)  nRecords =   8 ; filePrec =  64 ; fileIter =      8760
(PID.TID 0000.0001)     nDims =   2 , dims:
(PID.TID 0000.0001)    1:  10   1  10
(PID.TID 0000.0001)    2:   8   1   8
(PID.TID 0000.0001)     nFlds =   8 , nFl3D =   0 , fields:
(PID.TID 0000.0001)  >siTICE  < >siAREA  < >siHEFF  < >siHSNOW < >siHSALT < >siAGE   < >siUICE  < >siVICE  <
(PID.TID 0000.0001) missingVal=  1.00000000000000E+00 ; nTimRec =   1 , timeList:
(PID.TID 0000.0001)   3.153600000000E+07
(PID.TID 0000.0001) READ_MFLDS_3D_RL: field: "siTICES " missing in file: pickup_seaice.0000000001
(PID.TID 0000.0001) READ_MFLDS_LEV_RL: read field: "siTICE  ", #   1 in fldList, rec=   1
(PID.TID 0000.0001) READ_MFLDS_3D_RL: read field: "siAREA  ", #   2 in fldList, rec=   2
(PID.TID 0000.0001) READ_MFLDS_3D_RL: read field: "siHEFF  ", #   3 in fldList, rec=   3
(PID.TID 0000.0001) READ_MFLDS_3D_RL: read field: "siHSNOW ", #   4 in fldList, rec=   4
(PID.TID 0000.0001) READ_MFLDS_3D_RL: read field: "siHSALT ", #   5 in fldList, rec=   5
(PID.TID 0000.0001) READ_MFLDS_3D_RL: read field: "siUICE  ", #   7 in fldList, rec=   7
(PID.TID 0000.0001) READ_MFLDS_3D_RL: read field: "siVICE  ", #   8 in fldList, rec=   8
(PID.TID 0000.0001) READ_MFLDS_3D_RL: field: "siSigm1 " missing in file: pickup_seaice.0000000001
(PID.TID 0000.0001) READ_MFLDS_3D_RL: field: "siSigm2 " missing in file: pickup_seaice.0000000001
(PID.TID 0000.0001) READ_MFLDS_3D_RL: field: "siSigm12" missing in file: pickup_seaice.0000000001
(PID.TID 0000.0001) // =======================================================
(PID.TID 0000.0001) // Gradient-check starts (grdchk_main)
(PID.TID 0000.0001) // =======================================================
(PID.TID 0000.0001) grdchk reference fc: fcref       =  1.77293944179767E-04
grad-res -------------------------------
 grad-res  proc    #    i    j    k   bi   bj iobc       fc ref            fc + eps           fc - eps
 grad-res  proc    #    i    j    k   bi   bj iobc      adj grad            fd grad          1 - fd/adj
(PID.TID 0000.0001) ====== Starts gradient-check number   1 (=ichknum) =======
 ph-test icomp, ncvarcomp, ichknum            1          59           1
 ph-grd _loc: bi, bj, icomptest, ichknum            1           1           0           1
 ph-grd -->hit<--            4           2           1           1
(PID.TID 0000.0001) grdchk pos: i,j,k=    4    2    1 ; bi,bj=   1   1 ; iobc=  1 ; rec=   1
(PID.TID 0000.0001)  nRecords = 187 ; filePrec =  64 ; fileIter =      8760
(PID.TID 0000.0001)     nDims =   2 , dims:
(PID.TID 0000.0001)    1:  10   1  10
(PID.TID 0000.0001)    2:   8   1   8
(PID.TID 0000.0001)     nFlds =  11 , nFl3D =   8 , fields:
(PID.TID 0000.0001)  >Uvel    < >Vvel    < >Theta   < >Salt    < >GuNm1   < >GvNm1   < >GtNm1   < >GsNm1   < >EtaN    < >dEtaHdt < >EtaH    <
(PID.TID 0000.0001) missingVal=  1.00000000000000E+00 ; nTimRec =   1 , timeList:
(PID.TID 0000.0001)   3.153600000000E+07
(PID.TID 0000.0001) READ_MFLDS_3D_RL: read field: "Uvel    ", #   1 in fldList, rec=   1
(PID.TID 0000.0001) READ_MFLDS_3D_RL: read field: "Vvel    ", #   2 in fldList, rec=   2
(PID.TID 0000.0001) READ_MFLDS_3D_RL: read field: "Theta   ", #   3 in fldList, rec=   3
(PID.TID 0000.0001) READ_MFLDS_3D_RL: read field: "Salt    ", #   4 in fldList, rec=   4
(PID.TID 0000.0001) READ_MFLDS_3D_RL: read field: "GuNm1   ", #   5 in fldList, rec=   5
(PID.TID 0000.0001) READ_MFLDS_3D_RL: read field: "GvNm1   ", #   6 in fldList, rec=   6
(PID.TID 0000.0001) READ_MFLDS_3D_RL: read field: "EtaN    ", #   9 in fldList, rec= 185
(PID.TID 0000.0001) READ_MFLDS_CHECK: - normal end ; reset MFLDS file-name: pickup.0000000001
(PID.TID 0000.0001)  nRecords =   8 ; filePrec =  64 ; fileIter =      8760
(PID.TID 0000.0001)     nDims =   2 , dims:
(PID.TID 0000.0001)    1:  10   1  10
(PID.TID 0000.0001)    2:   8   1   8
(PID.TID 0000.0001)     nFlds =   8 , nFl3D =   0 , fields:
(PID.TID 0000.0001)  >siTICE  < >siAREA  < >siHEFF  < >siHSNOW < >siHSALT < >siAGE   < >siUICE  < >siVICE  <
(PID.TID 0000.0001) missingVal=  1.00000000000000E+00 ; nTimRec =   1 , timeList:
(PID.TID 0000.0001)   3.153600000000E+07
(PID.TID 0000.0001) READ_MFLDS_3D_RL: field: "siTICES " missing in file: pickup_seaice.0000000001
(PID.TID 0000.0001) READ_MFLDS_LEV_RL: read field: "siTICE  ", #   1 in fldList, rec=   1
(PID.TID 0000.0001) READ_MFLDS_3D_RL: read field: "siAREA  ", #   2 in fldList, rec=   2
(PID.TID 0000.0001) READ_MFLDS_3D_RL: read field: "siHEFF  ", #   3 in fldList, rec=   3
(PID.TID 0000.0001) READ_MFLDS_3D_RL: read field: "siHSNOW ", #   4 in fldList, rec=   4
(PID.TID 0000.0001) READ_MFLDS_3D_RL: read field: "siHSALT ", #   5 in fldList, rec=   5
(PID.TID 0000.0001) READ_MFLDS_3D_RL: read field: "siUICE  ", #   7 in fldList, rec=   7
(PID.TID 0000.0001) READ_MFLDS_3D_RL: read field: "siVICE  ", #   8 in fldList, rec=   8
(PID.TID 0000.0001) READ_MFLDS_3D_RL: field: "siSigm1 " missing in file: pickup_seaice.0000000001
(PID.TID 0000.0001) READ_MFLDS_3D_RL: field: "siSigm2 " missing in file: pickup_seaice.0000000001
(PID.TID 0000.0001) READ_MFLDS_3D_RL: field: "siSigm12" missing in file: pickup_seaice.0000000001
(PID.TID 0000.0001) // =======================================================
(PID.TID 0000.0001) // Model current state
(PID.TID 0000.0001) // =======================================================
(PID.TID 0000.0001) 
 ph-ice B            0  -1.6099159502251632        0.0000000000000000        0.0000000000000000     
 ph-ice C            0   26866462068.459217     
(PID.TID 0000.0001) SOLVE_FOR_PRESSURE: putPmEinXvector =    F
 cg2d: Sum(rhs),rhsMax =   1.60928057501076E+00  4.53911481785241E-01
 ph-ice B            1  -1.6113904977302684        0.0000000000000000        0.0000000000000000     
 ph-ice C            1   53815320198.548958     
 cg2d: Sum(rhs),rhsMax =   1.39505157363533E+00  4.42528490892228E-01
 ph-ice B            2  -1.6128879097604079        0.0000000000000000        0.0000000000000000     
 ph-ice C            2   80841578668.286087     
 cg2d: Sum(rhs),rhsMax =   1.53750142804830E+00  4.29674216959694E-01
 ph-ice B            3  -1.6145652705750371        0.0000000000000000        0.0000000000000000     
 ph-ice C            3   107941928046.94621     
 cg2d: Sum(rhs),rhsMax =   1.66300800164755E+00  4.46105408756481E-01
 ph-ice B            4  -1.6167936177757580        0.0000000000000000        0.0000000000000000     
 ph-ice C            4   135113199808.48482     
 cg2d: Sum(rhs),rhsMax =   1.82393025539104E+00  4.43087548118683E-01
 ph-ice B            5  -1.6196520376783696        0.0000000000000000        0.0000000000000000     
 ph-ice C            5   162352716352.57761     
 cg2d: Sum(rhs),rhsMax =   1.93707787909969E+00  4.41599456652453E-01
(PID.TID 0000.0001) Did not write pickup because writePickupAtEnd = FALSE
 --> f_ice     = 0.177293858307807D+12
(PID.TID 0000.0001)   early fc =  0.000000000000000D+00
(PID.TID 0000.0001)   local fc =  0.177293858307807D-03
(PID.TID 0000.0001)  global fc =  0.177293858307807D-03
(PID.TID 0000.0001) grdchk perturb(+)fc: fcpertplus  =  1.77293858307807E-04
(PID.TID 0000.0001)  nRecords = 187 ; filePrec =  64 ; fileIter =      8760
(PID.TID 0000.0001)     nDims =   2 , dims:
(PID.TID 0000.0001)    1:  10   1  10
(PID.TID 0000.0001)    2:   8   1   8
(PID.TID 0000.0001)     nFlds =  11 , nFl3D =   8 , fields:
(PID.TID 0000.0001)  >Uvel    < >Vvel    < >Theta   < >Salt    < >GuNm1   < >GvNm1   < >GtNm1   < >GsNm1   < >EtaN    < >dEtaHdt < >EtaH    <
(PID.TID 0000.0001) missingVal=  1.00000000000000E+00 ; nTimRec =   1 , timeList:
(PID.TID 0000.0001)   3.153600000000E+07
(PID.TID 0000.0001) READ_MFLDS_3D_RL: read field: "Uvel    ", #   1 in fldList, rec=   1
(PID.TID 0000.0001) READ_MFLDS_3D_RL: read field: "Vvel    ", #   2 in fldList, rec=   2
(PID.TID 0000.0001) READ_MFLDS_3D_RL: read field: "Theta   ", #   3 in fldList, rec=   3
(PID.TID 0000.0001) READ_MFLDS_3D_RL: read field: "Salt    ", #   4 in fldList, rec=   4
(PID.TID 0000.0001) READ_MFLDS_3D_RL: read field: "GuNm1   ", #   5 in fldList, rec=   5
(PID.TID 0000.0001) READ_MFLDS_3D_RL: read field: "GvNm1   ", #   6 in fldList, rec=   6
(PID.TID 0000.0001) READ_MFLDS_3D_RL: read field: "EtaN    ", #   9 in fldList, rec= 185
(PID.TID 0000.0001) READ_MFLDS_CHECK: - normal end ; reset MFLDS file-name: pickup.0000000001
(PID.TID 0000.0001)  nRecords =   8 ; filePrec =  64 ; fileIter =      8760
(PID.TID 0000.0001)     nDims =   2 , dims:
(PID.TID 0000.0001)    1:  10   1  10
(PID.TID 0000.0001)    2:   8   1   8
(PID.TID 0000.0001)     nFlds =   8 , nFl3D =   0 , fields:
(PID.TID 0000.0001)  >siTICE  < >siAREA  < >siHEFF  < >siHSNOW < >siHSALT < >siAGE   < >siUICE  < >siVICE  <
(PID.TID 0000.0001) missingVal=  1.00000000000000E+00 ; nTimRec =   1 , timeList:
(PID.TID 0000.0001)   3.153600000000E+07
(PID.TID 0000.0001) READ_MFLDS_3D_RL: field: "siTICES " missing in file: pickup_seaice.0000000001
(PID.TID 0000.0001) READ_MFLDS_LEV_RL: read field: "siTICE  ", #   1 in fldList, rec=   1
(PID.TID 0000.0001) READ_MFLDS_3D_RL: read field: "siAREA  ", #   2 in fldList, rec=   2
(PID.TID 0000.0001) READ_MFLDS_3D_RL: read field: "siHEFF  ", #   3 in fldList, rec=   3
(PID.TID 0000.0001) READ_MFLDS_3D_RL: read field: "siHSNOW ", #   4 in fldList, rec=   4
(PID.TID 0000.0001) READ_MFLDS_3D_RL: read field: "siHSALT ", #   5 in fldList, rec=   5
(PID.TID 0000.0001) READ_MFLDS_3D_RL: read field: "siUICE  ", #   7 in fldList, rec=   7
(PID.TID 0000.0001) READ_MFLDS_3D_RL: read field: "siVICE  ", #   8 in fldList, rec=   8
(PID.TID 0000.0001) READ_MFLDS_3D_RL: field: "siSigm1 " missing in file: pickup_seaice.0000000001
(PID.TID 0000.0001) READ_MFLDS_3D_RL: field: "siSigm2 " missing in file: pickup_seaice.0000000001
(PID.TID 0000.0001) READ_MFLDS_3D_RL: field: "siSigm12" missing in file: pickup_seaice.0000000001
(PID.TID 0000.0001) // =======================================================
(PID.TID 0000.0001) // Model current state
(PID.TID 0000.0001) // =======================================================
(PID.TID 0000.0001) 
 ph-ice B            0  -1.6099159502251632        0.0000000000000000        0.0000000000000000     
 ph-ice C            0   26866470303.629650     
(PID.TID 0000.0001) SOLVE_FOR_PRESSURE: putPmEinXvector =    F
 cg2d: Sum(rhs),rhsMax =   1.60928057501076E+00  4.53911481785241E-01
 ph-ice B            1  -1.6113904976729250        0.0000000000000000        0.0000000000000000     
 ph-ice C            1   53815344859.385765     
 cg2d: Sum(rhs),rhsMax =   1.39505163018484E+00  4.42528472953990E-01
 ph-ice B            2  -1.6128879097960227        0.0000000000000000        0.0000000000000000     
 ph-ice C            2   80841627918.019501     
 cg2d: Sum(rhs),rhsMax =   1.53750153144782E+00  4.29674188063394E-01
 ph-ice B            3  -1.6145652719895389        0.0000000000000000        0.0000000000000000     
 ph-ice C            3   107942010030.87222     
 cg2d: Sum(rhs),rhsMax =   1.66300806971262E+00  4.46105390497882E-01
 ph-ice B            4  -1.6167936156210634        0.0000000000000000        0.0000000000000000     
 ph-ice C            4   135113322658.36530     
 cg2d: Sum(rhs),rhsMax =   1.82393024789263E+00  4.43087549940272E-01
 ph-ice B            5  -1.6196520249651465        0.0000000000000000        0.0000000000000000     
 ph-ice C            5   162352888187.75482     
 cg2d: Sum(rhs),rhsMax =   1.93707780583073E+00  4.41599473355720E-01
(PID.TID 0000.0001) Did not write pickup because writePickupAtEnd = FALSE
 --> f_ice     = 0.177294030141215D+12
(PID.TID 0000.0001)   early fc =  0.000000000000000D+00
(PID.TID 0000.0001)   local fc =  0.177294030141215D-03
(PID.TID 0000.0001)  global fc =  0.177294030141215D-03
(PID.TID 0000.0001) grdchk perturb(-)fc: fcpertminus =  1.77294030141215E-04
grad-res -------------------------------
 grad-res     0    1    4    2    1    1    1    1   1.77293944180E-04  1.77293858308E-04  1.77294030141E-04
 grad-res     0    1    1    1    0    1    1    1  -8.59169269063E-09 -8.59167037509E-09  2.59733882579E-06
(PID.TID 0000.0001)  ADM  ref_cost_function      =  1.77293944179767E-04
(PID.TID 0000.0001)  ADM  adjoint_gradient       = -8.59169269062932E-09
(PID.TID 0000.0001)  ADM  finite-diff_grad       = -8.59167037509231E-09
(PID.TID 0000.0001) ====== End of gradient-check number   1 (ierr=  0) =======
(PID.TID 0000.0001) ====== Starts gradient-check number   2 (=ichknum) =======
 ph-test icomp, ncvarcomp, ichknum            2          59           2
 ph-grd _loc: bi, bj, icomptest, ichknum            1           1           1           2
 ph-grd -->hit<--            5           2           1           1
(PID.TID 0000.0001) grdchk pos: i,j,k=    5    2    1 ; bi,bj=   1   1 ; iobc=  1 ; rec=   1
(PID.TID 0000.0001)  nRecords = 187 ; filePrec =  64 ; fileIter =      8760
(PID.TID 0000.0001)     nDims =   2 , dims:
(PID.TID 0000.0001)    1:  10   1  10
(PID.TID 0000.0001)    2:   8   1   8
(PID.TID 0000.0001)     nFlds =  11 , nFl3D =   8 , fields:
(PID.TID 0000.0001)  >Uvel    < >Vvel    < >Theta   < >Salt    < >GuNm1   < >GvNm1   < >GtNm1   < >GsNm1   < >EtaN    < >dEtaHdt < >EtaH    <
(PID.TID 0000.0001) missingVal=  1.00000000000000E+00 ; nTimRec =   1 , timeList:
(PID.TID 0000.0001)   3.153600000000E+07
(PID.TID 0000.0001) READ_MFLDS_3D_RL: read field: "Uvel    ", #   1 in fldList, rec=   1
(PID.TID 0000.0001) READ_MFLDS_3D_RL: read field: "Vvel    ", #   2 in fldList, rec=   2
(PID.TID 0000.0001) READ_MFLDS_3D_RL: read field: "Theta   ", #   3 in fldList, rec=   3
(PID.TID 0000.0001) READ_MFLDS_3D_RL: read field: "Salt    ", #   4 in fldList, rec=   4
(PID.TID 0000.0001) READ_MFLDS_3D_RL: read field: "GuNm1   ", #   5 in fldList, rec=   5
(PID.TID 0000.0001) READ_MFLDS_3D_RL: read field: "GvNm1   ", #   6 in fldList, rec=   6
(PID.TID 0000.0001) READ_MFLDS_3D_RL: read field: "EtaN    ", #   9 in fldList, rec= 185
(PID.TID 0000.0001) READ_MFLDS_CHECK: - normal end ; reset MFLDS file-name: pickup.0000000001
(PID.TID 0000.0001)  nRecords =   8 ; filePrec =  64 ; fileIter =      8760
(PID.TID 0000.0001)     nDims =   2 , dims:
(PID.TID 0000.0001)    1:  10   1  10
(PID.TID 0000.0001)    2:   8   1   8
(PID.TID 0000.0001)     nFlds =   8 , nFl3D =   0 , fields:
(PID.TID 0000.0001)  >siTICE  < >siAREA  < >siHEFF  < >siHSNOW < >siHSALT < >siAGE   < >siUICE  < >siVICE  <
(PID.TID 0000.0001) missingVal=  1.00000000000000E+00 ; nTimRec =   1 , timeList:
(PID.TID 0000.0001)   3.153600000000E+07
(PID.TID 0000.0001) READ_MFLDS_3D_RL: field: "siTICES " missing in file: pickup_seaice.0000000001
(PID.TID 0000.0001) READ_MFLDS_LEV_RL: read field: "siTICE  ", #   1 in fldList, rec=   1
(PID.TID 0000.0001) READ_MFLDS_3D_RL: read field: "siAREA  ", #   2 in fldList, rec=   2
(PID.TID 0000.0001) READ_MFLDS_3D_RL: read field: "siHEFF  ", #   3 in fldList, rec=   3
(PID.TID 0000.0001) READ_MFLDS_3D_RL: read field: "siHSNOW ", #   4 in fldList, rec=   4
(PID.TID 0000.0001) READ_MFLDS_3D_RL: read field: "siHSALT ", #   5 in fldList, rec=   5
(PID.TID 0000.0001) READ_MFLDS_3D_RL: read field: "siUICE  ", #   7 in fldList, rec=   7
(PID.TID 0000.0001) READ_MFLDS_3D_RL: read field: "siVICE  ", #   8 in fldList, rec=   8
(PID.TID 0000.0001) READ_MFLDS_3D_RL: field: "siSigm1 " missing in file: pickup_seaice.0000000001
(PID.TID 0000.0001) READ_MFLDS_3D_RL: field: "siSigm2 " missing in file: pickup_seaice.0000000001
(PID.TID 0000.0001) READ_MFLDS_3D_RL: field: "siSigm12" missing in file: pickup_seaice.0000000001
(PID.TID 0000.0001) // =======================================================
(PID.TID 0000.0001) // Model current state
(PID.TID 0000.0001) // =======================================================
(PID.TID 0000.0001) 
 ph-ice B            0  -1.6099159502251632        0.0000000000000000        0.0000000000000000     
 ph-ice C            0   26866466183.909428     
(PID.TID 0000.0001) SOLVE_FOR_PRESSURE: putPmEinXvector =    F
 cg2d: Sum(rhs),rhsMax =   1.60928057501076E+00  4.53911481785241E-01
 ph-ice B            1  -1.6113904977520268        0.0000000000000000        0.0000000000000000     
 ph-ice C            1   53815332525.025360     
 cg2d: Sum(rhs),rhsMax =   1.39505152495425E+00  4.42528506334499E-01
 ph-ice B            2  -1.6128879098790723        0.0000000000000000        0.0000000000000000     
 ph-ice C            2   80841603288.735214     
 cg2d: Sum(rhs),rhsMax =   1.53750137541128E+00  4.29674231669775E-01
 ph-ice B            3  -1.6145652707585993        0.0000000000000000        0.0000000000000000     
 ph-ice C            3   107941969035.97124     
 cg2d: Sum(rhs),rhsMax =   1.66300798796156E+00  4.46105412427776E-01
 ph-ice B            4  -1.6167936154926041        0.0000000000000000        0.0000000000000000     
 ph-ice C            4   135113261232.43568     
 cg2d: Sum(rhs),rhsMax =   1.82393027958810E+00  4.43087542240489E-01
 ph-ice B            5  -1.6196520293112338        0.0000000000000000        0.0000000000000000     
 ph-ice C            5   162352802270.66907     
 cg2d: Sum(rhs),rhsMax =   1.93707792480798E+00  4.41599446232241E-01
(PID.TID 0000.0001) Did not write pickup because writePickupAtEnd = FALSE
 --> f_ice     = 0.177293944226982D+12
(PID.TID 0000.0001)   early fc =  0.000000000000000D+00
(PID.TID 0000.0001)   local fc =  0.177293944226982D-03
(PID.TID 0000.0001)  global fc =  0.177293944226982D-03
(PID.TID 0000.0001) grdchk perturb(+)fc: fcpertplus  =  1.77293944226982E-04
(PID.TID 0000.0001)  nRecords = 187 ; filePrec =  64 ; fileIter =      8760
(PID.TID 0000.0001)     nDims =   2 , dims:
(PID.TID 0000.0001)    1:  10   1  10
(PID.TID 0000.0001)    2:   8   1   8
(PID.TID 0000.0001)     nFlds =  11 , nFl3D =   8 , fields:
(PID.TID 0000.0001)  >Uvel    < >Vvel    < >Theta   < >Salt    < >GuNm1   < >GvNm1   < >GtNm1   < >GsNm1   < >EtaN    < >dEtaHdt < >EtaH    <
(PID.TID 0000.0001) missingVal=  1.00000000000000E+00 ; nTimRec =   1 , timeList:
(PID.TID 0000.0001)   3.153600000000E+07
(PID.TID 0000.0001) READ_MFLDS_3D_RL: read field: "Uvel    ", #   1 in fldList, rec=   1
(PID.TID 0000.0001) READ_MFLDS_3D_RL: read field: "Vvel    ", #   2 in fldList, rec=   2
(PID.TID 0000.0001) READ_MFLDS_3D_RL: read field: "Theta   ", #   3 in fldList, rec=   3
(PID.TID 0000.0001) READ_MFLDS_3D_RL: read field: "Salt    ", #   4 in fldList, rec=   4
(PID.TID 0000.0001) READ_MFLDS_3D_RL: read field: "GuNm1   ", #   5 in fldList, rec=   5
(PID.TID 0000.0001) READ_MFLDS_3D_RL: read field: "GvNm1   ", #   6 in fldList, rec=   6
(PID.TID 0000.0001) READ_MFLDS_3D_RL: read field: "EtaN    ", #   9 in fldList, rec= 185
(PID.TID 0000.0001) READ_MFLDS_CHECK: - normal end ; reset MFLDS file-name: pickup.0000000001
(PID.TID 0000.0001)  nRecords =   8 ; filePrec =  64 ; fileIter =      8760
(PID.TID 0000.0001)     nDims =   2 , dims:
(PID.TID 0000.0001)    1:  10   1  10
(PID.TID 0000.0001)    2:   8   1   8
(PID.TID 0000.0001)     nFlds =   8 , nFl3D =   0 , fields:
(PID.TID 0000.0001)  >siTICE  < >siAREA  < >siHEFF  < >siHSNOW < >siHSALT < >siAGE   < >siUICE  < >siVICE  <
(PID.TID 0000.0001) missingVal=  1.00000000000000E+00 ; nTimRec =   1 , timeList:
(PID.TID 0000.0001)   3.153600000000E+07
(PID.TID 0000.0001) READ_MFLDS_3D_RL: field: "siTICES " missing in file: pickup_seaice.0000000001
(PID.TID 0000.0001) READ_MFLDS_LEV_RL: read field: "siTICE  ", #   1 in fldList, rec=   1
(PID.TID 0000.0001) READ_MFLDS_3D_RL: read field: "siAREA  ", #   2 in fldList, rec=   2
(PID.TID 0000.0001) READ_MFLDS_3D_RL: read field: "siHEFF  ", #   3 in fldList, rec=   3
(PID.TID 0000.0001) READ_MFLDS_3D_RL: read field: "siHSNOW ", #   4 in fldList, rec=   4
(PID.TID 0000.0001) READ_MFLDS_3D_RL: read field: "siHSALT ", #   5 in fldList, rec=   5
(PID.TID 0000.0001) READ_MFLDS_3D_RL: read field: "siUICE  ", #   7 in fldList, rec=   7
(PID.TID 0000.0001) READ_MFLDS_3D_RL: read field: "siVICE  ", #   8 in fldList, rec=   8
(PID.TID 0000.0001) READ_MFLDS_3D_RL: field: "siSigm1 " missing in file: pickup_seaice.0000000001
(PID.TID 0000.0001) READ_MFLDS_3D_RL: field: "siSigm2 " missing in file: pickup_seaice.0000000001
(PID.TID 0000.0001) READ_MFLDS_3D_RL: field: "siSigm12" missing in file: pickup_seaice.0000000001
(PID.TID 0000.0001) // =======================================================
(PID.TID 0000.0001) // Model current state
(PID.TID 0000.0001) // =======================================================
(PID.TID 0000.0001) 
 ph-ice B            0  -1.6099159502251632        0.0000000000000000        0.0000000000000000     
 ph-ice C            0   26866466183.909428     
(PID.TID 0000.0001) SOLVE_FOR_PRESSURE: putPmEinXvector =    F
 cg2d: Sum(rhs),rhsMax =   1.60928057501076E+00  4.53911481785241E-01
 ph-ice B            1  -1.6113904976511622        0.0000000000000000        0.0000000000000000     
 ph-ice C            1   53815332520.117821     
 cg2d: Sum(rhs),rhsMax =   1.39505167888718E+00  4.42528457504975E-01
 ph-ice B            2  -1.6128879096774269        0.0000000000000000        0.0000000000000000     
 ph-ice C            2   80841603272.021881     
 cg2d: Sum(rhs),rhsMax =   1.53750158409594E+00  4.29674173350214E-01
 ph-ice B            3  -1.6145652718068333        0.0000000000000000        0.0000000000000000     
 ph-ice C            3   107941968999.32407     
 cg2d: Sum(rhs),rhsMax =   1.66300808338909E+00  4.46105386829143E-01
 ph-ice B            4  -1.6167936179084215        0.0000000000000000        0.0000000000000000     
 ph-ice C            4   135113261170.57030     
 cg2d: Sum(rhs),rhsMax =   1.82393022369349E+00  4.43087555818973E-01
 ph-ice B            5  -1.6196520333858655        0.0000000000000000        0.0000000000000000     
 ph-ice C            5   162352802180.17850     
 cg2d: Sum(rhs),rhsMax =   1.93707776011260E+00  4.41599483778174E-01
(PID.TID 0000.0001) Did not write pickup because writePickupAtEnd = FALSE
 --> f_ice     = 0.177293944132555D+12
(PID.TID 0000.0001)   early fc =  0.000000000000000D+00
(PID.TID 0000.0001)   local fc =  0.177293944132555D-03
(PID.TID 0000.0001)  global fc =  0.177293944132555D-03
(PID.TID 0000.0001) grdchk perturb(-)fc: fcpertminus =  1.77293944132555E-04
grad-res -------------------------------
 grad-res     0    2    5    2    1    1    1    1   1.77293944180E-04  1.77293944227E-04  1.77293944133E-04
 grad-res     0    2    2    2    0    1    1    1   4.72123295320E-12  4.72136300325E-12 -2.75457813412E-05
(PID.TID 0000.0001)  ADM  ref_cost_function      =  1.77293944179767E-04
(PID.TID 0000.0001)  ADM  adjoint_gradient       =  4.72123295319760E-12
(PID.TID 0000.0001)  ADM  finite-diff_grad       =  4.72136300324819E-12
(PID.TID 0000.0001) ====== End of gradient-check number   2 (ierr=  0) =======
(PID.TID 0000.0001) ====== Starts gradient-check number   3 (=ichknum) =======
 ph-test icomp, ncvarcomp, ichknum            3          59           3
 ph-grd _loc: bi, bj, icomptest, ichknum            1           1           2           3
 ph-grd -->hit<--            3           3           1           1
(PID.TID 0000.0001) grdchk pos: i,j,k=    3    3    1 ; bi,bj=   1   1 ; iobc=  1 ; rec=   1
(PID.TID 0000.0001)  nRecords = 187 ; filePrec =  64 ; fileIter =      8760
(PID.TID 0000.0001)     nDims =   2 , dims:
(PID.TID 0000.0001)    1:  10   1  10
(PID.TID 0000.0001)    2:   8   1   8
(PID.TID 0000.0001)     nFlds =  11 , nFl3D =   8 , fields:
(PID.TID 0000.0001)  >Uvel    < >Vvel    < >Theta   < >Salt    < >GuNm1   < >GvNm1   < >GtNm1   < >GsNm1   < >EtaN    < >dEtaHdt < >EtaH    <
(PID.TID 0000.0001) missingVal=  1.00000000000000E+00 ; nTimRec =   1 , timeList:
(PID.TID 0000.0001)   3.153600000000E+07
(PID.TID 0000.0001) READ_MFLDS_3D_RL: read field: "Uvel    ", #   1 in fldList, rec=   1
(PID.TID 0000.0001) READ_MFLDS_3D_RL: read field: "Vvel    ", #   2 in fldList, rec=   2
(PID.TID 0000.0001) READ_MFLDS_3D_RL: read field: "Theta   ", #   3 in fldList, rec=   3
(PID.TID 0000.0001) READ_MFLDS_3D_RL: read field: "Salt    ", #   4 in fldList, rec=   4
(PID.TID 0000.0001) READ_MFLDS_3D_RL: read field: "GuNm1   ", #   5 in fldList, rec=   5
(PID.TID 0000.0001) READ_MFLDS_3D_RL: read field: "GvNm1   ", #   6 in fldList, rec=   6
(PID.TID 0000.0001) READ_MFLDS_3D_RL: read field: "EtaN    ", #   9 in fldList, rec= 185
(PID.TID 0000.0001) READ_MFLDS_CHECK: - normal end ; reset MFLDS file-name: pickup.0000000001
(PID.TID 0000.0001)  nRecords =   8 ; filePrec =  64 ; fileIter =      8760
(PID.TID 0000.0001)     nDims =   2 , dims:
(PID.TID 0000.0001)    1:  10   1  10
(PID.TID 0000.0001)    2:   8   1   8
(PID.TID 0000.0001)     nFlds =   8 , nFl3D =   0 , fields:
(PID.TID 0000.0001)  >siTICE  < >siAREA  < >siHEFF  < >siHSNOW < >siHSALT < >siAGE   < >siUICE  < >siVICE  <
(PID.TID 0000.0001) missingVal=  1.00000000000000E+00 ; nTimRec =   1 , timeList:
(PID.TID 0000.0001)   3.153600000000E+07
(PID.TID 0000.0001) READ_MFLDS_3D_RL: field: "siTICES " missing in file: pickup_seaice.0000000001
(PID.TID 0000.0001) READ_MFLDS_LEV_RL: read field: "siTICE  ", #   1 in fldList, rec=   1
(PID.TID 0000.0001) READ_MFLDS_3D_RL: read field: "siAREA  ", #   2 in fldList, rec=   2
(PID.TID 0000.0001) READ_MFLDS_3D_RL: read field: "siHEFF  ", #   3 in fldList, rec=   3
(PID.TID 0000.0001) READ_MFLDS_3D_RL: read field: "siHSNOW ", #   4 in fldList, rec=   4
(PID.TID 0000.0001) READ_MFLDS_3D_RL: read field: "siHSALT ", #   5 in fldList, rec=   5
(PID.TID 0000.0001) READ_MFLDS_3D_RL: read field: "siUICE  ", #   7 in fldList, rec=   7
(PID.TID 0000.0001) READ_MFLDS_3D_RL: read field: "siVICE  ", #   8 in fldList, rec=   8
(PID.TID 0000.0001) READ_MFLDS_3D_RL: field: "siSigm1 " missing in file: pickup_seaice.0000000001
(PID.TID 0000.0001) READ_MFLDS_3D_RL: field: "siSigm2 " missing in file: pickup_seaice.0000000001
(PID.TID 0000.0001) READ_MFLDS_3D_RL: field: "siSigm12" missing in file: pickup_seaice.0000000001
(PID.TID 0000.0001) // =======================================================
(PID.TID 0000.0001) // Model current state
(PID.TID 0000.0001) // =======================================================
(PID.TID 0000.0001) 
 ph-ice B            0  -1.6099159502251632        0.0000000000000000        0.0000000000000000     
 ph-ice C            0   26866464607.208584     
(PID.TID 0000.0001) SOLVE_FOR_PRESSURE: putPmEinXvector =    F
 cg2d: Sum(rhs),rhsMax =   1.60928057501076E+00  4.53911481785241E-01
 ph-ice B            1  -1.6113904977014430        0.0000000000000000        0.0000000000000000     
 ph-ice C            1   53815327856.148705     
 cg2d: Sum(rhs),rhsMax =   1.39505160159354E+00  4.42528482023519E-01
 ph-ice B            2  -1.6128879081802534        0.0000000000000000        0.0000000000000000     
 ph-ice C            2   80841594152.800201     
 cg2d: Sum(rhs),rhsMax =   1.53750147871339E+00  4.29674202800695E-01
 ph-ice B            3  -1.6145652605500691        0.0000000000000000        0.0000000000000000     
 ph-ice C            3   107941954149.73422     
 cg2d: Sum(rhs),rhsMax =   1.66300803402198E+00  4.46105400071972E-01
 ph-ice B            4  -1.6167935856672770        0.0000000000000000        0.0000000000000000     
 ph-ice C            4   135113239388.01219     
 cg2d: Sum(rhs),rhsMax =   1.82393024986642E+00  4.43087549460779E-01
 ph-ice B            5  -1.6196519829787313        0.0000000000000000        0.0000000000000000     
 ph-ice C            5   162352772324.88571     
 cg2d: Sum(rhs),rhsMax =   1.93707784064502E+00  4.41599465419038E-01
(PID.TID 0000.0001) Did not write pickup because writePickupAtEnd = FALSE
 --> f_ice     = 0.177293914278622D+12
(PID.TID 0000.0001)   early fc =  0.000000000000000D+00
(PID.TID 0000.0001)   local fc =  0.177293914278622D-03
(PID.TID 0000.0001)  global fc =  0.177293914278622D-03
(PID.TID 0000.0001) grdchk perturb(+)fc: fcpertplus  =  1.77293914278622E-04
(PID.TID 0000.0001)  nRecords = 187 ; filePrec =  64 ; fileIter =      8760
(PID.TID 0000.0001)     nDims =   2 , dims:
(PID.TID 0000.0001)    1:  10   1  10
(PID.TID 0000.0001)    2:   8   1   8
(PID.TID 0000.0001)     nFlds =  11 , nFl3D =   8 , fields:
(PID.TID 0000.0001)  >Uvel    < >Vvel    < >Theta   < >Salt    < >GuNm1   < >GvNm1   < >GtNm1   < >GsNm1   < >EtaN    < >dEtaHdt < >EtaH    <
(PID.TID 0000.0001) missingVal=  1.00000000000000E+00 ; nTimRec =   1 , timeList:
(PID.TID 0000.0001)   3.153600000000E+07
(PID.TID 0000.0001) READ_MFLDS_3D_RL: read field: "Uvel    ", #   1 in fldList, rec=   1
(PID.TID 0000.0001) READ_MFLDS_3D_RL: read field: "Vvel    ", #   2 in fldList, rec=   2
(PID.TID 0000.0001) READ_MFLDS_3D_RL: read field: "Theta   ", #   3 in fldList, rec=   3
(PID.TID 0000.0001) READ_MFLDS_3D_RL: read field: "Salt    ", #   4 in fldList, rec=   4
(PID.TID 0000.0001) READ_MFLDS_3D_RL: read field: "GuNm1   ", #   5 in fldList, rec=   5
(PID.TID 0000.0001) READ_MFLDS_3D_RL: read field: "GvNm1   ", #   6 in fldList, rec=   6
(PID.TID 0000.0001) READ_MFLDS_3D_RL: read field: "EtaN    ", #   9 in fldList, rec= 185
(PID.TID 0000.0001) READ_MFLDS_CHECK: - normal end ; reset MFLDS file-name: pickup.0000000001
(PID.TID 0000.0001)  nRecords =   8 ; filePrec =  64 ; fileIter =      8760
(PID.TID 0000.0001)     nDims =   2 , dims:
(PID.TID 0000.0001)    1:  10   1  10
(PID.TID 0000.0001)    2:   8   1   8
(PID.TID 0000.0001)     nFlds =   8 , nFl3D =   0 , fields:
(PID.TID 0000.0001)  >siTICE  < >siAREA  < >siHEFF  < >siHSNOW < >siHSALT < >siAGE   < >siUICE  < >siVICE  <
(PID.TID 0000.0001) missingVal=  1.00000000000000E+00 ; nTimRec =   1 , timeList:
(PID.TID 0000.0001)   3.153600000000E+07
(PID.TID 0000.0001) READ_MFLDS_3D_RL: field: "siTICES " missing in file: pickup_seaice.0000000001
(PID.TID 0000.0001) READ_MFLDS_LEV_RL: read field: "siTICE  ", #   1 in fldList, rec=   1
(PID.TID 0000.0001) READ_MFLDS_3D_RL: read field: "siAREA  ", #   2 in fldList, rec=   2
(PID.TID 0000.0001) READ_MFLDS_3D_RL: read field: "siHEFF  ", #   3 in fldList, rec=   3
(PID.TID 0000.0001) READ_MFLDS_3D_RL: read field: "siHSNOW ", #   4 in fldList, rec=   4
(PID.TID 0000.0001) READ_MFLDS_3D_RL: read field: "siHSALT ", #   5 in fldList, rec=   5
(PID.TID 0000.0001) READ_MFLDS_3D_RL: read field: "siUICE  ", #   7 in fldList, rec=   7
(PID.TID 0000.0001) READ_MFLDS_3D_RL: read field: "siVICE  ", #   8 in fldList, rec=   8
(PID.TID 0000.0001) READ_MFLDS_3D_RL: field: "siSigm1 " missing in file: pickup_seaice.0000000001
(PID.TID 0000.0001) READ_MFLDS_3D_RL: field: "siSigm2 " missing in file: pickup_seaice.0000000001
(PID.TID 0000.0001) READ_MFLDS_3D_RL: field: "siSigm12" missing in file: pickup_seaice.0000000001
(PID.TID 0000.0001) // =======================================================
(PID.TID 0000.0001) // Model current state
(PID.TID 0000.0001) // =======================================================
(PID.TID 0000.0001) 
 ph-ice B            0  -1.6099159502251632        0.0000000000000000        0.0000000000000000     
 ph-ice C            0   26866467760.767872     
(PID.TID 0000.0001) SOLVE_FOR_PRESSURE: putPmEinXvector =    F
 cg2d: Sum(rhs),rhsMax =   1.60928057501076E+00  4.53911481785241E-01
 ph-ice B            1  -1.6113904977017612        0.0000000000000000        0.0000000000000000     
 ph-ice C            1   53815337189.462685     
 cg2d: Sum(rhs),rhsMax =   1.39505160223441E+00  4.42528481820229E-01
 ph-ice B            2  -1.6128879113761123        0.0000000000000000        0.0000000000000000     
 ph-ice C            2   80841612409.042557     
 cg2d: Sum(rhs),rhsMax =   1.53750148074632E+00  4.29674202232569E-01
 ph-ice B            3  -1.6145652820077787        0.0000000000000000        0.0000000000000000     
 ph-ice C            3   107941983887.59947     
 cg2d: Sum(rhs),rhsMax =   1.66300803730417E+00  4.46105399191518E-01
 ph-ice B            4  -1.6167936477093996        0.0000000000000000        0.0000000000000000     
 ph-ice C            4   135113283018.50943     
 cg2d: Sum(rhs),rhsMax =   1.82393025344033E+00  4.43087548592569E-01
 ph-ice B            5  -1.6196520796810607        0.0000000000000000        0.0000000000000000     
 ph-ice C            5   162352832131.49033     
 cg2d: Sum(rhs),rhsMax =   1.93707784431124E+00  4.41599464583244E-01
(PID.TID 0000.0001) Did not write pickup because writePickupAtEnd = FALSE
 --> f_ice     = 0.177293974086444D+12
(PID.TID 0000.0001)   early fc =  0.000000000000000D+00
(PID.TID 0000.0001)   local fc =  0.177293974086444D-03
(PID.TID 0000.0001)  global fc =  0.177293974086444D-03
(PID.TID 0000.0001) grdchk perturb(-)fc: fcpertminus =  1.77293974086444E-04
grad-res -------------------------------
 grad-res     0    3    3    3    1    1    1    1   1.77293944180E-04  1.77293914279E-04  1.77293974086E-04
 grad-res     0    3    3    3    0    1    1    1  -2.99033175999E-09 -2.99039109718E-09 -1.98430130969E-05
(PID.TID 0000.0001)  ADM  ref_cost_function      =  1.77293944179767E-04
(PID.TID 0000.0001)  ADM  adjoint_gradient       = -2.99033175998886E-09
(PID.TID 0000.0001)  ADM  finite-diff_grad       = -2.99039109718114E-09
(PID.TID 0000.0001) ====== End of gradient-check number   3 (ierr=  0) =======
(PID.TID 0000.0001) ====== Starts gradient-check number   4 (=ichknum) =======
 ph-test icomp, ncvarcomp, ichknum            4          59           4
 ph-grd _loc: bi, bj, icomptest, ichknum            1           1           3           4
 ph-grd -->hit<--            4           3           1           1
(PID.TID 0000.0001) grdchk pos: i,j,k=    4    3    1 ; bi,bj=   1   1 ; iobc=  1 ; rec=   1
(PID.TID 0000.0001)  nRecords = 187 ; filePrec =  64 ; fileIter =      8760
(PID.TID 0000.0001)     nDims =   2 , dims:
(PID.TID 0000.0001)    1:  10   1  10
(PID.TID 0000.0001)    2:   8   1   8
(PID.TID 0000.0001)     nFlds =  11 , nFl3D =   8 , fields:
(PID.TID 0000.0001)  >Uvel    < >Vvel    < >Theta   < >Salt    < >GuNm1   < >GvNm1   < >GtNm1   < >GsNm1   < >EtaN    < >dEtaHdt < >EtaH    <
(PID.TID 0000.0001) missingVal=  1.00000000000000E+00 ; nTimRec =   1 , timeList:
(PID.TID 0000.0001)   3.153600000000E+07
(PID.TID 0000.0001) READ_MFLDS_3D_RL: read field: "Uvel    ", #   1 in fldList, rec=   1
(PID.TID 0000.0001) READ_MFLDS_3D_RL: read field: "Vvel    ", #   2 in fldList, rec=   2
(PID.TID 0000.0001) READ_MFLDS_3D_RL: read field: "Theta   ", #   3 in fldList, rec=   3
(PID.TID 0000.0001) READ_MFLDS_3D_RL: read field: "Salt    ", #   4 in fldList, rec=   4
(PID.TID 0000.0001) READ_MFLDS_3D_RL: read field: "GuNm1   ", #   5 in fldList, rec=   5
(PID.TID 0000.0001) READ_MFLDS_3D_RL: read field: "GvNm1   ", #   6 in fldList, rec=   6
(PID.TID 0000.0001) READ_MFLDS_3D_RL: read field: "EtaN    ", #   9 in fldList, rec= 185
(PID.TID 0000.0001) READ_MFLDS_CHECK: - normal end ; reset MFLDS file-name: pickup.0000000001
(PID.TID 0000.0001)  nRecords =   8 ; filePrec =  64 ; fileIter =      8760
(PID.TID 0000.0001)     nDims =   2 , dims:
(PID.TID 0000.0001)    1:  10   1  10
(PID.TID 0000.0001)    2:   8   1   8
(PID.TID 0000.0001)     nFlds =   8 , nFl3D =   0 , fields:
(PID.TID 0000.0001)  >siTICE  < >siAREA  < >siHEFF  < >siHSNOW < >siHSALT < >siAGE   < >siUICE  < >siVICE  <
(PID.TID 0000.0001) missingVal=  1.00000000000000E+00 ; nTimRec =   1 , timeList:
(PID.TID 0000.0001)   3.153600000000E+07
(PID.TID 0000.0001) READ_MFLDS_3D_RL: field: "siTICES " missing in file: pickup_seaice.0000000001
(PID.TID 0000.0001) READ_MFLDS_LEV_RL: read field: "siTICE  ", #   1 in fldList, rec=   1
(PID.TID 0000.0001) READ_MFLDS_3D_RL: read field: "siAREA  ", #   2 in fldList, rec=   2
(PID.TID 0000.0001) READ_MFLDS_3D_RL: read field: "siHEFF  ", #   3 in fldList, rec=   3
(PID.TID 0000.0001) READ_MFLDS_3D_RL: read field: "siHSNOW ", #   4 in fldList, rec=   4
(PID.TID 0000.0001) READ_MFLDS_3D_RL: read field: "siHSALT ", #   5 in fldList, rec=   5
(PID.TID 0000.0001) READ_MFLDS_3D_RL: read field: "siUICE  ", #   7 in fldList, rec=   7
(PID.TID 0000.0001) READ_MFLDS_3D_RL: read field: "siVICE  ", #   8 in fldList, rec=   8
(PID.TID 0000.0001) READ_MFLDS_3D_RL: field: "siSigm1 " missing in file: pickup_seaice.0000000001
(PID.TID 0000.0001) READ_MFLDS_3D_RL: field: "siSigm2 " missing in file: pickup_seaice.0000000001
(PID.TID 0000.0001) READ_MFLDS_3D_RL: field: "siSigm12" missing in file: pickup_seaice.0000000001
(PID.TID 0000.0001) // =======================================================
(PID.TID 0000.0001) // Model current state
(PID.TID 0000.0001) // =======================================================
(PID.TID 0000.0001) 
 ph-ice B            0  -1.6099159502251632        0.0000000000000000        0.0000000000000000     
 ph-ice C            0   26866463635.918835     
(PID.TID 0000.0001) SOLVE_FOR_PRESSURE: putPmEinXvector =    F
 cg2d: Sum(rhs),rhsMax =   1.60928057501076E+00  4.53911481785241E-01
 ph-ice B            1  -1.6113904976595022        0.0000000000000000        0.0000000000000000     
 ph-ice C            1   53815325076.801323     
 cg2d: Sum(rhs),rhsMax =   1.39505160063219E+00  4.42528482328474E-01
 ph-ice B            2  -1.6128878904293933        0.0000000000000000        0.0000000000000000     
 ph-ice C            2   80841588664.480408     
 cg2d: Sum(rhs),rhsMax =   1.53750147624349E+00  4.29674203490942E-01
 ph-ice B            3  -1.6145651647406538        0.0000000000000000        0.0000000000000000     
 ph-ice C            3   107941945027.23172     
 cg2d: Sum(rhs),rhsMax =   1.66300803158450E+00  4.46105400725830E-01
 ph-ice B            4  -1.6167932886866845        0.0000000000000000        0.0000000000000000     
 ph-ice C            4   135113225714.01268     
 cg2d: Sum(rhs),rhsMax =   1.82393024783585E+00  4.43087549954066E-01
 ph-ice B            5  -1.6196514561060666        0.0000000000000000        0.0000000000000000     
 ph-ice C            5   162352753191.63477     
 cg2d: Sum(rhs),rhsMax =   1.93707783899363E+00  4.41599465795508E-01
(PID.TID 0000.0001) Did not write pickup because writePickupAtEnd = FALSE
 --> f_ice     = 0.177293895146096D+12
(PID.TID 0000.0001)   early fc =  0.000000000000000D+00
(PID.TID 0000.0001)   local fc =  0.177293895146096D-03
(PID.TID 0000.0001)  global fc =  0.177293895146096D-03
(PID.TID 0000.0001) grdchk perturb(+)fc: fcpertplus  =  1.77293895146096E-04
(PID.TID 0000.0001)  nRecords = 187 ; filePrec =  64 ; fileIter =      8760
(PID.TID 0000.0001)     nDims =   2 , dims:
(PID.TID 0000.0001)    1:  10   1  10
(PID.TID 0000.0001)    2:   8   1   8
(PID.TID 0000.0001)     nFlds =  11 , nFl3D =   8 , fields:
(PID.TID 0000.0001)  >Uvel    < >Vvel    < >Theta   < >Salt    < >GuNm1   < >GvNm1   < >GtNm1   < >GsNm1   < >EtaN    < >dEtaHdt < >EtaH    <
(PID.TID 0000.0001) missingVal=  1.00000000000000E+00 ; nTimRec =   1 , timeList:
(PID.TID 0000.0001)   3.153600000000E+07
(PID.TID 0000.0001) READ_MFLDS_3D_RL: read field: "Uvel    ", #   1 in fldList, rec=   1
(PID.TID 0000.0001) READ_MFLDS_3D_RL: read field: "Vvel    ", #   2 in fldList, rec=   2
(PID.TID 0000.0001) READ_MFLDS_3D_RL: read field: "Theta   ", #   3 in fldList, rec=   3
(PID.TID 0000.0001) READ_MFLDS_3D_RL: read field: "Salt    ", #   4 in fldList, rec=   4
(PID.TID 0000.0001) READ_MFLDS_3D_RL: read field: "GuNm1   ", #   5 in fldList, rec=   5
(PID.TID 0000.0001) READ_MFLDS_3D_RL: read field: "GvNm1   ", #   6 in fldList, rec=   6
(PID.TID 0000.0001) READ_MFLDS_3D_RL: read field: "EtaN    ", #   9 in fldList, rec= 185
(PID.TID 0000.0001) READ_MFLDS_CHECK: - normal end ; reset MFLDS file-name: pickup.0000000001
(PID.TID 0000.0001)  nRecords =   8 ; filePrec =  64 ; fileIter =      8760
(PID.TID 0000.0001)     nDims =   2 , dims:
(PID.TID 0000.0001)    1:  10   1  10
(PID.TID 0000.0001)    2:   8   1   8
(PID.TID 0000.0001)     nFlds =   8 , nFl3D =   0 , fields:
(PID.TID 0000.0001)  >siTICE  < >siAREA  < >siHEFF  < >siHSNOW < >siHSALT < >siAGE   < >siUICE  < >siVICE  <
(PID.TID 0000.0001) missingVal=  1.00000000000000E+00 ; nTimRec =   1 , timeList:
(PID.TID 0000.0001)   3.153600000000E+07
(PID.TID 0000.0001) READ_MFLDS_3D_RL: field: "siTICES " missing in file: pickup_seaice.0000000001
(PID.TID 0000.0001) READ_MFLDS_LEV_RL: read field: "siTICE  ", #   1 in fldList, rec=   1
(PID.TID 0000.0001) READ_MFLDS_3D_RL: read field: "siAREA  ", #   2 in fldList, rec=   2
(PID.TID 0000.0001) READ_MFLDS_3D_RL: read field: "siHEFF  ", #   3 in fldList, rec=   3
(PID.TID 0000.0001) READ_MFLDS_3D_RL: read field: "siHSNOW ", #   4 in fldList, rec=   4
(PID.TID 0000.0001) READ_MFLDS_3D_RL: read field: "siHSALT ", #   5 in fldList, rec=   5
(PID.TID 0000.0001) READ_MFLDS_3D_RL: read field: "siUICE  ", #   7 in fldList, rec=   7
(PID.TID 0000.0001) READ_MFLDS_3D_RL: read field: "siVICE  ", #   8 in fldList, rec=   8
(PID.TID 0000.0001) READ_MFLDS_3D_RL: field: "siSigm1 " missing in file: pickup_seaice.0000000001
(PID.TID 0000.0001) READ_MFLDS_3D_RL: field: "siSigm2 " missing in file: pickup_seaice.0000000001
(PID.TID 0000.0001) READ_MFLDS_3D_RL: field: "siSigm12" missing in file: pickup_seaice.0000000001
(PID.TID 0000.0001) // =======================================================
(PID.TID 0000.0001) // Model current state
(PID.TID 0000.0001) // =======================================================
(PID.TID 0000.0001) 
 ph-ice B            0  -1.6099159502251632        0.0000000000000000        0.0000000000000000     
 ph-ice C            0   26866468732.192402     
(PID.TID 0000.0001) SOLVE_FOR_PRESSURE: putPmEinXvector =    F
 cg2d: Sum(rhs),rhsMax =   1.60928057501076E+00  4.53911481785241E-01
 ph-ice B            1  -1.6113904977438871        0.0000000000000000        0.0000000000000000     
 ph-ice C            1   53815339969.653389     
 cg2d: Sum(rhs),rhsMax =   1.39505160319514E+00  4.42528481515470E-01
 ph-ice B            2  -1.6128879291063050        0.0000000000000000        0.0000000000000000     
 ph-ice C            2   80841617899.328568     
 cg2d: Sum(rhs),rhsMax =   1.53750148321780E+00  4.29674201541882E-01
 ph-ice B            3  -1.6145653777121551        0.0000000000000000        0.0000000000000000     
 ph-ice C            3   107941993013.66534     
 cg2d: Sum(rhs),rhsMax =   1.66300803975279E+00  4.46105398534670E-01
 ph-ice B            4  -1.6167939442937158        0.0000000000000000        0.0000000000000000     
 ph-ice C            4   135113296698.15010     
 cg2d: Sum(rhs),rhsMax =   1.82393025546150E+00  4.43087548101565E-01
 ph-ice B            5  -1.6196526058479683        0.0000000000000000        0.0000000000000000     
 ph-ice C            5   162352851272.76947     
 cg2d: Sum(rhs),rhsMax =   1.93707784596302E+00  4.41599464206683E-01
(PID.TID 0000.0001) Did not write pickup because writePickupAtEnd = FALSE
 --> f_ice     = 0.177293993226998D+12
(PID.TID 0000.0001)   early fc =  0.000000000000000D+00
(PID.TID 0000.0001)   local fc =  0.177293993226998D-03
(PID.TID 0000.0001)  global fc =  0.177293993226998D-03
(PID.TID 0000.0001) grdchk perturb(-)fc: fcpertminus =  1.77293993226998E-04
grad-res -------------------------------
 grad-res     0    4    4    3    1    1    1    1   1.77293944180E-04  1.77293895146E-04  1.77293993227E-04
 grad-res     0    4    4    4    0    1    1    1  -4.90402607412E-09 -4.90404507367E-09 -3.87427770243E-06
(PID.TID 0000.0001)  ADM  ref_cost_function      =  1.77293944179767E-04
(PID.TID 0000.0001)  ADM  adjoint_gradient       = -4.90402607411511E-09
(PID.TID 0000.0001)  ADM  finite-diff_grad       = -4.90404507367398E-09
(PID.TID 0000.0001) ====== End of gradient-check number   4 (ierr=  0) =======
(PID.TID 0000.0001) 
(PID.TID 0000.0001) // =======================================================
(PID.TID 0000.0001) // Gradient check results  >>> START <<<
(PID.TID 0000.0001) // =======================================================
(PID.TID 0000.0001) 
(PID.TID 0000.0001)  EPS = 1.000000E-02 ; grdchk CTRL var/file name: "xx_atemp"
(PID.TID 0000.0001) 
(PID.TID 0000.0001) grdchk output h.p:  Id Itile Jtile LAYER   bi   bj   X(Id)           X(Id)+/-EPS
(PID.TID 0000.0001) grdchk output h.c:  Id  FC                   FC1                  FC2
(PID.TID 0000.0001) grdchk output h.g:  Id     FC1-FC2/(2*EPS)      ADJ GRAD(FC)         1-FDGRD/ADGRD
(PID.TID 0000.0001) 
(PID.TID 0000.0001) grdchk output (p):   1     0     0     0    0    0   0.000000000E+00 -1.000000000E-02
(PID.TID 0000.0001) grdchk output (c):   1  1.7729394417977E-04  1.7729385830781E-04  1.7729403014121E-04
(PID.TID 0000.0001) grdchk output (g):   1    -8.5916703750923E-09 -8.5916926906293E-09  2.5973388257938E-06
(PID.TID 0000.0001) 
(PID.TID 0000.0001) grdchk output (p):   2     0     0     0    0    0   0.000000000E+00 -1.000000000E-02
(PID.TID 0000.0001) grdchk output (c):   2  1.7729394417977E-04  1.7729394422698E-04  1.7729394413256E-04
(PID.TID 0000.0001) grdchk output (g):   2     4.7213630032482E-12  4.7212329531976E-12 -2.7545781341232E-05
(PID.TID 0000.0001) 
(PID.TID 0000.0001) grdchk output (p):   3     0     0     0    0    0   0.000000000E+00 -1.000000000E-02
(PID.TID 0000.0001) grdchk output (c):   3  1.7729394417977E-04  1.7729391427862E-04  1.7729397408644E-04
(PID.TID 0000.0001) grdchk output (g):   3    -2.9903910971811E-09 -2.9903317599889E-09 -1.9843013096876E-05
(PID.TID 0000.0001) 
(PID.TID 0000.0001) grdchk output (p):   4     0     0     0    0    0   0.000000000E+00 -1.000000000E-02
(PID.TID 0000.0001) grdchk output (c):   4  1.7729394417977E-04  1.7729389514610E-04  1.7729399322700E-04
(PID.TID 0000.0001) grdchk output (g):   4    -4.9040450736740E-09 -4.9040260741151E-09 -3.8742777024314E-06
(PID.TID 0000.0001) 
(PID.TID 0000.0001) grdchk  summary  :  RMS of    4 ratios =  1.7133822071806E-05
(PID.TID 0000.0001) 
(PID.TID 0000.0001) // =======================================================
(PID.TID 0000.0001) // Gradient check results  >>> END <<<
(PID.TID 0000.0001) // =======================================================
(PID.TID 0000.0001) 
(PID.TID 0000.0001)   Seconds in section "ALL                    [THE_MODEL_MAIN]":
(PID.TID 0000.0001)           User time:   12.260266173630953
(PID.TID 0000.0001)         System time:  0.15426100045442581
(PID.TID 0000.0001)     Wall clock time:   12.467138051986694
(PID.TID 0000.0001)          No. starts:           1
(PID.TID 0000.0001)           No. stops:           1
(PID.TID 0000.0001)   Seconds in section "INITIALISE_FIXED       [THE_MODEL_MAIN]":
(PID.TID 0000.0001)           User time:   2.8979999944567680E-002
(PID.TID 0000.0001)         System time:   1.8196998164057732E-002
(PID.TID 0000.0001)     Wall clock time:   5.3359031677246094E-002
(PID.TID 0000.0001)          No. starts:           1
(PID.TID 0000.0001)           No. stops:           1
(PID.TID 0000.0001)   Seconds in section "ADTHE_MAIN_LOOP          [ADJOINT RUN]":
(PID.TID 0000.0001)           User time:   5.6520918868482113
(PID.TID 0000.0001)         System time:  0.10198299214243889
(PID.TID 0000.0001)     Wall clock time:   5.7832121849060059
(PID.TID 0000.0001)          No. starts:           1
(PID.TID 0000.0001)           No. stops:           1
(PID.TID 0000.0001)   Seconds in section "FORWARD_STEP        [MAIN_DO_LOOP]":
(PID.TID 0000.0001)           User time:   8.2424614205956459
(PID.TID 0000.0001)         System time:   3.0346997082233429E-002
(PID.TID 0000.0001)     Wall clock time:   8.2920556068420410
(PID.TID 0000.0001)          No. starts:          60
(PID.TID 0000.0001)           No. stops:          60
(PID.TID 0000.0001)   Seconds in section "LOAD_FIELDS_DRIVER  [FORWARD_STEP]":
(PID.TID 0000.0001)           User time:   1.8870837986469269E-002
(PID.TID 0000.0001)         System time:   4.2380243539810181E-003
(PID.TID 0000.0001)     Wall clock time:   2.4034976959228516E-002
(PID.TID 0000.0001)          No. starts:          60
(PID.TID 0000.0001)           No. stops:          60
(PID.TID 0000.0001)   Seconds in section "EXF_GETFORCING     [LOAD_FLDS_DRIVER]":
(PID.TID 0000.0001)           User time:   1.5711810439825058E-002
(PID.TID 0000.0001)         System time:   3.5640075802803040E-003
(PID.TID 0000.0001)     Wall clock time:   2.0236968994140625E-002
(PID.TID 0000.0001)          No. starts:          60
(PID.TID 0000.0001)           No. stops:          60
(PID.TID 0000.0001)   Seconds in section "EXTERNAL_FLDS_LOAD [LOAD_FLDS_DRIVER]":
(PID.TID 0000.0001)           User time:   3.0147284269332886E-004
(PID.TID 0000.0001)         System time:   3.3006072044372559E-005
(PID.TID 0000.0001)     Wall clock time:   3.2687187194824219E-004
(PID.TID 0000.0001)          No. starts:          60
(PID.TID 0000.0001)           No. stops:          60
(PID.TID 0000.0001)   Seconds in section "CTRL_MAP_FORCING  [FORWARD_STEP]":
(PID.TID 0000.0001)           User time:   9.5789730548858643E-003
(PID.TID 0000.0001)         System time:   5.9001147747039795E-005
(PID.TID 0000.0001)     Wall clock time:   9.6867084503173828E-003
(PID.TID 0000.0001)          No. starts:          60
(PID.TID 0000.0001)           No. stops:          60
(PID.TID 0000.0001)   Seconds in section "DO_ATMOSPHERIC_PHYS [FORWARD_STEP]":
(PID.TID 0000.0001)           User time:   2.8842911124229431E-003
(PID.TID 0000.0001)         System time:   2.8997659683227539E-005
(PID.TID 0000.0001)     Wall clock time:   2.9275417327880859E-003
(PID.TID 0000.0001)          No. starts:          60
(PID.TID 0000.0001)           No. stops:          60
(PID.TID 0000.0001)   Seconds in section "DO_OCEANIC_PHYS     [FORWARD_STEP]":
(PID.TID 0000.0001)           User time:   6.7087837383151054
(PID.TID 0000.0001)         System time:   1.9984990358352661E-002
(PID.TID 0000.0001)     Wall clock time:   6.7410840988159180
(PID.TID 0000.0001)          No. starts:          60
(PID.TID 0000.0001)           No. stops:          60
(PID.TID 0000.0001)   Seconds in section "SEAICE_MODEL    [DO_OCEANIC_PHYS]":
(PID.TID 0000.0001)           User time:   5.7550503835082054
(PID.TID 0000.0001)         System time:   1.1010318994522095E-003
(PID.TID 0000.0001)     Wall clock time:   5.7662191390991211
(PID.TID 0000.0001)          No. starts:          60
(PID.TID 0000.0001)           No. stops:          60
(PID.TID 0000.0001)   Seconds in section "SEAICE_DYNSOLVER   [SEAICE_MODEL]":
(PID.TID 0000.0001)           User time:   5.7096679098904133
(PID.TID 0000.0001)         System time:   6.9805234670639038E-004
(PID.TID 0000.0001)     Wall clock time:   5.7205288410186768
(PID.TID 0000.0001)          No. starts:          60
(PID.TID 0000.0001)           No. stops:          60
(PID.TID 0000.0001)   Seconds in section "KPP_CALC [DO_OCEANIC_PHYS]":
(PID.TID 0000.0001)           User time:  0.48646575212478638
(PID.TID 0000.0001)         System time:   6.1503052711486816E-004
(PID.TID 0000.0001)     Wall clock time:  0.48819541931152344
(PID.TID 0000.0001)          No. starts:         120
(PID.TID 0000.0001)           No. stops:         120
(PID.TID 0000.0001)   Seconds in section "DYNAMICS            [FORWARD_STEP]":
(PID.TID 0000.0001)           User time:  0.48968544602394104
(PID.TID 0000.0001)         System time:   5.1299482583999634E-004
(PID.TID 0000.0001)     Wall clock time:  0.49112176895141602
(PID.TID 0000.0001)          No. starts:          60
(PID.TID 0000.0001)           No. stops:          60
(PID.TID 0000.0001)   Seconds in section "SOLVE_FOR_PRESSURE  [FORWARD_STEP]":
(PID.TID 0000.0001)           User time:   3.1613349914550781E-002
(PID.TID 0000.0001)         System time:   1.0702013969421387E-004
(PID.TID 0000.0001)     Wall clock time:   3.1804084777832031E-002
(PID.TID 0000.0001)          No. starts:          60
(PID.TID 0000.0001)           No. stops:          60
(PID.TID 0000.0001)   Seconds in section "MOM_CORRECTION_STEP [FORWARD_STEP]":
(PID.TID 0000.0001)           User time:   3.1068548560142517E-002
(PID.TID 0000.0001)         System time:   2.8997659683227539E-005
(PID.TID 0000.0001)     Wall clock time:   3.1210184097290039E-002
(PID.TID 0000.0001)          No. starts:          60
(PID.TID 0000.0001)           No. stops:          60
(PID.TID 0000.0001)   Seconds in section "INTEGR_CONTINUITY   [FORWARD_STEP]":
(PID.TID 0000.0001)           User time:   1.1230319738388062E-002
(PID.TID 0000.0001)         System time:   9.9837779998779297E-006
(PID.TID 0000.0001)     Wall clock time:   1.1273860931396484E-002
(PID.TID 0000.0001)          No. starts:          60
(PID.TID 0000.0001)           No. stops:          60
(PID.TID 0000.0001)   Seconds in section "BLOCKING_EXCHANGES  [FORWARD_STEP]":
(PID.TID 0000.0001)           User time:   3.5497784614562988E-002
(PID.TID 0000.0001)         System time:   2.5995075702667236E-005
(PID.TID 0000.0001)     Wall clock time:   3.5625457763671875E-002
(PID.TID 0000.0001)          No. starts:         120
(PID.TID 0000.0001)           No. stops:         120
(PID.TID 0000.0001)   Seconds in section "THERMODYNAMICS      [FORWARD_STEP]":
(PID.TID 0000.0001)           User time:  0.88624195754528046
(PID.TID 0000.0001)         System time:   4.7603994607925415E-004
(PID.TID 0000.0001)     Wall clock time:  0.88871884346008301
(PID.TID 0000.0001)          No. starts:          60
(PID.TID 0000.0001)           No. stops:          60
(PID.TID 0000.0001)   Seconds in section "TRC_CORRECTION_STEP [FORWARD_STEP]":
(PID.TID 0000.0001)           User time:   2.9757618904113770E-004
(PID.TID 0000.0001)         System time:   6.9886445999145508E-006
(PID.TID 0000.0001)     Wall clock time:   3.0732154846191406E-004
(PID.TID 0000.0001)          No. starts:          60
(PID.TID 0000.0001)           No. stops:          60
(PID.TID 0000.0001)   Seconds in section "MONITOR             [FORWARD_STEP]":
(PID.TID 0000.0001)           User time:   7.4231326580047607E-003
(PID.TID 0000.0001)         System time:   9.5985829830169678E-005
(PID.TID 0000.0001)     Wall clock time:   7.5144767761230469E-003
(PID.TID 0000.0001)          No. starts:          60
(PID.TID 0000.0001)           No. stops:          60
(PID.TID 0000.0001)   Seconds in section "COST_TILE           [FORWARD_STEP]":
(PID.TID 0000.0001)           User time:   2.9993057250976562E-004
(PID.TID 0000.0001)         System time:   1.0997056961059570E-005
(PID.TID 0000.0001)     Wall clock time:   3.0803680419921875E-004
(PID.TID 0000.0001)          No. starts:          60
(PID.TID 0000.0001)           No. stops:          60
(PID.TID 0000.0001)   Seconds in section "DO_THE_MODEL_IO     [FORWARD_STEP]":
(PID.TID 0000.0001)           User time:   2.7147680521011353E-003
(PID.TID 0000.0001)         System time:   3.3039972186088562E-003
(PID.TID 0000.0001)     Wall clock time:   8.3680152893066406E-003
(PID.TID 0000.0001)          No. starts:          60
(PID.TID 0000.0001)           No. stops:          60
(PID.TID 0000.0001)   Seconds in section "DO_WRITE_PICKUP     [FORWARD_STEP]":
(PID.TID 0000.0001)           User time:   9.2081725597381592E-004
(PID.TID 0000.0001)         System time:   1.1599808931350708E-003
(PID.TID 0000.0001)     Wall clock time:   2.9203891754150391E-003
(PID.TID 0000.0001)          No. starts:          60
(PID.TID 0000.0001)           No. stops:          60
(PID.TID 0000.0001)   Seconds in section "GRDCHK_MAIN         [THE_MODEL_MAIN]":
(PID.TID 0000.0001)           User time:   6.5791645050048828
(PID.TID 0000.0001)         System time:   3.4060999751091003E-002
(PID.TID 0000.0001)     Wall clock time:   6.6305308341979980
(PID.TID 0000.0001)          No. starts:           1
(PID.TID 0000.0001)           No. stops:           1
(PID.TID 0000.0001)   Seconds in section "INITIALISE_VARIA    [THE_MAIN_LOOP]":
(PID.TID 0000.0001)           User time:   3.6945819854736328E-002
(PID.TID 0000.0001)         System time:   1.2165009975433350E-002
(PID.TID 0000.0001)     Wall clock time:   4.9216985702514648E-002
(PID.TID 0000.0001)          No. starts:           8
(PID.TID 0000.0001)           No. stops:           8
(PID.TID 0000.0001)   Seconds in section "MAIN LOOP           [THE_MAIN_LOOP]":
(PID.TID 0000.0001)           User time:   6.5410070419311523
(PID.TID 0000.0001)         System time:   1.9755005836486816E-002
(PID.TID 0000.0001)     Wall clock time:   6.5755310058593750
(PID.TID 0000.0001)          No. starts:           8
(PID.TID 0000.0001)           No. stops:           8
(PID.TID 0000.0001)   Seconds in section "MAIN_DO_LOOP        [THE_MAIN_LOOP]":
(PID.TID 0000.0001)           User time:   6.5403141975402832
(PID.TID 0000.0001)         System time:   1.8008008599281311E-002
(PID.TID 0000.0001)     Wall clock time:   6.5730874538421631
(PID.TID 0000.0001)          No. starts:          48
(PID.TID 0000.0001)           No. stops:          48
(PID.TID 0000.0001)   Seconds in section "COST_FINAL         [ADJOINT SPIN-DOWN]":
(PID.TID 0000.0001)           User time:   2.4509429931640625E-004
(PID.TID 0000.0001)         System time:   1.7309933900833130E-003
(PID.TID 0000.0001)     Wall clock time:   1.9829273223876953E-003
(PID.TID 0000.0001)          No. starts:           8
(PID.TID 0000.0001)           No. stops:           8
(PID.TID 0000.0001) // ======================================================
(PID.TID 0000.0001) // Tile <-> Tile communication statistics
(PID.TID 0000.0001) // ======================================================
(PID.TID 0000.0001) // o Tile number: 000001
(PID.TID 0000.0001) //         No. X exchanges =              0
(PID.TID 0000.0001) //            Max. X spins =              0
(PID.TID 0000.0001) //            Min. X spins =     1000000000
(PID.TID 0000.0001) //          Total. X spins =              0
(PID.TID 0000.0001) //            Avg. X spins =       0.00E+00
(PID.TID 0000.0001) //         No. Y exchanges =              0
(PID.TID 0000.0001) //            Max. Y spins =              0
(PID.TID 0000.0001) //            Min. Y spins =     1000000000
(PID.TID 0000.0001) //          Total. Y spins =              0
(PID.TID 0000.0001) //            Avg. Y spins =       0.00E+00
(PID.TID 0000.0001) // o Tile number: 000002
(PID.TID 0000.0001) //         No. X exchanges =              0
(PID.TID 0000.0001) //            Max. X spins =              0
(PID.TID 0000.0001) //            Min. X spins =     1000000000
(PID.TID 0000.0001) //          Total. X spins =              0
(PID.TID 0000.0001) //            Avg. X spins =       0.00E+00
(PID.TID 0000.0001) //         No. Y exchanges =              0
(PID.TID 0000.0001) //            Max. Y spins =              0
(PID.TID 0000.0001) //            Min. Y spins =     1000000000
(PID.TID 0000.0001) //          Total. Y spins =              0
(PID.TID 0000.0001) //            Avg. Y spins =       0.00E+00
(PID.TID 0000.0001) // o Thread number: 000001
(PID.TID 0000.0001) //            No. barriers =          22768
(PID.TID 0000.0001) //      Max. barrier spins =              1
(PID.TID 0000.0001) //      Min. barrier spins =              1
(PID.TID 0000.0001) //     Total barrier spins =          22768
(PID.TID 0000.0001) //      Avg. barrier spins =       1.00E+00
PROGRAM MAIN: Execution ended Normally
