(PID.TID 0000.0001) 
(PID.TID 0000.0001) // ======================================================
(PID.TID 0000.0001) //                      MITgcm UV
(PID.TID 0000.0001) //                      =========
(PID.TID 0000.0001) // ======================================================
(PID.TID 0000.0001) // execution environment starting up...
(PID.TID 0000.0001) 
(PID.TID 0000.0001) // MITgcmUV version:  checkpoint68w
(PID.TID 0000.0001) // Build user:        mlosch
(PID.TID 0000.0001) // Build host:        bkli04m056
(PID.TID 0000.0001) // Build date:        Thu Apr 18 09:53:35 CEST 2024
(PID.TID 0000.0001) 
(PID.TID 0000.0001) // =======================================================
(PID.TID 0000.0001) // Execution Environment parameter file "eedata"
(PID.TID 0000.0001) // =======================================================
(PID.TID 0000.0001) ># Example "eedata" file
(PID.TID 0000.0001) ># Lines beginning "#" are comments
(PID.TID 0000.0001) ># nTx - No. threads per process in X
(PID.TID 0000.0001) ># nTy - No. threads per process in Y
(PID.TID 0000.0001) > &EEPARMS
(PID.TID 0000.0001) > nTx=1,
(PID.TID 0000.0001) > nTy=1,
(PID.TID 0000.0001) > /
(PID.TID 0000.0001) ># Note: Some systems use & as the namelist terminator (as shown here).
(PID.TID 0000.0001) >#       Other systems use a / character.
(PID.TID 0000.0001) 
(PID.TID 0000.0001) // =======================================================
(PID.TID 0000.0001) // Computational Grid Specification ( see files "SIZE.h" )
(PID.TID 0000.0001) //                                  ( and "eedata"       )
(PID.TID 0000.0001) // =======================================================
(PID.TID 0000.0001)      nPx =    1 ; /* No. processes in X */
(PID.TID 0000.0001)      nPy =    1 ; /* No. processes in Y */
(PID.TID 0000.0001)      nSx =    2 ; /* No. tiles in X per process */
(PID.TID 0000.0001)      nSy =    1 ; /* No. tiles in Y per process */
(PID.TID 0000.0001)      sNx =    5 ; /* Tile size in X */
(PID.TID 0000.0001)      sNy =    8 ; /* Tile size in Y */
(PID.TID 0000.0001)      OLx =    4 ; /* Tile overlap distance in X */
(PID.TID 0000.0001)      OLy =    4 ; /* Tile overlap distance in Y */
(PID.TID 0000.0001)      nTx =    1 ; /* No. threads in X per process */
(PID.TID 0000.0001)      nTy =    1 ; /* No. threads in Y per process */
(PID.TID 0000.0001)       Nr =   23 ; /* No. levels in the vertical   */
(PID.TID 0000.0001)       Nx =   10 ; /* Total domain size in X ( = nPx*nSx*sNx ) */
(PID.TID 0000.0001)       Ny =    8 ; /* Total domain size in Y ( = nPy*nSy*sNy ) */
(PID.TID 0000.0001)   nTiles =    2 ; /* Total no. tiles per process ( = nSx*nSy ) */
(PID.TID 0000.0001)   nProcs =    1 ; /* Total no. processes ( = nPx*nPy ) */
(PID.TID 0000.0001) nThreads =    1 ; /* Total no. threads per process ( = nTx*nTy ) */
(PID.TID 0000.0001) usingMPI =    F ; /* Flag used to control whether MPI is in use */
(PID.TID 0000.0001)                   /*  note: To execute a program with MPI calls */
(PID.TID 0000.0001)                   /*  it must be launched appropriately e.g     */
(PID.TID 0000.0001)                   /*  "mpirun -np 64 ......"                    */
(PID.TID 0000.0001) useCoupler=   F ; /* Flag used to control communications with   */
(PID.TID 0000.0001)                   /*  other model components, through a coupler */
(PID.TID 0000.0001) useNest2W_parent =    F ;/* Control 2-W Nesting comm */
(PID.TID 0000.0001) useNest2W_child  =    F ;/* Control 2-W Nesting comm */
(PID.TID 0000.0001) debugMode =    F ; /* print debug msg. (sequence of S/R calls)  */
(PID.TID 0000.0001) printMapIncludesZeros=    F ; /* print zeros in Std.Output maps */
(PID.TID 0000.0001) maxLengthPrt1D=   65 /* maxLength of 1D array printed to StdOut */
(PID.TID 0000.0001) 
(PID.TID 0000.0001) // ======================================================
(PID.TID 0000.0001) // Mapping of tiles to threads
(PID.TID 0000.0001) // ======================================================
(PID.TID 0000.0001) // -o- Thread   1, tiles (   1:   2,   1:   1)
(PID.TID 0000.0001) 
(PID.TID 0000.0001) // ======================================================
(PID.TID 0000.0001) // Tile <-> Tile connectvity table
(PID.TID 0000.0001) // ======================================================
(PID.TID 0000.0001) // Tile number: 000001 (process no. = 000000)
(PID.TID 0000.0001) //        WEST: Tile = 000002, Process = 000000, Comm = put
(PID.TID 0000.0001) //                bi = 000002, bj = 000001
(PID.TID 0000.0001) //        EAST: Tile = 000002, Process = 000000, Comm = put
(PID.TID 0000.0001) //                bi = 000002, bj = 000001
(PID.TID 0000.0001) //       SOUTH: Tile = 000001, Process = 000000, Comm = put
(PID.TID 0000.0001) //                bi = 000001, bj = 000001
(PID.TID 0000.0001) //       NORTH: Tile = 000001, Process = 000000, Comm = put
(PID.TID 0000.0001) //                bi = 000001, bj = 000001
(PID.TID 0000.0001) // Tile number: 000002 (process no. = 000000)
(PID.TID 0000.0001) //        WEST: Tile = 000001, Process = 000000, Comm = put
(PID.TID 0000.0001) //                bi = 000001, bj = 000001
(PID.TID 0000.0001) //        EAST: Tile = 000001, Process = 000000, Comm = put
(PID.TID 0000.0001) //                bi = 000001, bj = 000001
(PID.TID 0000.0001) //       SOUTH: Tile = 000002, Process = 000000, Comm = put
(PID.TID 0000.0001) //                bi = 000002, bj = 000001
(PID.TID 0000.0001) //       NORTH: Tile = 000002, Process = 000000, Comm = put
(PID.TID 0000.0001) //                bi = 000002, bj = 000001
(PID.TID 0000.0001) 
(PID.TID 0000.0001)  INI_PARMS: opening model parameter file "data"
(PID.TID 0000.0001)  OPEN_COPY_DATA_FILE: opening file data
(PID.TID 0000.0001) // =======================================================
(PID.TID 0000.0001) // Parameter file "data"
(PID.TID 0000.0001) // =======================================================
(PID.TID 0000.0001) ># ====================
(PID.TID 0000.0001) ># | Model parameters |
(PID.TID 0000.0001) ># ====================
(PID.TID 0000.0001) >#
(PID.TID 0000.0001) ># Continuous equation parameters
(PID.TID 0000.0001) >#   tRef            - Reference vertical potential temperature          (deg C)
(PID.TID 0000.0001) >#   sRef            - Reference vertical salinity                         (PSU)
(PID.TID 0000.0001) >#   viscAh          - Horizontal eddy viscosity coefficient             (m^2/s)
(PID.TID 0000.0001) >#   viscAz          - Vertical eddy viscosity coefficient               (m^2/s)
(PID.TID 0000.0001) >#   diffKhT         - Horizontal temperature diffusivity                (m^2/s)
(PID.TID 0000.0001) >#   diffKzT         - Vertical temperature diffusivity                  (m^2/s)
(PID.TID 0000.0001) >#   diffKhS         - Horizontal salt diffusivity                       (m^2/s)
(PID.TID 0000.0001) >#   diffKzS         - Vertical salt diffusivity                         (m^2/s)
(PID.TID 0000.0001) >#   gravity         - Acceleration due to gravity                       (m/s^2)
(PID.TID 0000.0001) >#   rigidLid        - Set to true to use rigid lid
(PID.TID 0000.0001) >#   implicitFreeSurface - Set to true to use implicit free surface
(PID.TID 0000.0001) >#   eosType         - Flag for linear or polynomial equation of state
(PID.TID 0000.0001) >#   momAdvection    - On/Off flag for momentum self transport
(PID.TID 0000.0001) >#   momViscosity    - On/Off flag for momentum mixing
(PID.TID 0000.0001) >#
(PID.TID 0000.0001) > &PARM01
(PID.TID 0000.0001) > tRef= 24.0 , 23.0 , 22.0 , 21.0 , 20.0 ,
(PID.TID 0000.0001) >       19.0 , 18.0 , 17.0 , 16.0 , 15.0 ,
(PID.TID 0000.0001) >       14.0 , 13.0 , 12.0 , 11.0 , 10.0 ,
(PID.TID 0000.0001) >        9.0 ,  8.0 ,  7.0 ,  6.0,   5.0 ,
(PID.TID 0000.0001) >        4.0 ,  3.0 ,  2.0 ,
(PID.TID 0000.0001) > sRef= 34.65, 34.75, 34.82, 34.87, 34.90,
(PID.TID 0000.0001) >       34.90, 34.86, 34.78, 34.69, 34.60,
(PID.TID 0000.0001) >       34.58, 34.62, 34.68, 34.72, 34.73,
(PID.TID 0000.0001) >       34.74, 34.73, 34.73, 34.72, 34.72,
(PID.TID 0000.0001) >       34.71, 34.70, 34.69,
(PID.TID 0000.0001) > no_slip_sides=.FALSE.,
(PID.TID 0000.0001) > no_slip_bottom=.TRUE.,
(PID.TID 0000.0001) > viscAz=1.93e-5,
(PID.TID 0000.0001) > viscAh=5.E4,
(PID.TID 0000.0001) > diffKhT=0.0,
(PID.TID 0000.0001) > diffKzT=1.46e-5,
(PID.TID 0000.0001) > diffKhS=0.0,
(PID.TID 0000.0001) > diffKzS=1.46e-5,
(PID.TID 0000.0001) >#- put small value (<< stab.limit ~ 2.e15) only to test biharmonic-diffusivity:
(PID.TID 0000.0001) > diffK4T=1.E11,
(PID.TID 0000.0001) > diffK4S=1.E11,
(PID.TID 0000.0001) >#-
(PID.TID 0000.0001) > rigidLid=.FALSE.,
(PID.TID 0000.0001) > implicitFreeSurface=.TRUE.,
(PID.TID 0000.0001) > eosType='JMD95Z',
(PID.TID 0000.0001) > selectCoriScheme=2,
(PID.TID 0000.0001) > implicitDiffusion=.TRUE.,
(PID.TID 0000.0001) > implicitViscosity=.TRUE.,
(PID.TID 0000.0001) > staggerTimeStep=.TRUE.,
(PID.TID 0000.0001) > tempAdvScheme =7,
(PID.TID 0000.0001) > saltAdvScheme =7,
(PID.TID 0000.0001) > convertFW2Salt=-1,
(PID.TID 0000.0001) >#- set wrong celsius2K to reproduce old results:
(PID.TID 0000.0001) > celsius2K=273.16,
(PID.TID 0000.0001) > HeatCapacity_Cp = 3986.E0,
(PID.TID 0000.0001) > gravity         = 9.8156,
(PID.TID 0000.0001) > rhoConst        = 1027.E0,
(PID.TID 0000.0001) > rhoConstFresh   = 999.8,
(PID.TID 0000.0001) > useSingleCpuIO=.TRUE.,
(PID.TID 0000.0001) > readBinaryPrec=32,
(PID.TID 0000.0001) > writeBinaryPrec=32,
(PID.TID 0000.0001) > /
(PID.TID 0000.0001) >
(PID.TID 0000.0001) ># Elliptic solver parameters
(PID.TID 0000.0001) >#   cg2dMaxIters       - Maximum number of 2d solver iterations
(PID.TID 0000.0001) >#   cg2dTargetResidual - Solver target residual
(PID.TID 0000.0001) >#
(PID.TID 0000.0001) > &PARM02
(PID.TID 0000.0001) > cg2dMaxIters=500,
(PID.TID 0000.0001) > cg2dTargetResidual=1.E-12,
(PID.TID 0000.0001) > /
(PID.TID 0000.0001) >
(PID.TID 0000.0001) ># Time stepping parameters
(PID.TID 0000.0001) >#   startTime         - Integration starting time                (s)
(PID.TID 0000.0001) >#   endTime           - Integration ending time                  (s)
(PID.TID 0000.0001) >#   deltaTMom         - Timestep for momemtum equations          (s)
(PID.TID 0000.0001) >#   deltaTtracer      - Tracer timestep                          (s)
(PID.TID 0000.0001) >#   deltaTClock       - Timestep used as model "clock"           (s)
(PID.TID 0000.0001) >#   abEps             - Adams-Bashforth stabilising factor
(PID.TID 0000.0001) >#   pChkPtFreq        - Frequency of permanent check pointing    (s)
(PID.TID 0000.0001) >#   chkPtFreq         - Frequency of rolling check pointing      (s)
(PID.TID 0000.0001) >#   dumpFreq          - Frequency at which model state is stored (s)
(PID.TID 0000.0001) >#   tauThetaClimRelax - Relaxation to climatology time scale     (s)
(PID.TID 0000.0001) >#   tauSaltClimRelax  - Relaxation to climatology time scale     (s)
(PID.TID 0000.0001) >#
(PID.TID 0000.0001) > &PARM03
(PID.TID 0000.0001) > startTime=3600.0,
(PID.TID 0000.0001) > endTime=21600.,
(PID.TID 0000.0001) > deltaT= 3600.0,
(PID.TID 0000.0001) > cAdjFreq=0.,
(PID.TID 0000.0001) > abEps=0.1,
(PID.TID 0000.0001) > forcing_In_AB = .FALSE.,
(PID.TID 0000.0001) > pChkptFreq=36000.,
(PID.TID 0000.0001) > chkptFreq= 0.,
(PID.TID 0000.0001) > dumpFreq = 0.,
(PID.TID 0000.0001) > taveFreq = 36000.,
(PID.TID 0000.0001) > monitorFreq=1.,
(PID.TID 0000.0001) > pickupStrictlyMatch=.FALSE.,
(PID.TID 0000.0001) > /
(PID.TID 0000.0001) >
(PID.TID 0000.0001) ># Gridding parameters
(PID.TID 0000.0001) >#   usingSphericalPolarGrid - On/Off flag for spherical polar coordinates
(PID.TID 0000.0001) >#   delX                    - Zonal grid spacing         (degrees)
(PID.TID 0000.0001) >#   delY                    - Meridional grid spacing    (degrees)
(PID.TID 0000.0001) >#   delZ                    - Vertical grid spacing      (m)
(PID.TID 0000.0001) >#   ygOrigin                - Southern boundary latitude (degrees)
(PID.TID 0000.0001) >#
(PID.TID 0000.0001) > &PARM04
(PID.TID 0000.0001) > usingSphericalPolarGrid=.TRUE.,
(PID.TID 0000.0001) > delX=10*2.E0,
(PID.TID 0000.0001) > delY= 8*2.E0,
(PID.TID 0000.0001) > delZ= 10., 10., 15., 20., 20., 25., 35., 50., 75.,
(PID.TID 0000.0001) >       100., 150., 200., 275., 350., 415., 450.,
(PID.TID 0000.0001) >       500., 500., 500., 500., 500., 500., 500.,
(PID.TID 0000.0001) > ygOrigin=46.,
(PID.TID 0000.0001) > xgOrigin=280.,
(PID.TID 0000.0001) > rSphere = 6371.D3,
(PID.TID 0000.0001) > /
(PID.TID 0000.0001) >
(PID.TID 0000.0001) ># Input datasets
(PID.TID 0000.0001) >#   bathyFile       - File containing bathymetry
(PID.TID 0000.0001) >#   hydrogThetaFile - File containing initial potential temperature data
(PID.TID 0000.0001) >#   hydrogSaltFile  - File containing initial salinity data
(PID.TID 0000.0001) >#   zonalWindFile   - File containing zonal wind data
(PID.TID 0000.0001) >#   meridWindFile   - File containing meridional wind data
(PID.TID 0000.0001) >#   thetaClimFile   - File containing theta climatology used for relaxation
(PID.TID 0000.0001) >#   saltClimFile    - File containing salt climatology used for relaxation
(PID.TID 0000.0001) >#
(PID.TID 0000.0001) > &PARM05
(PID.TID 0000.0001) > bathyFile       = 'bathy.seaice_obcs',
(PID.TID 0000.0001) > /
(PID.TID 0000.0001) 
(PID.TID 0000.0001)  INI_PARMS ; starts to read PARM01
(PID.TID 0000.0001)  INI_PARMS ; read PARM01 : OK
(PID.TID 0000.0001)  INI_PARMS ; starts to read PARM02
(PID.TID 0000.0001)  INI_PARMS ; read PARM02 : OK
(PID.TID 0000.0001)  INI_PARMS ; starts to read PARM03
(PID.TID 0000.0001)  INI_PARMS ; read PARM03 : OK
(PID.TID 0000.0001)  INI_PARMS ; starts to read PARM04
(PID.TID 0000.0001)  INI_PARMS ; read PARM04 : OK
(PID.TID 0000.0001)  INI_PARMS ; starts to read PARM05
(PID.TID 0000.0001)  INI_PARMS ; read PARM05 : OK
(PID.TID 0000.0001)  INI_PARMS: finished reading file "data"
(PID.TID 0000.0001)  PACKAGES_BOOT: opening data.pkg
(PID.TID 0000.0001)  OPEN_COPY_DATA_FILE: opening file data.pkg
(PID.TID 0000.0001) // =======================================================
(PID.TID 0000.0001) // Parameter file "data.pkg"
(PID.TID 0000.0001) // =======================================================
(PID.TID 0000.0001) ># Packages
(PID.TID 0000.0001) > &PACKAGES
(PID.TID 0000.0001) >  useGMRedi = .TRUE.,
(PID.TID 0000.0001) >  useKPP    = .TRUE.,
(PID.TID 0000.0001) >  useEXF    = .TRUE.,
(PID.TID 0000.0001) >  useCAL    = .TRUE.,
(PID.TID 0000.0001) >  useSEAICE = .TRUE.,
(PID.TID 0000.0001) >  useSALT_PLUME  = .TRUE.,
(PID.TID 0000.0001) >  useOBCS        = .TRUE.,
(PID.TID 0000.0001) > /
(PID.TID 0000.0001) 
(PID.TID 0000.0001)  PACKAGES_BOOT: finished reading data.pkg
(PID.TID 0000.0001)  PACKAGES_BOOT: On/Off package Summary
 --------  pkgs with a standard "usePKG" On/Off switch in "data.pkg":  --------
 pkg/obcs                 compiled   and   used ( useOBCS                  = T )
 pkg/kpp                  compiled   and   used ( useKPP                   = T )
 pkg/gmredi               compiled   and   used ( useGMRedi                = T )
 pkg/cal                  compiled   and   used ( useCAL                   = T )
 pkg/exf                  compiled   and   used ( useEXF                   = T )
 pkg/seaice               compiled   and   used ( useSEAICE                = T )
 pkg/salt_plume           compiled   and   used ( useSALT_PLUME            = T )
 -------- pkgs without standard "usePKG" On/Off switch in "data.pkg":  --------
 pkg/generic_advdiff      compiled   and   used ( useGAD                   = T )
 pkg/mom_common           compiled   and   used ( momStepping              = T )
 pkg/mom_vecinv           compiled but not used ( +vectorInvariantMomentum = F )
 pkg/mom_fluxform         compiled   and   used ( & not vectorInvariantMom = T )
 pkg/monitor              compiled   and   used ( monitorFreq > 0.         = T )
 pkg/timeave              compiled   and   used ( taveFreq > 0.            = T )
 pkg/debug                compiled but not used ( debugMode                = F )
 pkg/rw                   compiled   and   used
 pkg/mdsio                compiled   and   used
(PID.TID 0000.0001)  PACKAGES_BOOT: End of package Summary
(PID.TID 0000.0001) 
(PID.TID 0000.0001) CAL_READPARMS: opening data.cal
(PID.TID 0000.0001)  OPEN_COPY_DATA_FILE: opening file data.cal
(PID.TID 0000.0001) // =======================================================
(PID.TID 0000.0001) // Parameter file "data.cal"
(PID.TID 0000.0001) // =======================================================
(PID.TID 0000.0001) >#
(PID.TID 0000.0001) ># *******************
(PID.TID 0000.0001) ># Calendar Parameters
(PID.TID 0000.0001) ># *******************
(PID.TID 0000.0001) > &CAL_NML
(PID.TID 0000.0001) > TheCalendar='gregorian',
(PID.TID 0000.0001) > startDate_1=19790101,
(PID.TID 0000.0001) > startDate_2=000000,
(PID.TID 0000.0001) > /
(PID.TID 0000.0001) 
(PID.TID 0000.0001) CAL_READPARMS: finished reading data.cal
(PID.TID 0000.0001) EXF_READPARMS: opening data.exf
(PID.TID 0000.0001)  OPEN_COPY_DATA_FILE: opening file data.exf
(PID.TID 0000.0001) // =======================================================
(PID.TID 0000.0001) // Parameter file "data.exf"
(PID.TID 0000.0001) // =======================================================
(PID.TID 0000.0001) >#
(PID.TID 0000.0001) ># *********************
(PID.TID 0000.0001) ># External Forcing Data
(PID.TID 0000.0001) ># *********************
(PID.TID 0000.0001) > &EXF_NML_01
(PID.TID 0000.0001) >#
(PID.TID 0000.0001) > useExfCheckRange  = .TRUE.,
(PID.TID 0000.0001) > repeatPeriod      = 31622400.0,
(PID.TID 0000.0001) > exf_iprec         = 32,
(PID.TID 0000.0001) >#
(PID.TID 0000.0001) > /
(PID.TID 0000.0001) >
(PID.TID 0000.0001) ># *********************
(PID.TID 0000.0001) > &EXF_NML_02
(PID.TID 0000.0001) >#
(PID.TID 0000.0001) > hfluxstartdate1   = 19781216,
(PID.TID 0000.0001) > hfluxstartdate2   = 180000,
(PID.TID 0000.0001) > hfluxperiod       = 2635200.0,
(PID.TID 0000.0001) >#
(PID.TID 0000.0001) > sfluxstartdate1   = 19781216,
(PID.TID 0000.0001) > sfluxstartdate2   = 180000,
(PID.TID 0000.0001) > sfluxperiod       = 2635200.0,
(PID.TID 0000.0001) >#
(PID.TID 0000.0001) > ustressstartdate1 = 19781216,
(PID.TID 0000.0001) > ustressstartdate2 = 180000,
(PID.TID 0000.0001) > ustressperiod     = 2635200.0,
(PID.TID 0000.0001) >#
(PID.TID 0000.0001) > vstressstartdate1 = 19781216,
(PID.TID 0000.0001) > vstressstartdate2 = 180000,
(PID.TID 0000.0001) > vstressperiod     = 2635200.0,
(PID.TID 0000.0001) >#
(PID.TID 0000.0001) > atempstartdate1   = 19781216,
(PID.TID 0000.0001) > atempstartdate2   = 180000,
(PID.TID 0000.0001) > atempperiod       = 2635200.0,
(PID.TID 0000.0001) >#
(PID.TID 0000.0001) > aqhstartdate1     = 19781216,
(PID.TID 0000.0001) > aqhstartdate2     = 180000,
(PID.TID 0000.0001) > aqhperiod         = 2635200.0,
(PID.TID 0000.0001) >#
(PID.TID 0000.0001) >#evapstartdate1    = 19781216,
(PID.TID 0000.0001) >#evapstartdate2    = 180000,
(PID.TID 0000.0001) >#evapperiod        = 2635200.0,
(PID.TID 0000.0001) >#
(PID.TID 0000.0001) > precipstartdate1  = 19781216,
(PID.TID 0000.0001) > precipstartdate2  = 180000,
(PID.TID 0000.0001) > precipperiod      = 2635200.0,
(PID.TID 0000.0001) >#
(PID.TID 0000.0001) > uwindstartdate1   = 19781216,
(PID.TID 0000.0001) > uwindstartdate2   = 180000,
(PID.TID 0000.0001) > uwindperiod       = 2635200.0,
(PID.TID 0000.0001) >#
(PID.TID 0000.0001) > vwindstartdate1   = 19781216,
(PID.TID 0000.0001) > vwindstartdate2   = 180000,
(PID.TID 0000.0001) > vwindperiod       = 2635200.0,
(PID.TID 0000.0001) >#
(PID.TID 0000.0001) > swfluxstartdate1  = 19781216,
(PID.TID 0000.0001) > swfluxstartdate2  = 180000,
(PID.TID 0000.0001) > swfluxperiod      = 2635200.0,
(PID.TID 0000.0001) >#
(PID.TID 0000.0001) > lwfluxstartdate1  = 19781216,
(PID.TID 0000.0001) > lwfluxstartdate2  = 180000,
(PID.TID 0000.0001) > lwfluxperiod      = 2635200.0,
(PID.TID 0000.0001) >#
(PID.TID 0000.0001) > swdownstartdate1  = 19781216,
(PID.TID 0000.0001) > swdownstartdate2  = 180000,
(PID.TID 0000.0001) > swdownperiod      = 2635200.0,
(PID.TID 0000.0001) >#
(PID.TID 0000.0001) > lwdownstartdate1  = 19781216,
(PID.TID 0000.0001) > lwdownstartdate2  = 180000,
(PID.TID 0000.0001) > lwdownperiod      = 2635200.0,
(PID.TID 0000.0001) >#
(PID.TID 0000.0001) > climsststartdate1  = 19781216,
(PID.TID 0000.0001) > climsststartdate2  = 180000,
(PID.TID 0000.0001) > climsstperiod      = 2635200.0,
(PID.TID 0000.0001) > climsstTauRelax    = 0.0,
(PID.TID 0000.0001) >#
(PID.TID 0000.0001) > climsssstartdate1  = 19781216,
(PID.TID 0000.0001) > climsssstartdate2  = 180000,
(PID.TID 0000.0001) > climsssperiod      = 2635200.0,
(PID.TID 0000.0001) > climsssTauRelax    = 4142330.0,
(PID.TID 0000.0001) >#
(PID.TID 0000.0001) > hfluxfile         = ' ',
(PID.TID 0000.0001) > sfluxfile         = ' ',
(PID.TID 0000.0001) > ustressfile       = ' ',
(PID.TID 0000.0001) > vstressfile       = ' ',
(PID.TID 0000.0001) > atempfile         = 'tair.labsea1979',
(PID.TID 0000.0001) > aqhfile           = 'qa.labsea1979',
(PID.TID 0000.0001) > uwindfile         = 'u10m.labsea1979',
(PID.TID 0000.0001) > vwindfile         = 'v10m.labsea1979',
(PID.TID 0000.0001) >#evapfile          = 'evap.labsea1979',
(PID.TID 0000.0001) > precipfile        = 'prate.labsea1979',
(PID.TID 0000.0001) > lwfluxfile        = ' ',
(PID.TID 0000.0001) > swfluxfile        = ' ',
(PID.TID 0000.0001) > lwdownfile        = 'flo.labsea1979',
(PID.TID 0000.0001) > swdownfile        = 'fsh.labsea1979',
(PID.TID 0000.0001) > runoffFile        = ' '
(PID.TID 0000.0001) > climsstfile       = ' ',
(PID.TID 0000.0001) > climsssfile       = 'SSS_monthly.labsea1979',
(PID.TID 0000.0001) >#
(PID.TID 0000.0001) > /
(PID.TID 0000.0001) >
(PID.TID 0000.0001) ># *********************
(PID.TID 0000.0001) > &EXF_NML_03
(PID.TID 0000.0001) > /
(PID.TID 0000.0001) >
(PID.TID 0000.0001) ># *********************
(PID.TID 0000.0001) ># old open64 compiler (4.2.1) cannot skip this namelist to read in the next one;
(PID.TID 0000.0001) ># comment out this namelist (not read).
(PID.TID 0000.0001) >#&EXF_NML_04
(PID.TID 0000.0001) >#&
(PID.TID 0000.0001) >
(PID.TID 0000.0001) ># *********************
(PID.TID 0000.0001) > &EXF_NML_OBCS
(PID.TID 0000.0001) > obcsSstartdate1   = 19790101,
(PID.TID 0000.0001) > obcsSstartdate2   = 000000,
(PID.TID 0000.0001) > obcsSperiod       = 3600.0,
(PID.TID 0000.0001) >#
(PID.TID 0000.0001) > obcsNstartdate1   = 19790101,
(PID.TID 0000.0001) > obcsNstartdate2   = 000000,
(PID.TID 0000.0001) > obcsNperiod       = 3600.0,
(PID.TID 0000.0001) >#
(PID.TID 0000.0001) > obcsWstartdate1   = 19790101,
(PID.TID 0000.0001) > obcsWstartdate2   = 000000,
(PID.TID 0000.0001) > obcsWperiod       = 3600.0,
(PID.TID 0000.0001) >#
(PID.TID 0000.0001) > obcsEstartdate1   = 19790101,
(PID.TID 0000.0001) > obcsEstartdate2   = 000000,
(PID.TID 0000.0001) > obcsEperiod       = 3600.0,
(PID.TID 0000.0001) >#
(PID.TID 0000.0001) > siobSstartdate1   = 19790101,
(PID.TID 0000.0001) > siobSstartdate2   = 000000,
(PID.TID 0000.0001) > siobSperiod       = 3600.0,
(PID.TID 0000.0001) >#
(PID.TID 0000.0001) > siobNstartdate1   = 19790101,
(PID.TID 0000.0001) > siobNstartdate2   = 000000,
(PID.TID 0000.0001) > siobNperiod       = 3600.0,
(PID.TID 0000.0001) >#
(PID.TID 0000.0001) > siobWstartdate1   = 19790101,
(PID.TID 0000.0001) > siobWstartdate2   = 000000,
(PID.TID 0000.0001) > siobWperiod       = 3600.0,
(PID.TID 0000.0001) > /
(PID.TID 0000.0001) 
(PID.TID 0000.0001) EXF_READPARMS: reading EXF_NML_01
(PID.TID 0000.0001) EXF_READPARMS: reading EXF_NML_02
(PID.TID 0000.0001) EXF_READPARMS: reading EXF_NML_03
(PID.TID 0000.0001) EXF_READPARMS: reading EXF_NML_OBCS
(PID.TID 0000.0001) EXF_READPARMS: finished reading data.exf
(PID.TID 0000.0001)  OBCS_READPARMS: opening data.obcs
(PID.TID 0000.0001)  OPEN_COPY_DATA_FILE: opening file data.obcs
(PID.TID 0000.0001) // =======================================================
(PID.TID 0000.0001) // Parameter file "data.obcs"
(PID.TID 0000.0001) // =======================================================
(PID.TID 0000.0001) ># ***************
(PID.TID 0000.0001) ># Open boundaries
(PID.TID 0000.0001) ># ***************
(PID.TID 0000.0001) > &OBCS_PARM01
(PID.TID 0000.0001) > OB_Jsouth =   10*1,
(PID.TID 0000.0001) > OB_Jnorth =   10*8,
(PID.TID 0000.0001) > OB_Iwest  =   8*1,
(PID.TID 0000.0001) > OB_Ieast  =   8*10,
(PID.TID 0000.0001) ># This flag check and equalise topography across open boundaries:
(PID.TID 0000.0001) > OBCSfixTopo = .TRUE.,
(PID.TID 0000.0001) > useOBCSprescribe=.TRUE.,
(PID.TID 0000.0001) > useSeaiceNeumann=.TRUE.,
(PID.TID 0000.0001) >#
(PID.TID 0000.0001) > OBSsFile='OBSs.seaice_obcs',
(PID.TID 0000.0001) > OBStFile='OBSt.seaice_obcs',
(PID.TID 0000.0001) > OBSuFile='OBSu.seaice_obcs',
(PID.TID 0000.0001) > OBSvFile='OBSv.seaice_obcs',
(PID.TID 0000.0001) > OBNsFile='OBNs.seaice_obcs',
(PID.TID 0000.0001) > OBNtFile='OBNt.seaice_obcs',
(PID.TID 0000.0001) > OBNuFile='OBNu.seaice_obcs',
(PID.TID 0000.0001) > OBNvFile='OBNv.seaice_obcs',
(PID.TID 0000.0001) > OBWsFile='OBWs.seaice_obcs',
(PID.TID 0000.0001) > OBWtFile='OBWt.seaice_obcs',
(PID.TID 0000.0001) > OBWuFile='OBWu.seaice_obcs',
(PID.TID 0000.0001) > OBWvFile='OBWv.seaice_obcs',
(PID.TID 0000.0001) > OBEsFile='OBEs.seaice_obcs',
(PID.TID 0000.0001) > OBEtFile='OBEt.seaice_obcs',
(PID.TID 0000.0001) > OBEuFile='OBEu.seaice_obcs',
(PID.TID 0000.0001) > OBEvFile='OBEv.seaice_obcs',
(PID.TID 0000.0001) >#
(PID.TID 0000.0001) > OBShFile='OBSh.seaice_obcs',
(PID.TID 0000.0001) > OBNhFile='OBNh.seaice_obcs',
(PID.TID 0000.0001) > OBEhFile='OBEh.seaice_obcs',
(PID.TID 0000.0001) > OBWhFile='OBWh.seaice_obcs',
(PID.TID 0000.0001) > OBSaFile='OBSa.seaice_obcs',
(PID.TID 0000.0001) > OBNaFile='OBNa.seaice_obcs',
(PID.TID 0000.0001) > OBEaFile='OBEa.seaice_obcs',
(PID.TID 0000.0001) > OBWaFile='OBWa.seaice_obcs',
(PID.TID 0000.0001) > OBSsnFile='OBSsn.seaice_obcs',
(PID.TID 0000.0001) > OBNsnFile='OBNsn.seaice_obcs',
(PID.TID 0000.0001) > OBEsnFile='OBEsn.seaice_obcs',
(PID.TID 0000.0001) > OBWsnFile='OBWsn.seaice_obcs',
(PID.TID 0000.0001) > OBSslFile='OBSsl.seaice_obcs',
(PID.TID 0000.0001) > OBNslFile='OBNsl.seaice_obcs',
(PID.TID 0000.0001) > OBEslFile='OBEsl.seaice_obcs',
(PID.TID 0000.0001) > OBWslFile='OBWsl.seaice_obcs',
(PID.TID 0000.0001) > OBSuiceFile='OBSuice.seaice_obcs',
(PID.TID 0000.0001) > OBNuiceFile='OBNuice.seaice_obcs',
(PID.TID 0000.0001) > OBEuiceFile='OBEuice.seaice_obcs',
(PID.TID 0000.0001) > OBWuiceFile='OBWuice.seaice_obcs',
(PID.TID 0000.0001) > OBSviceFile='OBSvice.seaice_obcs',
(PID.TID 0000.0001) > OBNviceFile='OBNvice.seaice_obcs',
(PID.TID 0000.0001) > OBEviceFile='OBEvice.seaice_obcs',
(PID.TID 0000.0001) > OBWviceFile='OBWvice.seaice_obcs',
(PID.TID 0000.0001) >#
(PID.TID 0000.0001) > useOBCStides = .TRUE.,
(PID.TID 0000.0001) >#components   = M2       S2     N2       K2       K1      O1       P1       Q1       Mf         Mm
(PID.TID 0000.0001) >#periods (hr) = 12.4206  12     12.6583  11.9672  23.9345 25.8193  24.0659  26.8684  327.8599   661.31
(PID.TID 0000.0001) > tidalPeriod  = 44714.16,43200.,45569.88,43081.92,86164.2,92949.48,86637.24,96726.24,1180295.64,2380716.,
(PID.TID 0000.0001) > OBSamFile='OBSam.seaice_obcs',
(PID.TID 0000.0001) > OBNamFile='OBNam.seaice_obcs',
(PID.TID 0000.0001) > OBEamFile='OBEam.seaice_obcs',
(PID.TID 0000.0001) > OBWamFile='OBWam.seaice_obcs',
(PID.TID 0000.0001) > OBSphFile='OBSph.seaice_obcs',
(PID.TID 0000.0001) > OBNphFile='OBNph.seaice_obcs',
(PID.TID 0000.0001) > OBEphFile='OBEph.seaice_obcs',
(PID.TID 0000.0001) > OBWphFile='OBWph.seaice_obcs',
(PID.TID 0000.0001) > /
(PID.TID 0000.0001) 
(PID.TID 0000.0001)  OBCS_READPARMS: finished reading data.obcs
(PID.TID 0000.0001)  OB_indexUnset = /* unset OB index value (i.e. no OB) */
(PID.TID 0000.0001)                       0
(PID.TID 0000.0001)     ;
(PID.TID 0000.0001)  Northern OB global indices : OB_Jnorth =
(PID.TID 0000.0001)    10 @        8                            /* I =  1: 10 */
(PID.TID 0000.0001)  Southern OB global indices : OB_Jsouth =
(PID.TID 0000.0001)    10 @        1                            /* I =  1: 10 */
(PID.TID 0000.0001)  Eastern  OB global indices : OB_Ieast =
(PID.TID 0000.0001)     8 @       10                            /* J =  1:  8 */
(PID.TID 0000.0001)  Western  OB global indices : OB_Iwest =
(PID.TID 0000.0001)     8 @        1                            /* J =  1:  8 */
(PID.TID 0000.0001) 
(PID.TID 0000.0001)  KPP_READPARMS: opening data.kpp
(PID.TID 0000.0001)  OPEN_COPY_DATA_FILE: opening file data.kpp
(PID.TID 0000.0001) // =======================================================
(PID.TID 0000.0001) // Parameter file "data.kpp"
(PID.TID 0000.0001) // =======================================================
(PID.TID 0000.0001) ># KPP parameters
(PID.TID 0000.0001) > &KPP_PARM01
(PID.TID 0000.0001) > KPPmixingMaps   = .FALSE.,
(PID.TID 0000.0001) > KPPwriteState   = .TRUE.,
(PID.TID 0000.0001) > KPP_ghatUseTotalDiffus=.TRUE.,
(PID.TID 0000.0001) > /
(PID.TID 0000.0001) 
(PID.TID 0000.0001)  KPP_READPARMS ; starts to read KPP_PARM01
(PID.TID 0000.0001)  KPP_READPARMS ; read KPP_PARM01 : OK
(PID.TID 0000.0001)  KPP_READPARMS: finished reading data.kpp
(PID.TID 0000.0001)  GM_READPARMS: opening data.gmredi
(PID.TID 0000.0001)  OPEN_COPY_DATA_FILE: opening file data.gmredi
(PID.TID 0000.0001) // =======================================================
(PID.TID 0000.0001) // Parameter file "data.gmredi"
(PID.TID 0000.0001) // =======================================================
(PID.TID 0000.0001) ># GMREDI parameters
(PID.TID 0000.0001) > &GM_PARM01
(PID.TID 0000.0001) >  GM_background_K = 571.0
(PID.TID 0000.0001) >  GM_taper_scheme = 'ldd97'
(PID.TID 0000.0001) > /
(PID.TID 0000.0001) 
(PID.TID 0000.0001)  GM_READPARMS: finished reading data.gmredi
(PID.TID 0000.0001) 
(PID.TID 0000.0001)  SEAICE_READPARMS: opening data.seaice
(PID.TID 0000.0001)  OPEN_COPY_DATA_FILE: opening file data.seaice
(PID.TID 0000.0001) // =======================================================
(PID.TID 0000.0001) // Parameter file "data.seaice"
(PID.TID 0000.0001) // =======================================================
(PID.TID 0000.0001) ># SEAICE parameters
(PID.TID 0000.0001) > &SEAICE_PARM01
(PID.TID 0000.0001) >#- seaice dynamics params:
(PID.TID 0000.0001) >  LSR_ERROR          = 1.E-12,
(PID.TID 0000.0001) ># LSR_mixIniGuess=1 : compute free-drift residual; =2,4 mix into initial guess
(PID.TID 0000.0001) >  LSR_mixIniGuess    = 1,
(PID.TID 0000.0001) >#- seaice state & transport params:
(PID.TID 0000.0001) >  SEAICEadvScheme    = 7,
(PID.TID 0000.0001) ># for adjoint simulations you will need
(PID.TID 0000.0001) ># SEAICEadvScheme    = 30,
(PID.TID 0000.0001) ># add small diffKh to test diffusion with multi-dim advect.
(PID.TID 0000.0001) >  SEAICEdiffKhArea   = 20.,
(PID.TID 0000.0001) >  SEAICE_salinityTracer = .FALSE.,
(PID.TID 0000.0001) >  SEAICE_saltFrac    = 0.3,
(PID.TID 0000.0001) >#- seaice thermodyn params:
(PID.TID 0000.0001) >  SEAICE_multDim     = 7,
(PID.TID 0000.0001) >#- constant seawater freezing point:
(PID.TID 0000.0001) >  SEAICE_tempFrz0    = -1.96,
(PID.TID 0000.0001) >  SEAICE_dTempFrz_dS = 0.,
(PID.TID 0000.0001) >#- to reproduce old results with former #defined SEAICE_SOLVE4TEMP_LEGACY code
(PID.TID 0000.0001) >    useMaykutSatVapPoly = .TRUE.,
(PID.TID 0000.0001) >    postSolvTempIter    =  0,
(PID.TID 0000.0001) >  SEAICE_dryIceAlb   = 0.8756,
(PID.TID 0000.0001) >  SEAICE_wetIceAlb   = 0.7856,
(PID.TID 0000.0001) >  SEAICE_drySnowAlb  = 0.9656,
(PID.TID 0000.0001) >  SEAICE_wetSnowAlb  = 0.8256,
(PID.TID 0000.0001) >  SEAICE_strength    = 2.6780e+04,
(PID.TID 0000.0001) ># use the new standard way of specifying ocean-ice turb. flux coeff:
(PID.TID 0000.0001) >  SEAICE_mcPheePiston= 0.00004,
(PID.TID 0000.0001) >  SEAICE_frazilFrac  = 0.3,
(PID.TID 0000.0001) >#- seaice I/O params:
(PID.TID 0000.0001) >  SEAICEwriteState   = .TRUE.,
(PID.TID 0000.0001) ># old defaults
(PID.TID 0000.0001) > SEAICEscaleSurfStress = .FALSE.,
(PID.TID 0000.0001) > SEAICEaddSnowMass     = .FALSE.,
(PID.TID 0000.0001) > SEAICE_useMultDimSnow = .FALSE.,
(PID.TID 0000.0001) > SEAICEetaZmethod = 0,
(PID.TID 0000.0001) > SEAICE_drag = 0.002,
(PID.TID 0000.0001) > SEAICE_waterDrag = 0.0052101265822784805,
(PID.TID 0000.0001) > SEAICE_Olx = 0,
(PID.TID 0000.0001) > SEAICE_Oly = 0,
(PID.TID 0000.0001) > /
(PID.TID 0000.0001) >
(PID.TID 0000.0001) > &SEAICE_PARM03
(PID.TID 0000.0001) > /
(PID.TID 0000.0001) 
(PID.TID 0000.0001)  SEAICE_READPARMS: finished reading data.seaice
(PID.TID 0000.0001) SALT_PLUME_READPARMS: opening data.salt_plume
(PID.TID 0000.0001)  OPEN_COPY_DATA_FILE: opening file data.salt_plume
(PID.TID 0000.0001) // =======================================================
(PID.TID 0000.0001) // Parameter file "data.salt_plume"
(PID.TID 0000.0001) // =======================================================
(PID.TID 0000.0001) > &SALT_PLUME_PARM01
(PID.TID 0000.0001) > SaltPlumeCriterion = 0.4D0
(PID.TID 0000.0001) > /
(PID.TID 0000.0001) 
(PID.TID 0000.0001) SALT_PLUME_READPARMS: finished reading data.salt_plume
(PID.TID 0000.0001) SET_PARMS: done
(PID.TID 0000.0001) Enter INI_VERTICAL_GRID: setInterFDr=    T ; setCenterDr=    F
(PID.TID 0000.0001) %MON XC_max                       =   2.9900000000000E+02
(PID.TID 0000.0001) %MON XC_min                       =   2.8100000000000E+02
(PID.TID 0000.0001) %MON XC_mean                      =   2.9000000000000E+02
(PID.TID 0000.0001) %MON XC_sd                        =   5.7445626465380E+00
(PID.TID 0000.0001) %MON XG_max                       =   2.9800000000000E+02
(PID.TID 0000.0001) %MON XG_min                       =   2.8000000000000E+02
(PID.TID 0000.0001) %MON XG_mean                      =   2.8900000000000E+02
(PID.TID 0000.0001) %MON XG_sd                        =   5.7445626465380E+00
(PID.TID 0000.0001) %MON DXC_max                      =   1.5166951523772E+05
(PID.TID 0000.0001) %MON DXC_min                      =   1.0781674031974E+05
(PID.TID 0000.0001) %MON DXC_mean                     =   1.3029977093092E+05
(PID.TID 0000.0001) %MON DXC_sd                       =   1.4367575782905E+04
(PID.TID 0000.0001) %MON DXF_max                      =   1.5166951523772E+05
(PID.TID 0000.0001) %MON DXF_min                      =   1.0781674031974E+05
(PID.TID 0000.0001) %MON DXF_mean                     =   1.3029977093092E+05
(PID.TID 0000.0001) %MON DXF_sd                       =   1.4367575782905E+04
(PID.TID 0000.0001) %MON DXG_max                      =   1.5448497309243E+05
(PID.TID 0000.0001) %MON DXG_min                      =   1.1119492664456E+05
(PID.TID 0000.0001) %MON DXG_mean                     =   1.3340987946475E+05
(PID.TID 0000.0001) %MON DXG_sd                       =   1.4183553519597E+04
(PID.TID 0000.0001) %MON DXV_max                      =   1.5448497309243E+05
(PID.TID 0000.0001) %MON DXV_min                      =   1.1119492664456E+05
(PID.TID 0000.0001) %MON DXV_mean                     =   1.3340987946475E+05
(PID.TID 0000.0001) %MON DXV_sd                       =   1.4183553519597E+04
(PID.TID 0000.0001) %MON YC_max                       =   6.1000000000000E+01
(PID.TID 0000.0001) %MON YC_min                       =   4.7000000000000E+01
(PID.TID 0000.0001) %MON YC_mean                      =   5.4000000000000E+01
(PID.TID 0000.0001) %MON YC_sd                        =   4.5825756949558E+00
(PID.TID 0000.0001) %MON YG_max                       =   6.0000000000000E+01
(PID.TID 0000.0001) %MON YG_min                       =   4.6000000000000E+01
(PID.TID 0000.0001) %MON YG_mean                      =   5.3000000000000E+01
(PID.TID 0000.0001) %MON YG_sd                        =   4.5825756949558E+00
(PID.TID 0000.0001) %MON DYC_max                      =   2.2238985328912E+05
(PID.TID 0000.0001) %MON DYC_min                      =   2.2238985328912E+05
(PID.TID 0000.0001) %MON DYC_mean                     =   2.2238985328912E+05
(PID.TID 0000.0001) %MON DYC_sd                       =   8.7311491370201E-11
(PID.TID 0000.0001) %MON DYF_max                      =   2.2238985328912E+05
(PID.TID 0000.0001) %MON DYF_min                      =   2.2238985328912E+05
(PID.TID 0000.0001) %MON DYF_mean                     =   2.2238985328912E+05
(PID.TID 0000.0001) %MON DYF_sd                       =   8.7311491370201E-11
(PID.TID 0000.0001) %MON DYG_max                      =   2.2238985328912E+05
(PID.TID 0000.0001) %MON DYG_min                      =   2.2238985328912E+05
(PID.TID 0000.0001) %MON DYG_mean                     =   2.2238985328912E+05
(PID.TID 0000.0001) %MON DYG_sd                       =   8.7311491370201E-11
(PID.TID 0000.0001) %MON DYU_max                      =   2.2238985328912E+05
(PID.TID 0000.0001) %MON DYU_min                      =   2.2238985328912E+05
(PID.TID 0000.0001) %MON DYU_mean                     =   2.2238985328912E+05
(PID.TID 0000.0001) %MON DYU_sd                       =   8.7311491370201E-11
(PID.TID 0000.0001) %MON RA_max                       =   3.3728048822756E+10
(PID.TID 0000.0001) %MON RA_min                       =   2.3976131760657E+10
(PID.TID 0000.0001) %MON RA_mean                      =   2.8975875795896E+10
(PID.TID 0000.0001) %MON RA_sd                        =   3.1950408538653E+09
(PID.TID 0000.0001) %MON RAW_max                      =   3.3728048822756E+10
(PID.TID 0000.0001) %MON RAW_min                      =   2.3976131760657E+10
(PID.TID 0000.0001) %MON RAW_mean                     =   2.8975875795896E+10
(PID.TID 0000.0001) %MON RAW_sd                       =   3.1950408538653E+09
(PID.TID 0000.0001) %MON RAS_max                      =   3.4354146294179E+10
(PID.TID 0000.0001) %MON RAS_min                      =   2.4727367980522E+10
(PID.TID 0000.0001) %MON RAS_mean                     =   2.9667497261876E+10
(PID.TID 0000.0001) %MON RAS_sd                       =   3.1541182474235E+09
(PID.TID 0000.0001) %MON RAZ_max                      =   3.4354146294179E+10
(PID.TID 0000.0001) %MON RAZ_min                      =   2.4727367980522E+10
(PID.TID 0000.0001) %MON RAZ_mean                     =   2.9667497261876E+10
(PID.TID 0000.0001) %MON RAZ_sd                       =   3.1541182474235E+09
(PID.TID 0000.0001) %MON AngleCS_max                  =   1.0000000000000E+00
(PID.TID 0000.0001) %MON AngleCS_min                  =   1.0000000000000E+00
(PID.TID 0000.0001) %MON AngleCS_mean                 =   1.0000000000000E+00
(PID.TID 0000.0001) %MON AngleCS_sd                   =   0.0000000000000E+00
(PID.TID 0000.0001) %MON AngleSN_max                  =   0.0000000000000E+00
(PID.TID 0000.0001) %MON AngleSN_min                  =   0.0000000000000E+00
(PID.TID 0000.0001) %MON AngleSN_mean                 =   0.0000000000000E+00
(PID.TID 0000.0001) %MON AngleSN_sd                   =   0.0000000000000E+00
(PID.TID 0000.0001)  MDS_READ_FIELD: opening global file: bathy.seaice_obcs
(PID.TID 0000.0001) OBCS_CHECK_DEPTHS: fixed topography at (i,j,bi,bj)=     3     8   1   1
(PID.TID 0000.0001) OBCS_CHECK_DEPTHS: fixed topography at (i,j,bi,bj)=     4     8   1   1
(PID.TID 0000.0001) OBCS_CHECK_DEPTHS: fixed topography at (i,j,bi,bj)=     5     1   2   1
(PID.TID 0000.0001) OBCS_CHECK_DEPTHS: Topography gradients normal to open boundaries:
(PID.TID 0000.0001) OBCS_CHECK_DEPTHS: ==> corrected       3 problematic grid-points
(PID.TID 0000.0001) // =======================================================
(PID.TID 0000.0001) // Field Model R_low (ini_masks_etc)
(PID.TID 0000.0001) // CMIN =         -3.200000000000000E+03
(PID.TID 0000.0001) // CMAX =         -5.500000000000000E+01
(PID.TID 0000.0001) // CINT =          1.164814814814815E+02
(PID.TID 0000.0001) // SYMBOLS (CMIN->CMAX): -abcdefghijklmnopqrstuvwxyz+
(PID.TID 0000.0001) //                  0.0: .
(PID.TID 0000.0001) // RANGE I (Lo:Hi:Step):(    -3:    14:     1)
(PID.TID 0000.0001) // RANGE J (Lo:Hi:Step):(    12:    -3:    -1)
(PID.TID 0000.0001) // RANGE K (Lo:Hi:Step):(   1:   1:   1)
(PID.TID 0000.0001) // =======================================================
(PID.TID 0000.0001) K =   1
(PID.TID 0000.0001) //                I=6       I=8
(PID.TID 0000.0001) // |--J--|321012345|789234567|901234
(PID.TID 0000.0001) //     12 ---d.+zid----+zid----d.+zi
(PID.TID 0000.0001) //     11 ----..zwid---.zwid----..zw
(PID.TID 0000.0001) //     10 d---...zypd--..zypd---...z
(PID.TID 0000.0001) //      9 yi--.....zyi-....zyi--....
(PID.TID 0000.0001) //      8 .....+yxx+...+yxx+.....+yx
(PID.TID 0000.0001) //      7 +...zzyxux+..zyxux+...zzyx
(PID.TID 0000.0001) //      6 i+..+zwpiii+.zwpiii+..+zwp
(PID.TID 0000.0001) //      5 ddszywsiddddswsiddddszywsi
(PID.TID 0000.0001) //      4 ---d.+zid----+zid----d.+zi
(PID.TID 0000.0001) //      3 ----..zwid---.zwid----..zw
(PID.TID 0000.0001) //      2 d---...zypd--..zypd---...z
(PID.TID 0000.0001) //      1 yi--.....zyi-....zyi--....
(PID.TID 0000.0001) //      0 .....+yxx+...+yxx+.....+yx
(PID.TID 0000.0001) //     -1 +...zzyxux+..zyxux+...zzyx
(PID.TID 0000.0001) //     -2 i+..+zwpiii+.zwpiii+..+zwp
(PID.TID 0000.0001) //     -3 ddszywsiddddswsiddddszywsi
(PID.TID 0000.0001) // =======================================================
(PID.TID 0000.0001) // END OF FIELD                                          =
(PID.TID 0000.0001) // =======================================================
(PID.TID 0000.0001) 
(PID.TID 0000.0001) // =======================================================
(PID.TID 0000.0001) // Field Model Ro_surf (ini_masks_etc)
(PID.TID 0000.0001) // CMIN =          1.000000000000000E+32
(PID.TID 0000.0001) // CMAX =         -1.000000000000000E+32
(PID.TID 0000.0001) // CINT =          0.000000000000000E+00
(PID.TID 0000.0001) // SYMBOLS (CMIN->CMAX): -abcdefghijklmnopqrstuvwxyz+
(PID.TID 0000.0001) //                  0.0: .
(PID.TID 0000.0001) // RANGE I (Lo:Hi:Step):(    -3:    14:     1)
(PID.TID 0000.0001) // RANGE J (Lo:Hi:Step):(    12:    -3:    -1)
(PID.TID 0000.0001) // RANGE K (Lo:Hi:Step):(   1:   1:   1)
(PID.TID 0000.0001) // =======================================================
(PID.TID 0000.0001) // =======================================================
(PID.TID 0000.0001) // END OF FIELD                                          =
(PID.TID 0000.0001) // =======================================================
(PID.TID 0000.0001) 
(PID.TID 0000.0001) // =======================================================
(PID.TID 0000.0001) // Field hFacC at iteration          0
(PID.TID 0000.0001) // CMIN =          1.000000000000000E+00
(PID.TID 0000.0001) // CMAX =          1.000000000000000E+00
(PID.TID 0000.0001) // CINT =          0.000000000000000E+00
(PID.TID 0000.0001) // SYMBOLS (CMIN->CMAX): -abcdefghijklmnopqrstuvwxyz+
(PID.TID 0000.0001) //                  0.0: .
(PID.TID 0000.0001) // RANGE I (Lo:Hi:Step):(    -3:    14:     1)
(PID.TID 0000.0001) // RANGE J (Lo:Hi:Step):(    12:    -3:    -1)
(PID.TID 0000.0001) // RANGE K (Lo:Hi:Step):(   1:   1:   1)
(PID.TID 0000.0001) // =======================================================
(PID.TID 0000.0001) // =======================================================
(PID.TID 0000.0001) // END OF FIELD                                          =
(PID.TID 0000.0001) // =======================================================
(PID.TID 0000.0001) 
(PID.TID 0000.0001) // =======================================================
(PID.TID 0000.0001) // Field hFacW at iteration          0
(PID.TID 0000.0001) // CMIN =          1.000000000000000E+00
(PID.TID 0000.0001) // CMAX =          1.000000000000000E+00
(PID.TID 0000.0001) // CINT =          0.000000000000000E+00
(PID.TID 0000.0001) // SYMBOLS (CMIN->CMAX): -abcdefghijklmnopqrstuvwxyz+
(PID.TID 0000.0001) //                  0.0: .
(PID.TID 0000.0001) // RANGE I (Lo:Hi:Step):(    -3:    14:     1)
(PID.TID 0000.0001) // RANGE J (Lo:Hi:Step):(    12:    -3:    -1)
(PID.TID 0000.0001) // RANGE K (Lo:Hi:Step):(   1:   1:   1)
(PID.TID 0000.0001) // =======================================================
(PID.TID 0000.0001) // =======================================================
(PID.TID 0000.0001) // END OF FIELD                                          =
(PID.TID 0000.0001) // =======================================================
(PID.TID 0000.0001) 
(PID.TID 0000.0001) // =======================================================
(PID.TID 0000.0001) // Field hFacS at iteration          0
(PID.TID 0000.0001) // CMIN =          1.000000000000000E+00
(PID.TID 0000.0001) // CMAX =          1.000000000000000E+00
(PID.TID 0000.0001) // CINT =          0.000000000000000E+00
(PID.TID 0000.0001) // SYMBOLS (CMIN->CMAX): -abcdefghijklmnopqrstuvwxyz+
(PID.TID 0000.0001) //                  0.0: .
(PID.TID 0000.0001) // RANGE I (Lo:Hi:Step):(    -3:    14:     1)
(PID.TID 0000.0001) // RANGE J (Lo:Hi:Step):(    12:    -3:    -1)
(PID.TID 0000.0001) // RANGE K (Lo:Hi:Step):(   1:   1:   1)
(PID.TID 0000.0001) // =======================================================
(PID.TID 0000.0001) // =======================================================
(PID.TID 0000.0001) // END OF FIELD                                          =
(PID.TID 0000.0001) // =======================================================
(PID.TID 0000.0001) 
(PID.TID 0000.0001) 
(PID.TID 0000.0001) // =======================================================
(PID.TID 0000.0001) // Calendar configuration >>> START <<<
(PID.TID 0000.0001) // =======================================================
(PID.TID 0000.0001) 
(PID.TID 0000.0001) modelstart = /* Start time of the model integration [s] */
(PID.TID 0000.0001)                 3.600000000000000E+03
(PID.TID 0000.0001)     ;
(PID.TID 0000.0001) modelend  = /* End time of the model integration [s] */
(PID.TID 0000.0001)                 2.160000000000000E+04
(PID.TID 0000.0001)     ;
(PID.TID 0000.0001) modelStep = /* Time interval for a model forward step [s] */
(PID.TID 0000.0001)                 3.600000000000000E+03
(PID.TID 0000.0001)     ;
(PID.TID 0000.0001) usingGregorianCalendar= /* Calendar Type: Gregorian Calendar */
(PID.TID 0000.0001)                   T
(PID.TID 0000.0001)     ;
(PID.TID 0000.0001) usingJulianCalendar = /* Calendar Type: Julian Calendar */
(PID.TID 0000.0001)                   F
(PID.TID 0000.0001)     ;
(PID.TID 0000.0001) usingNoLeapYearCal  = /* Calendar Type: without Leap Year */
(PID.TID 0000.0001)                   F
(PID.TID 0000.0001)     ;
(PID.TID 0000.0001) usingModelCalendar  = /* Calendar Type: Model Calendar */
(PID.TID 0000.0001)                   F
(PID.TID 0000.0001)     ;
(PID.TID 0000.0001) modelStartDate YYYYMMDD = /* Model start date YYYY-MM-DD */
(PID.TID 0000.0001)                19790101
(PID.TID 0000.0001)     ;
(PID.TID 0000.0001)   modelStartDate HHMMSS = /* Model start date HH-MM-SS  */
(PID.TID 0000.0001)                   10000
(PID.TID 0000.0001)     ;
(PID.TID 0000.0001) modelEndDate   YYYYMMDD = /* Model end date YYYY-MM-DD */
(PID.TID 0000.0001)                19790101
(PID.TID 0000.0001)     ;
(PID.TID 0000.0001)   modelEndDate   HHMMSS = /* Model end date HH-MM-SS  */
(PID.TID 0000.0001)                   60000
(PID.TID 0000.0001)     ;
(PID.TID 0000.0001) intyears = /* Number of calendar years affected by the integration */
(PID.TID 0000.0001)                       1
(PID.TID 0000.0001)     ;
(PID.TID 0000.0001) intmonths= /* Number of calendar months affected by the integration */
(PID.TID 0000.0001)                       1
(PID.TID 0000.0001)     ;
(PID.TID 0000.0001) intdays = /* Number of calendar days affected by the integration */
(PID.TID 0000.0001)                       1
(PID.TID 0000.0001)     ;
(PID.TID 0000.0001) modelIter0 = /* Base timestep number  */
(PID.TID 0000.0001)                       1
(PID.TID 0000.0001)     ;
(PID.TID 0000.0001) modelIterEnd = /* Final timestep number  */
(PID.TID 0000.0001)                       6
(PID.TID 0000.0001)     ;
(PID.TID 0000.0001) modelIntSteps= /* Number of model timesteps  */
(PID.TID 0000.0001)                       5
(PID.TID 0000.0001)     ;
(PID.TID 0000.0001) 
(PID.TID 0000.0001) // =======================================================
(PID.TID 0000.0001) // Calendar configuration  >>> END <<<
(PID.TID 0000.0001) // =======================================================
(PID.TID 0000.0001) 
(PID.TID 0000.0001) GAD_INIT_FIXED: GAD_OlMinSize=  4  0  1
(PID.TID 0000.0001) 
(PID.TID 0000.0001) // ===================================
(PID.TID 0000.0001) // GAD parameters :
(PID.TID 0000.0001) // ===================================
(PID.TID 0000.0001) tempAdvScheme =   /* Temp. Horiz.Advection scheme selector */
(PID.TID 0000.0001)                       7
(PID.TID 0000.0001)     ;
(PID.TID 0000.0001) tempVertAdvScheme =   /* Temp. Vert. Advection scheme selector */
(PID.TID 0000.0001)                       7
(PID.TID 0000.0001)     ;
(PID.TID 0000.0001) tempMultiDimAdvec =   /* use Muti-Dim Advec method for Temp */
(PID.TID 0000.0001)                   T
(PID.TID 0000.0001)     ;
(PID.TID 0000.0001) tempSOM_Advection = /* use 2nd Order Moment Advection for Temp */
(PID.TID 0000.0001)                   F
(PID.TID 0000.0001)     ;
(PID.TID 0000.0001) AdamsBashforthGt = /* apply Adams-Bashforth extrapolation on Gt */
(PID.TID 0000.0001)                   F
(PID.TID 0000.0001)     ;
(PID.TID 0000.0001) AdamsBashforth_T = /* apply Adams-Bashforth extrapolation on Temp */
(PID.TID 0000.0001)                   F
(PID.TID 0000.0001)     ;
(PID.TID 0000.0001) saltAdvScheme =   /* Salt. Horiz.advection scheme selector */
(PID.TID 0000.0001)                       7
(PID.TID 0000.0001)     ;
(PID.TID 0000.0001) saltVertAdvScheme =   /* Salt. Vert. Advection scheme selector */
(PID.TID 0000.0001)                       7
(PID.TID 0000.0001)     ;
(PID.TID 0000.0001) saltMultiDimAdvec =   /* use Muti-Dim Advec method for Salt */
(PID.TID 0000.0001)                   T
(PID.TID 0000.0001)     ;
(PID.TID 0000.0001) saltSOM_Advection = /* use 2nd Order Moment Advection for Salt */
(PID.TID 0000.0001)                   F
(PID.TID 0000.0001)     ;
(PID.TID 0000.0001) AdamsBashforthGs = /* apply Adams-Bashforth extrapolation on Gs */
(PID.TID 0000.0001)                   F
(PID.TID 0000.0001)     ;
(PID.TID 0000.0001) AdamsBashforth_S = /* apply Adams-Bashforth extrapolation on Salt */
(PID.TID 0000.0001)                   F
(PID.TID 0000.0001)     ;
(PID.TID 0000.0001) // ===================================
(PID.TID 0000.0001) 
(PID.TID 0000.0001) // =======================================================
(PID.TID 0000.0001) // External forcing (EXF) configuration >>> START <<<
(PID.TID 0000.0001) // =======================================================
(PID.TID 0000.0001) 
(PID.TID 0000.0001)  EXF general parameters:
(PID.TID 0000.0001) 
(PID.TID 0000.0001) exf_iprec = /* exf file precision */
(PID.TID 0000.0001)                      32
(PID.TID 0000.0001)     ;
(PID.TID 0000.0001) useExfYearlyFields = /* add extension _YEAR to input file names */
(PID.TID 0000.0001)                   F
(PID.TID 0000.0001)     ;
(PID.TID 0000.0001) twoDigitYear = /* use 2-digit year extension */
(PID.TID 0000.0001)                   F
(PID.TID 0000.0001)     ;
(PID.TID 0000.0001) useExfCheckRange = /* check for fields range */
(PID.TID 0000.0001)                   T
(PID.TID 0000.0001)     ;
(PID.TID 0000.0001) diags_opOceWeighted = /* weight flux diags by open-ocean fraction */
(PID.TID 0000.0001)                   T
(PID.TID 0000.0001)     ;
(PID.TID 0000.0001) exf_debugLev = /* select EXF-debug printing level */
(PID.TID 0000.0001)                       2
(PID.TID 0000.0001)     ;
(PID.TID 0000.0001) exf_monFreq  = /* EXF monitor frequency [ s ] */
(PID.TID 0000.0001)                 1.000000000000000E+00
(PID.TID 0000.0001)     ;
(PID.TID 0000.0001) exf_adjMonSelect = /* select group of exf AD-variables to monitor */
(PID.TID 0000.0001)                       1
(PID.TID 0000.0001)     ;
(PID.TID 0000.0001) repeatPeriod = /* period for cycling forcing dataset [ s ] */
(PID.TID 0000.0001)                 3.162240000000000E+07
(PID.TID 0000.0001)     ;
(PID.TID 0000.0001) climTempFreeze= /* Minimum climatological temperature [deg.C] */
(PID.TID 0000.0001)                -1.900000000000000E+00
(PID.TID 0000.0001)     ;
(PID.TID 0000.0001) windStressMax = /* Maximum absolute windstress [ Pa ] */
(PID.TID 0000.0001)                 2.000000000000000E+00
(PID.TID 0000.0001)     ;
(PID.TID 0000.0001) stressIsOnCgrid = /* set u,v_stress on Arakawa C-grid */
(PID.TID 0000.0001)                   F
(PID.TID 0000.0001)     ;
(PID.TID 0000.0001) rotateStressOnAgrid = /* rotate u,v_stress on Arakawa A-grid */
(PID.TID 0000.0001)                   F
(PID.TID 0000.0001)     ;
(PID.TID 0000.0001) cen2kel = /* conversion of deg. Centigrade to Kelvin [K] */
(PID.TID 0000.0001)                 2.731500000000000E+02
(PID.TID 0000.0001)     ;
(PID.TID 0000.0001) gravity_mks= /* gravitational acceleration [m/s^2] */
(PID.TID 0000.0001)                 9.810000000000000E+00
(PID.TID 0000.0001)     ;
(PID.TID 0000.0001) atmrho =  /* mean atmospheric density [kg/m^3] */
(PID.TID 0000.0001)                 1.200000000000000E+00
(PID.TID 0000.0001)     ;
(PID.TID 0000.0001) atmcp =  /* mean atmospheric specific heat [J/kg/K] */
(PID.TID 0000.0001)                 1.005000000000000E+03
(PID.TID 0000.0001)     ;
(PID.TID 0000.0001) flamb =  /* latent heat of evaporation [J/kg] */
(PID.TID 0000.0001)                 2.500000000000000E+06
(PID.TID 0000.0001)     ;
(PID.TID 0000.0001) flami =  /* latent heat of pure-ice melting [J/kg] */
(PID.TID 0000.0001)                 3.340000000000000E+05
(PID.TID 0000.0001)     ;
(PID.TID 0000.0001) cvapor_fac = /* const. for Saturation calculation [?] */
(PID.TID 0000.0001)                 6.403800000000000E+05
(PID.TID 0000.0001)     ;
(PID.TID 0000.0001) cvapor_exp = /* const. for Saturation calculation [?] */
(PID.TID 0000.0001)                 5.107400000000000E+03
(PID.TID 0000.0001)     ;
(PID.TID 0000.0001) cvapor_fac_ice= /* const. for Saturation calculation [?] */
(PID.TID 0000.0001)                 1.163780000000000E+07
(PID.TID 0000.0001)     ;
(PID.TID 0000.0001) cvapor_exp_ice= /* const. for Saturation calculation [?] */
(PID.TID 0000.0001)                 5.897800000000000E+03
(PID.TID 0000.0001)     ;
(PID.TID 0000.0001) humid_fac = /* humidity coef. in virtual temp. [(kg/kg)^-1] */
(PID.TID 0000.0001)                 6.060000000000000E-01
(PID.TID 0000.0001)     ;
(PID.TID 0000.0001) gamma_blk = /* adiabatic lapse rate [?] */
(PID.TID 0000.0001)                 1.000000000000000E-02
(PID.TID 0000.0001)     ;
(PID.TID 0000.0001) saltsat = /* reduction of Qsat over salty water [-] */
(PID.TID 0000.0001)                 9.800000000000000E-01
(PID.TID 0000.0001)     ;
(PID.TID 0000.0001) noNegativeEvap = /* prevent negative Evaporation */
(PID.TID 0000.0001)                   F
(PID.TID 0000.0001)     ;
(PID.TID 0000.0001) sstExtrapol = /* extrapolation coeff from lev. 1 & 2 to surf [-] */
(PID.TID 0000.0001)                 0.000000000000000E+00
(PID.TID 0000.0001)     ;
(PID.TID 0000.0001) cDrag_1 = /* coef used in drag calculation [m/s] */
(PID.TID 0000.0001)                 2.700000000000000E-03
(PID.TID 0000.0001)     ;
(PID.TID 0000.0001) cDrag_2 = /* coef used in drag calculation [-] */
(PID.TID 0000.0001)                 1.420000000000000E-04
(PID.TID 0000.0001)     ;
(PID.TID 0000.0001) cDrag_3 = /* coef used in drag calculation [s/m] */
(PID.TID 0000.0001)                 7.640000000000000E-05
(PID.TID 0000.0001)     ;
(PID.TID 0000.0001) cDrag_8 = /* coef used in drag calculation [(s/m)^6] */
(PID.TID 0000.0001)                 1.234567000000000E+05
(PID.TID 0000.0001)     ;
(PID.TID 0000.0001) cDragMax = /* maximum drag (Large and Yeager, 2009) [-] */
(PID.TID 0000.0001)                 1.234567000000000E+05
(PID.TID 0000.0001)     ;
(PID.TID 0000.0001) umax = /* at maximum wind (Large and Yeager, 2009) [m/s] */
(PID.TID 0000.0001)                 1.234567000000000E+05
(PID.TID 0000.0001)     ;
(PID.TID 0000.0001) cStanton_1 = /* coef used in Stanton number calculation [-] */
(PID.TID 0000.0001)                 3.270000000000000E-02
(PID.TID 0000.0001)     ;
(PID.TID 0000.0001) cStanton_2 = /* coef used in Stanton number calculation [-] */
(PID.TID 0000.0001)                 1.800000000000000E-02
(PID.TID 0000.0001)     ;
(PID.TID 0000.0001) cDalton = /* Dalton number [-] */
(PID.TID 0000.0001)                 3.460000000000000E-02
(PID.TID 0000.0001)     ;
(PID.TID 0000.0001) exf_scal_BulkCdn= /* Drag coefficient scaling factor [-] */
(PID.TID 0000.0001)                 1.000000000000000E+00
(PID.TID 0000.0001)     ;
(PID.TID 0000.0001) zolmin = /* minimum stability parameter [?] */
(PID.TID 0000.0001)                -1.000000000000000E+02
(PID.TID 0000.0001)     ;
(PID.TID 0000.0001) psim_fac = /* coef used in turbulent fluxes calculation [-] */
(PID.TID 0000.0001)                 5.000000000000000E+00
(PID.TID 0000.0001)     ;
(PID.TID 0000.0001) zref =  /* reference height [ m ] */
(PID.TID 0000.0001)                 1.000000000000000E+01
(PID.TID 0000.0001)     ;
(PID.TID 0000.0001) hu =  /* height of mean wind [ m ] */
(PID.TID 0000.0001)                 1.000000000000000E+01
(PID.TID 0000.0001)     ;
(PID.TID 0000.0001) ht =  /* height of mean temperature [ m ] */
(PID.TID 0000.0001)                 2.000000000000000E+00
(PID.TID 0000.0001)     ;
(PID.TID 0000.0001) hq =  /* height of mean spec.humidity [ m ] */
(PID.TID 0000.0001)                 2.000000000000000E+00
(PID.TID 0000.0001)     ;
(PID.TID 0000.0001) uMin = /* minimum wind speed [m/s] */
(PID.TID 0000.0001)                 5.000000000000000E-01
(PID.TID 0000.0001)     ;
(PID.TID 0000.0001) useStabilityFct_overIce= /* transfert Coeffs over sea-ice depend on stability */
(PID.TID 0000.0001)                   F
(PID.TID 0000.0001)     ;
(PID.TID 0000.0001) exf_iceCd = /* drag coefficient over sea-ice (fixed) [-] */
(PID.TID 0000.0001)                 1.630000000000000E-03
(PID.TID 0000.0001)     ;
(PID.TID 0000.0001) exf_iceCe = /* transfert coeff. over sea-ice, for Evap (fixed) [-] */
(PID.TID 0000.0001)                 1.630000000000000E-03
(PID.TID 0000.0001)     ;
(PID.TID 0000.0001) exf_iceCh = /* transfert coeff. over sea-ice, Sens.Heat.(fixed)[-] */
(PID.TID 0000.0001)                 1.630000000000000E-03
(PID.TID 0000.0001)     ;
(PID.TID 0000.0001) exf_albedo =  /* Sea-water albedo [-] */
(PID.TID 0000.0001)                 1.000000000000000E-01
(PID.TID 0000.0001)     ;
(PID.TID 0000.0001) useExfZenAlbedo = /* Sea-water albedo varies with zenith angle */
(PID.TID 0000.0001)                   F
(PID.TID 0000.0001)     ;
(PID.TID 0000.0001) select_ZenAlbedo = /* Sea-water albedo computation method */
(PID.TID 0000.0001)                       0
(PID.TID 0000.0001)     ;
(PID.TID 0000.0001) useExfZenIncoming = /* compute incoming solar radiation */
(PID.TID 0000.0001)                   F
(PID.TID 0000.0001)     ;
(PID.TID 0000.0001) ocean_emissivity = /* longwave ocean-surface emissivity [-] */
(PID.TID 0000.0001)                 9.700176366843034E-01
(PID.TID 0000.0001)     ;
(PID.TID 0000.0001) ice_emissivity = /* longwave seaice emissivity [-] */
(PID.TID 0000.0001)                 9.500000000000000E-01
(PID.TID 0000.0001)     ;
(PID.TID 0000.0001) snow_emissivity = /* longwave snow  emissivity [-] */
(PID.TID 0000.0001)                 9.500000000000000E-01
(PID.TID 0000.0001)     ;
(PID.TID 0000.0001) 
(PID.TID 0000.0001)  EXF main CPP flags:
(PID.TID 0000.0001) 
(PID.TID 0000.0001) // USE_EXF_INTERPOLATION:          NOT defined
(PID.TID 0000.0001) // ALLOW_ATM_TEMP:                     defined
(PID.TID 0000.0001) // ALLOW_ATM_WIND (useAtmWind):        defined
(PID.TID 0000.0001) // ALLOW_DOWNWARD_RADIATION:           defined
(PID.TID 0000.0001) // ALLOW_BULKFORMULAE:                 defined
(PID.TID 0000.0001) 
(PID.TID 0000.0001)    Zonal wind forcing starts at                   -1317600.
(PID.TID 0000.0001)    Zonal wind forcing period is                    2635200.
(PID.TID 0000.0001)    Zonal wind forcing repeat-cycle is             31622400.
(PID.TID 0000.0001)    Zonal wind forcing is read from file:
(PID.TID 0000.0001)    >> u10m.labsea1979 <<
(PID.TID 0000.0001) 
(PID.TID 0000.0001)    Meridional wind forcing starts at              -1317600.
(PID.TID 0000.0001)    Meridional wind forcing period is               2635200.
(PID.TID 0000.0001)    Meridional wind forcing repeat-cycle is        31622400.
(PID.TID 0000.0001)    Meridional wind forcing is read from file:
(PID.TID 0000.0001)    >> v10m.labsea1979 <<
(PID.TID 0000.0001) 
(PID.TID 0000.0001)    Atmospheric temperature starts at              -1317600.
(PID.TID 0000.0001)    Atmospheric temperature period is               2635200.
(PID.TID 0000.0001)    Atmospheric temperature repeat-cycle is        31622400.
(PID.TID 0000.0001)    Atmospheric temperature is read from file:
(PID.TID 0000.0001)    >> tair.labsea1979 <<
(PID.TID 0000.0001) 
(PID.TID 0000.0001)    Atmospheric specific humidity starts at        -1317600.
(PID.TID 0000.0001)    Atmospheric specific humidity period is         2635200.
(PID.TID 0000.0001)    Atmospheric specific humidity rep-cycle is     31622400.
(PID.TID 0000.0001)    Atmospheric specific humidity is read from file:
(PID.TID 0000.0001)    >> qa.labsea1979 <<
(PID.TID 0000.0001) 
(PID.TID 0000.0001) // ALLOW_READ_TURBFLUXES:          NOT defined
(PID.TID 0000.0001) // EXF_READ_EVAP:                  NOT defined
(PID.TID 0000.0001) 
(PID.TID 0000.0001)    Precipitation data starts at                   -1317600.
(PID.TID 0000.0001)    Precipitation data period is                    2635200.
(PID.TID 0000.0001)    Precipitation data repeat-cycle is             31622400.
(PID.TID 0000.0001)    Precipitation data is read from file:
(PID.TID 0000.0001)    >> prate.labsea1979 <<
(PID.TID 0000.0001) 
(PID.TID 0000.0001) // ALLOW_RUNOFF:                       defined
(PID.TID 0000.0001) // ALLOW_RUNOFTEMP:                NOT defined
(PID.TID 0000.0001) // ALLOW_SALTFLX:                      defined
(PID.TID 0000.0001) 
(PID.TID 0000.0001)    Downward shortwave flux starts at              -1317600.
(PID.TID 0000.0001)    Downward shortwave flux period is               2635200.
(PID.TID 0000.0001)    Downward shortwave flux repeat-cycle is        31622400.
(PID.TID 0000.0001)    Downward shortwave flux is read from file:
(PID.TID 0000.0001)    >> fsh.labsea1979 <<
(PID.TID 0000.0001) 
(PID.TID 0000.0001)    Downward longwave flux starts at               -1317600.
(PID.TID 0000.0001)    Downward longwave flux period is                2635200.
(PID.TID 0000.0001)    Downward longwave flux repeat-cycle is         31622400.
(PID.TID 0000.0001)    Downward longwave flux is read from file:
(PID.TID 0000.0001)    >> flo.labsea1979 <<
(PID.TID 0000.0001) 
(PID.TID 0000.0001) // =======================================================
(PID.TID 0000.0001) // External forcing (EXF) climatology configuration :
(PID.TID 0000.0001) // =======================================================
(PID.TID 0000.0001) 
(PID.TID 0000.0001) // ALLOW_CLIMSST_RELAXATION:           defined
(PID.TID 0000.0001)    climsst relaxation is NOT used
(PID.TID 0000.0001) 
(PID.TID 0000.0001) // ALLOW_CLIMSSS_RELAXATION:           defined
(PID.TID 0000.0001)    Climatological SSS starts at                   -1317600.
(PID.TID 0000.0001)    Climatological SSS period is                    2635200.
(PID.TID 0000.0001)    Climatological SSS repeat-cycle is             31622400.
(PID.TID 0000.0001)    Climatological SSS is read from file:
(PID.TID 0000.0001)    >> SSS_monthly.labsea1979 <<
(PID.TID 0000.0001) 
(PID.TID 0000.0001) // =======================================================
(PID.TID 0000.0001) // External forcing (EXF) configuration  >>> END <<<
(PID.TID 0000.0001) // =======================================================
(PID.TID 0000.0001) 
(PID.TID 0000.0001) // =======================================================
(PID.TID 0000.0001) // Seaice configuration (SEAICE_PARM01) >>> START <<<
(PID.TID 0000.0001) // =======================================================
(PID.TID 0000.0001) 
(PID.TID 0000.0001)    Seaice time stepping configuration   > START <
(PID.TID 0000.0001)    ----------------------------------------------
(PID.TID 0000.0001) SEAICE_deltaTtherm= /* thermodynamic timestep */
(PID.TID 0000.0001)                 3.600000000000000E+03
(PID.TID 0000.0001)     ;
(PID.TID 0000.0001) SEAICE_deltaTdyn  = /* dynamic timestep */
(PID.TID 0000.0001)                 3.600000000000000E+03
(PID.TID 0000.0001)     ;
(PID.TID 0000.0001) SEAICE_deltaTevp  = /* EVP timestep */
(PID.TID 0000.0001)                 1.234567000000000E+05
(PID.TID 0000.0001)     ;
(PID.TID 0000.0001) SEAICEuseBDF2  = /* use backw. differencing for mom. eq. */
(PID.TID 0000.0001)                   F
(PID.TID 0000.0001)     ;
(PID.TID 0000.0001) SEAICEupdateOceanStress= /* update Ocean surf. stress */
(PID.TID 0000.0001)                   T
(PID.TID 0000.0001)     ;
(PID.TID 0000.0001) SEAICErestoreUnderIce  = /* restore T and S under ice */
(PID.TID 0000.0001)                   F
(PID.TID 0000.0001)     ;
(PID.TID 0000.0001) 
(PID.TID 0000.0001)    Seaice dynamics configuration   > START <
(PID.TID 0000.0001)    ------------------------------------------
(PID.TID 0000.0001) SEAICEuseDYNAMICS = /* use dynamics */
(PID.TID 0000.0001)                   T
(PID.TID 0000.0001)     ;
(PID.TID 0000.0001) model grid type   = /* type of sea ice model grid */
(PID.TID 0000.0001)               'C-GRID'
(PID.TID 0000.0001)     ;
(PID.TID 0000.0001) SEAICEuseStrImpCpl = /* use strongly implicit coupling */
(PID.TID 0000.0001)                   F
(PID.TID 0000.0001)     ;
(PID.TID 0000.0001) SEAICEusePicardAsPrecon = /* Picard as preconditioner */
(PID.TID 0000.0001)                   F
(PID.TID 0000.0001)     ;
(PID.TID 0000.0001) SEAICEuseLSR      = /* use default Picard-LSR solver */
(PID.TID 0000.0001)                   T
(PID.TID 0000.0001)     ;
(PID.TID 0000.0001) SEAICEuseLSRflex  = /* with residual norm criterion */
(PID.TID 0000.0001)                   F
(PID.TID 0000.0001)     ;
(PID.TID 0000.0001) SEAICEuseKrylov   = /* use Picard-Krylov solver */
(PID.TID 0000.0001)                   F
(PID.TID 0000.0001)     ;
(PID.TID 0000.0001) SEAICEuseEVP      = /* use EVP solver rather than LSR */
(PID.TID 0000.0001)                   F
(PID.TID 0000.0001)     ;
(PID.TID 0000.0001) SEAICEuseJFNK     = /* use JFNK solver */
(PID.TID 0000.0001)                   F
(PID.TID 0000.0001)     ;
(PID.TID 0000.0001) SEAICEuseFREEDRIFT = /* use free drift solution */
(PID.TID 0000.0001)                   F
(PID.TID 0000.0001)     ;
(PID.TID 0000.0001) OCEAN_drag        = /* air-ocean drag coefficient */
(PID.TID 0000.0001)                 1.000000000000000E-03
(PID.TID 0000.0001)     ;
(PID.TID 0000.0001) SEAICE_drag       = /* air-ice drag coefficient */
(PID.TID 0000.0001)                 2.000000000000000E-03
(PID.TID 0000.0001)     ;
(PID.TID 0000.0001) SEAICE_drag_south      = /* Southern Ocean SEAICE_drag */
(PID.TID 0000.0001)                 2.000000000000000E-03
(PID.TID 0000.0001)     ;
(PID.TID 0000.0001) SEAICE_waterDrag  = /* water-ice drag (no units) */
(PID.TID 0000.0001)                 5.210126582278480E-03
(PID.TID 0000.0001)     ;
(PID.TID 0000.0001) SEAICE_waterDrag_south = /* Southern Ocean waterDrag (no units) */
(PID.TID 0000.0001)                 5.210126582278480E-03
(PID.TID 0000.0001)     ;
(PID.TID 0000.0001) SEAICEdWatMin = /* minimum linear water-ice drag (in m/s) */
(PID.TID 0000.0001)                 2.500000000000000E-01
(PID.TID 0000.0001)     ;
(PID.TID 0000.0001) SEAICEuseTilt     = /* include surface tilt in dyna. */
(PID.TID 0000.0001)                   T
(PID.TID 0000.0001)     ;
(PID.TID 0000.0001) SEAICEuseTEM      = /* use truncated ellipse rheology */
(PID.TID 0000.0001)                   F
(PID.TID 0000.0001)     ;
(PID.TID 0000.0001) SEAICE_strength   = /* sea-ice strength Pstar */
(PID.TID 0000.0001)                 2.678000000000000E+04
(PID.TID 0000.0001)     ;
(PID.TID 0000.0001) SEAICE_cStar      = /* sea-ice strength parameter cStar */
(PID.TID 0000.0001)                 2.000000000000000E+01
(PID.TID 0000.0001)     ;
(PID.TID 0000.0001) SEAICEpressReplFac= /* press. replacement method factor */
(PID.TID 0000.0001)                 1.000000000000000E+00
(PID.TID 0000.0001)     ;
(PID.TID 0000.0001) SEAICE_tensilFac  = /* sea-ice tensile strength factor */
(PID.TID 0000.0001)                 0.000000000000000E+00
(PID.TID 0000.0001)     ;
(PID.TID 0000.0001) SEAICE_tensilDepth= /* crit. depth for tensile strength */
(PID.TID 0000.0001)                 0.000000000000000E+00
(PID.TID 0000.0001)     ;
(PID.TID 0000.0001) SEAICEpresH0   = /* sea-ice strength Heff threshold */
(PID.TID 0000.0001)                 1.000000000000000E+00
(PID.TID 0000.0001)     ;
(PID.TID 0000.0001) SEAICEpresPow0 = /* exponent for Heff<SEAICEpresH0 */
(PID.TID 0000.0001)                       1
(PID.TID 0000.0001)     ;
(PID.TID 0000.0001) SEAICEpresPow1 = /* exponent for Heff>SEAICEpresH0 */
(PID.TID 0000.0001)                       1
(PID.TID 0000.0001)     ;
(PID.TID 0000.0001) SEAICEetaZmethod = /* method computing eta at Z-point */
(PID.TID 0000.0001)                       0
(PID.TID 0000.0001)     ;
(PID.TID 0000.0001) SEAICE_zetaMaxFac = /* factor for upper viscosity bound */
(PID.TID 0000.0001)                 2.500000000000000E+08
(PID.TID 0000.0001)     ;
(PID.TID 0000.0001) SEAICE_zetaMin    = /* lower bound for viscosity */
(PID.TID 0000.0001)                 0.000000000000000E+00
(PID.TID 0000.0001)     ;
(PID.TID 0000.0001) SEAICE_eccen    = /* elliptical yield curve eccent */
(PID.TID 0000.0001)                 2.000000000000000E+00
(PID.TID 0000.0001)     ;
(PID.TID 0000.0001) SEAICEstressFactor    = /* wind stress scaling factor */
(PID.TID 0000.0001)                 1.000000000000000E+00
(PID.TID 0000.0001)     ;
(PID.TID 0000.0001) SEAICE_airTurnAngle    = /* air-ice turning angle */
(PID.TID 0000.0001)                 0.000000000000000E+00
(PID.TID 0000.0001)     ;
(PID.TID 0000.0001) SEAICE_waterTurnAngle  = /* ice-water turning angle */
(PID.TID 0000.0001)                 0.000000000000000E+00
(PID.TID 0000.0001)     ;
(PID.TID 0000.0001) SEAICEuseMetricTerms = /* use metric terms */
(PID.TID 0000.0001)                   T
(PID.TID 0000.0001)     ;
(PID.TID 0000.0001) SEAICE_no_slip    = /* no slip boundary conditions */
(PID.TID 0000.0001)                   F
(PID.TID 0000.0001)     ;
(PID.TID 0000.0001) SEAICE_2ndOrderBC = /* 2nd order no slip boundary conditions */
(PID.TID 0000.0001)                   F
(PID.TID 0000.0001)     ;
(PID.TID 0000.0001) SEAICE_clipVeloctities = /* impose max. vels. */
(PID.TID 0000.0001)                   F
(PID.TID 0000.0001)     ;
(PID.TID 0000.0001) useHB87stressCoupling  = /* altern. ice-ocean stress */
(PID.TID 0000.0001)                   F
(PID.TID 0000.0001)     ;
(PID.TID 0000.0001) SEAICEscaleSurfStress  = /* scale atm. and ocean-surface stress with AREA */
(PID.TID 0000.0001)                   F
(PID.TID 0000.0001)     ;
(PID.TID 0000.0001) SEAICE_maskRHS    = /* mask RHS of solver */
(PID.TID 0000.0001)                   F
(PID.TID 0000.0001)     ;
(PID.TID 0000.0001) SEAICEaddSnowMass = /* add snow mass to seaiceMassC/U/V */
(PID.TID 0000.0001)                   F
(PID.TID 0000.0001)     ;
(PID.TID 0000.0001) LSR_mixIniGuess = /* mix free-drift sol. into LSR initial Guess */
(PID.TID 0000.0001)                       1
(PID.TID 0000.0001)     ;
(PID.TID 0000.0001) SEAICE_LSRrelaxU  = /* LSR solver: relaxation parameter */
(PID.TID 0000.0001)                 9.500000000000000E-01
(PID.TID 0000.0001)     ;
(PID.TID 0000.0001) SEAICE_LSRrelaxV  = /* LSR solver: relaxation parameter */
(PID.TID 0000.0001)                 9.500000000000000E-01
(PID.TID 0000.0001)     ;
(PID.TID 0000.0001) LSR_ERROR         = /* sets accuracy of LSR solver */
(PID.TID 0000.0001)                 1.000000000000000E-12
(PID.TID 0000.0001)     ;
(PID.TID 0000.0001) SOLV_NCHECK       = /* test interval for LSR solver */
(PID.TID 0000.0001)                       2
(PID.TID 0000.0001)     ;
(PID.TID 0000.0001) SEAICEuseMultiTileSolver = /* use full domain tri-diag solver */
(PID.TID 0000.0001)                   F
(PID.TID 0000.0001)     ;
(PID.TID 0000.0001) SEAICE_OLx = /* overlap for LSR/preconditioner */
(PID.TID 0000.0001)                       0
(PID.TID 0000.0001)     ;
(PID.TID 0000.0001) SEAICE_OLy = /* overlap for LSR/preconditioner */
(PID.TID 0000.0001)                       0
(PID.TID 0000.0001)     ;
(PID.TID 0000.0001) SEAICEnonLinIterMax = /* max. number of nonlinear solver steps */
(PID.TID 0000.0001)                       2
(PID.TID 0000.0001)     ;
(PID.TID 0000.0001) SEAICElinearIterMax = /* max. number of linear solver steps */
(PID.TID 0000.0001)                    1500
(PID.TID 0000.0001)     ;
(PID.TID 0000.0001) SEAICEnonLinTol     = /* non-linear solver tolerance */
(PID.TID 0000.0001)                 0.000000000000000E+00
(PID.TID 0000.0001)     ;
(PID.TID 0000.0001) 
(PID.TID 0000.0001)    Seaice advection diffusion config,   > START <
(PID.TID 0000.0001)    -----------------------------------------------
(PID.TID 0000.0001) SEAICEmomAdvection = /* advect sea ice momentum */
(PID.TID 0000.0001)                   F
(PID.TID 0000.0001)     ;
(PID.TID 0000.0001) SEAICEadvHeff = /* advect effective ice thickness */
(PID.TID 0000.0001)                   T
(PID.TID 0000.0001)     ;
(PID.TID 0000.0001) SEAICEadvArea = /* advect fractional ice area */
(PID.TID 0000.0001)                   T
(PID.TID 0000.0001)     ;
(PID.TID 0000.0001) SEAICEadvSnow = /* advect snow layer together with ice */
(PID.TID 0000.0001)                   T
(PID.TID 0000.0001)     ;
(PID.TID 0000.0001) SEAICEadvSalt = /* advect salinity together with ice */
(PID.TID 0000.0001)                   T
(PID.TID 0000.0001)     ;
(PID.TID 0000.0001) SEAICEmultiDimAdvection = /* multidimadvec */
(PID.TID 0000.0001)                   T
(PID.TID 0000.0001)     ;
(PID.TID 0000.0001) SEAICEadvScheme   = /* advection scheme for ice */
(PID.TID 0000.0001)                       7
(PID.TID 0000.0001)     ;
(PID.TID 0000.0001) SEAICEadvSchArea  = /* advection scheme for area */
(PID.TID 0000.0001)                       7
(PID.TID 0000.0001)     ;
(PID.TID 0000.0001) SEAICEadvSchHeff  = /* advection scheme for thickness */
(PID.TID 0000.0001)                       7
(PID.TID 0000.0001)     ;
(PID.TID 0000.0001) SEAICEadvSchSnow  = /* advection scheme for snow */
(PID.TID 0000.0001)                       7
(PID.TID 0000.0001)     ;
(PID.TID 0000.0001) SEAICEadvSchSalt  = /* advection scheme for salt */
(PID.TID 0000.0001)                       7
(PID.TID 0000.0001)     ;
(PID.TID 0000.0001) SEAICEdiffKhArea  = /* diffusivity (m^2/s) for area */
(PID.TID 0000.0001)                 2.000000000000000E+01
(PID.TID 0000.0001)     ;
(PID.TID 0000.0001) SEAICEdiffKhHeff  = /* diffusivity (m^2/s) for heff */
(PID.TID 0000.0001)                 2.000000000000000E+01
(PID.TID 0000.0001)     ;
(PID.TID 0000.0001) SEAICEdiffKhSnow  = /* diffusivity (m^2/s) for snow */
(PID.TID 0000.0001)                 2.000000000000000E+01
(PID.TID 0000.0001)     ;
(PID.TID 0000.0001) SEAICEdiffKhSalt  = /* diffusivity (m^2/s) for salt */
(PID.TID 0000.0001)                 2.000000000000000E+01
(PID.TID 0000.0001)     ;
(PID.TID 0000.0001) DIFF1             = /* parameter used in advect.F [m/s] */
(PID.TID 0000.0001)                 0.000000000000000E+00
(PID.TID 0000.0001)     ;
(PID.TID 0000.0001) 
(PID.TID 0000.0001)    Seaice thermodynamics configuration   > START <
(PID.TID 0000.0001)    -----------------------------------------------
(PID.TID 0000.0001) SEAICE_rhoIce     = /* density of sea ice (kg/m3) */
(PID.TID 0000.0001)                 9.100000000000000E+02
(PID.TID 0000.0001)     ;
(PID.TID 0000.0001) SEAICE_rhoSnow    = /* density of snow (kg/m3) */
(PID.TID 0000.0001)                 3.300000000000000E+02
(PID.TID 0000.0001)     ;
(PID.TID 0000.0001) SEAICE_rhoAir     = /* density of air (kg/m3) */
(PID.TID 0000.0001)                 1.200000000000000E+00
(PID.TID 0000.0001)     ;
(PID.TID 0000.0001) usePW79thermodynamics  = /* default 0-layer TD */
(PID.TID 0000.0001)                   T
(PID.TID 0000.0001)     ;
(PID.TID 0000.0001) SEAICE_lhEvap     = /* latent heat of evaporation */
(PID.TID 0000.0001)                 2.500000000000000E+06
(PID.TID 0000.0001)     ;
(PID.TID 0000.0001) SEAICE_lhFusion   = /* latent heat of fusion */
(PID.TID 0000.0001)                 3.340000000000000E+05
(PID.TID 0000.0001)     ;
(PID.TID 0000.0001) SEAICE_mcPheePiston = /* turbulent flux "piston velocity" a la McPhee (m/s) */
(PID.TID 0000.0001)                 4.000000000000000E-05
(PID.TID 0000.0001)     ;
(PID.TID 0000.0001) SEAICE_mcPheeTaper = /* tapering of turbulent flux (0.< <1.) for AREA=1. */
(PID.TID 0000.0001)                 0.000000000000000E+00
(PID.TID 0000.0001)     ;
(PID.TID 0000.0001) SEAICE_mcPheeStepFunc = /* replace linear tapering with step funct. */
(PID.TID 0000.0001)                   F
(PID.TID 0000.0001)     ;
(PID.TID 0000.0001) SEAICE_frazilFrac = /* frazil (T<tempFrz) to seaice conversion rate (0.< <1.) */
(PID.TID 0000.0001)                 3.000000000000000E-01
(PID.TID 0000.0001)     ;
(PID.TID 0000.0001) SEAICE_tempFrz0   = /* freezing temp. of sea water (intercept) */
(PID.TID 0000.0001)                -1.960000000000000E+00
(PID.TID 0000.0001)     ;
(PID.TID 0000.0001) SEAICE_dTempFrz_dS= /* freezing temp. of sea water (slope) */
(PID.TID 0000.0001)                 0.000000000000000E+00
(PID.TID 0000.0001)     ;
(PID.TID 0000.0001) SEAICE_growMeltByConv  = /* grow,melt by vert. conv. */
(PID.TID 0000.0001)                   F
(PID.TID 0000.0001)     ;
(PID.TID 0000.0001) SEAICE_doOpenWaterGrowth = /* grow by open water */
(PID.TID 0000.0001)                   T
(PID.TID 0000.0001)     ;
(PID.TID 0000.0001) SEAICE_doOpenWaterMelt = /* melt by open water */
(PID.TID 0000.0001)                   F
(PID.TID 0000.0001)     ;
(PID.TID 0000.0001) SEAICE_areaGainFormula = /* ice cover gain formula (1,2)*/
(PID.TID 0000.0001)                       1
(PID.TID 0000.0001)     1=from growth by ATM
(PID.TID 0000.0001)     2=from predicted growth by ATM
(PID.TID 0000.0001)     ;
(PID.TID 0000.0001) SEAICE_areaLossFormula = /* ice cover loss formula (1,2)*/
(PID.TID 0000.0001)                       1
(PID.TID 0000.0001)     1=from all but only melt conributions by ATM and OCN
(PID.TID 0000.0001)     2=from net melt-grow>0 by ATM and OCN
(PID.TID 0000.0001)     3=from predicted melt by ATM
(PID.TID 0000.0001)     ;
(PID.TID 0000.0001) HO                = /* nominal thickness of new ice */
(PID.TID 0000.0001)                 5.000000000000000E-01
(PID.TID 0000.0001)     ;
(PID.TID 0000.0001) HO_south               = /* Southern Ocean HO */
(PID.TID 0000.0001)                 5.000000000000000E-01
(PID.TID 0000.0001)     ;
(PID.TID 0000.0001) SEAICE_area_max        = /* set to les than 1. to mimic open leads */
(PID.TID 0000.0001)                 1.000000000000000E+00
(PID.TID 0000.0001)     ;
(PID.TID 0000.0001)    Sea ice has a variable salinity such that
(PID.TID 0000.0001) SEAICE_saltFrac = /* fraction of ocn salinity in new ice */
(PID.TID 0000.0001)                 3.000000000000000E-01
(PID.TID 0000.0001)     ;
(PID.TID 0000.0001) SEAICE_salinityTracer = /* test SITR varia. salinity */
(PID.TID 0000.0001)                   F
(PID.TID 0000.0001)     ;
(PID.TID 0000.0001) SEAICEuseFlooding = /* turn submerged snow into ice */
(PID.TID 0000.0001)                   T
(PID.TID 0000.0001)     ;
(PID.TID 0000.0001) 
(PID.TID 0000.0001)    Seaice air-sea fluxes configuration,   > START <
(PID.TID 0000.0001)    -----------------------------------------------
(PID.TID 0000.0001) SEAICEheatConsFix  = /* accound for ocn<->seaice advect. heat flux */
(PID.TID 0000.0001)                   F
(PID.TID 0000.0001)     ;
(PID.TID 0000.0001) SEAICE_multDim    = /* number of ice categories (1 or 7) */
(PID.TID 0000.0001)                       7
(PID.TID 0000.0001)     ;
(PID.TID 0000.0001) SEAICE_PDF        = /* sea-ice distribution (-) */
(PID.TID 0000.0001)     7 @  1.428571428571428E-01              /* K =  1:  7 */
(PID.TID 0000.0001)     ;
(PID.TID 0000.0001) IMAX_TICE         = /* iterations for ice surface temp */
(PID.TID 0000.0001)                      10
(PID.TID 0000.0001)     ;
(PID.TID 0000.0001) postSolvTempIter= /* flux calculation after surf. temp iter */
(PID.TID 0000.0001)                       0
(PID.TID 0000.0001)     ;
(PID.TID 0000.0001) SEAICE_dryIceAlb  = /* winter albedo */
(PID.TID 0000.0001)                 8.756000000000000E-01
(PID.TID 0000.0001)     ;
(PID.TID 0000.0001) SEAICE_wetIceAlb  = /* summer albedo */
(PID.TID 0000.0001)                 7.856000000000000E-01
(PID.TID 0000.0001)     ;
(PID.TID 0000.0001) SEAICE_drySnowAlb = /* dry snow albedo */
(PID.TID 0000.0001)                 9.656000000000000E-01
(PID.TID 0000.0001)     ;
(PID.TID 0000.0001) SEAICE_wetSnowAlb = /* wet snow albedo */
(PID.TID 0000.0001)                 8.256000000000000E-01
(PID.TID 0000.0001)     ;
(PID.TID 0000.0001) SEAICE_dryIceAlb_south = /* Southern Ocean dryIceAlb */
(PID.TID 0000.0001)                 8.756000000000000E-01
(PID.TID 0000.0001)     ;
(PID.TID 0000.0001) SEAICE_wetIceAlb_south = /* Southern Ocean wetIceAlb */
(PID.TID 0000.0001)                 7.856000000000000E-01
(PID.TID 0000.0001)     ;
(PID.TID 0000.0001) SEAICE_drySnowAlb_south= /* Southern Ocean drySnowAlb */
(PID.TID 0000.0001)                 9.656000000000000E-01
(PID.TID 0000.0001)     ;
(PID.TID 0000.0001) SEAICE_wetSnowAlb_south= /* Southern Ocean wetSnowAlb */
(PID.TID 0000.0001)                 8.256000000000000E-01
(PID.TID 0000.0001)     ;
(PID.TID 0000.0001) SEAICE_wetAlbTemp= /* Temp (o.C) threshold for wet-albedo */
(PID.TID 0000.0001)                -1.000000000000000E-03
(PID.TID 0000.0001)     ;
(PID.TID 0000.0001) SEAICE_snow_emiss = /* snow emissivity */
(PID.TID 0000.0001)                 9.500000000000000E-01
(PID.TID 0000.0001)     ;
(PID.TID 0000.0001) SEAICE_ice_emiss = /* seaice emissivity */
(PID.TID 0000.0001)                 9.500000000000000E-01
(PID.TID 0000.0001)     ;
(PID.TID 0000.0001) SEAICE_cpAir      = /* heat capacity of air */
(PID.TID 0000.0001)                 1.005000000000000E+03
(PID.TID 0000.0001)     ;
(PID.TID 0000.0001) SEAICE_dalton     = /* constant dalton number */
(PID.TID 0000.0001)                 1.750000000000000E-03
(PID.TID 0000.0001)     ;
(PID.TID 0000.0001) SEAICE_iceConduct = /* sea-ice conductivity */
(PID.TID 0000.0001)                 2.165600000000000E+00
(PID.TID 0000.0001)     ;
(PID.TID 0000.0001) SEAICE_snowConduct= /* snow conductivity */
(PID.TID 0000.0001)                 3.100000000000000E-01
(PID.TID 0000.0001)     ;
(PID.TID 0000.0001) SEAICE_snowThick  = /* cutoff snow thickness (for albedo) */
(PID.TID 0000.0001)                 1.500000000000000E-01
(PID.TID 0000.0001)     ;
(PID.TID 0000.0001) SEAICE_shortwave  = /* penetration shortwave radiation */
(PID.TID 0000.0001)                 3.000000000000000E-01
(PID.TID 0000.0001)     ;
(PID.TID 0000.0001) useMaykutSatVapPoly = /* use Maykut Polynomial for Sat.Vap.Pr */
(PID.TID 0000.0001)                   T
(PID.TID 0000.0001)     ;
(PID.TID 0000.0001) MIN_ATEMP         = /* minimum air temperature */
(PID.TID 0000.0001)                -5.000000000000000E+01
(PID.TID 0000.0001)     ;
(PID.TID 0000.0001) MIN_LWDOWN        = /* minimum downward longwave */
(PID.TID 0000.0001)                 6.000000000000000E+01
(PID.TID 0000.0001)     ;
(PID.TID 0000.0001) MIN_TICE          = /* minimum ice temperature */
(PID.TID 0000.0001)                -5.000000000000000E+01
(PID.TID 0000.0001)     ;
(PID.TID 0000.0001) 
(PID.TID 0000.0001)    Seaice initialization and IO config.,   > START <
(PID.TID 0000.0001)    -------------------------------------------------
(PID.TID 0000.0001) SEAICE_initialHEFF= /* initial sea-ice thickness */
(PID.TID 0000.0001)                 0.000000000000000E+00
(PID.TID 0000.0001)     ;
(PID.TID 0000.0001) AreaFile = /* Initial ice concentration File */
(PID.TID 0000.0001)               ''
(PID.TID 0000.0001)     ;
(PID.TID 0000.0001) HeffFile = /* Initial effective ice thickness File */
(PID.TID 0000.0001)               ''
(PID.TID 0000.0001)     ;
(PID.TID 0000.0001) HsnowFile = /* Initial snow thickness File */
(PID.TID 0000.0001)               ''
(PID.TID 0000.0001)     ;
(PID.TID 0000.0001) HsaltFile = /* Initial HSALT File */
(PID.TID 0000.0001)               ''
(PID.TID 0000.0001)     ;
(PID.TID 0000.0001) uIceFile = /* Initial U-ice velocity File */
(PID.TID 0000.0001)               ''
(PID.TID 0000.0001)     ;
(PID.TID 0000.0001) vIceFile = /* Initial V-ice velocity File */
(PID.TID 0000.0001)               ''
(PID.TID 0000.0001)     ;
(PID.TID 0000.0001) SEAICEwriteState  = /* write sea ice state to file */
(PID.TID 0000.0001)                   T
(PID.TID 0000.0001)     ;
(PID.TID 0000.0001) SEAICE_monFreq  = /* monitor frequency */
(PID.TID 0000.0001)                 1.000000000000000E+00
(PID.TID 0000.0001)     ;
(PID.TID 0000.0001) SEAICE_dumpFreq   = /* dump frequency */
(PID.TID 0000.0001)                 0.000000000000000E+00
(PID.TID 0000.0001)     ;
(PID.TID 0000.0001) SEAICE_taveFreq   = /* time-averaging frequency */
(PID.TID 0000.0001)                 3.600000000000000E+04
(PID.TID 0000.0001)     ;
(PID.TID 0000.0001) SEAICE_mon_stdio  = /* write monitor to std-outp */
(PID.TID 0000.0001)                   T
(PID.TID 0000.0001)     ;
(PID.TID 0000.0001) SEAICE_dump_mdsio = /* write snap-shot   using MDSIO */
(PID.TID 0000.0001)                   T
(PID.TID 0000.0001)     ;
(PID.TID 0000.0001) SEAICE_tave_mdsio = /* write TimeAverage using MDSIO */
(PID.TID 0000.0001)                   T
(PID.TID 0000.0001)     ;
(PID.TID 0000.0001) 
(PID.TID 0000.0001)    Seaice regularization numbers,   > START <
(PID.TID 0000.0001)    -----------------------------------------------
(PID.TID 0000.0001) SEAICE_deltaMin   = /* reduce singularities in Delta */
(PID.TID 0000.0001)                 1.000000000000000E-10
(PID.TID 0000.0001)     ;
(PID.TID 0000.0001) SEAICE_EPS        = /* small number */
(PID.TID 0000.0001)                 1.000000000000000E-10
(PID.TID 0000.0001)     ;
(PID.TID 0000.0001) SEAICE_EPS_SQ     = /* small number squared */
(PID.TID 0000.0001)                 1.000000000000000E-20
(PID.TID 0000.0001)     ;
(PID.TID 0000.0001) SEAICE_area_reg   = /* reduce derivative singularities */
(PID.TID 0000.0001)                 1.000000000000000E-05
(PID.TID 0000.0001)     ;
(PID.TID 0000.0001) SEAICE_hice_reg   = /* reduce derivative singularities */
(PID.TID 0000.0001)                 5.000000000000000E-02
(PID.TID 0000.0001)     ;
(PID.TID 0000.0001) SEAICE_area_floor = /* reduce derivative singularities */
(PID.TID 0000.0001)                 1.000000000000000E-05
(PID.TID 0000.0001)     ;
(PID.TID 0000.0001) 
(PID.TID 0000.0001) // =======================================================
(PID.TID 0000.0001) // Seaice configuration (SEAICE_PARM01) >>> END <<<
(PID.TID 0000.0001) // =======================================================
(PID.TID 0000.0001) 
(PID.TID 0000.0001) %MON fCori_max                    =   1.2755669869709E-04
(PID.TID 0000.0001) %MON fCori_min                    =   1.0666243053630E-04
(PID.TID 0000.0001) %MON fCori_mean                   =   1.1761200538805E-04
(PID.TID 0000.0001) %MON fCori_sd                     =   6.8513324598791E-06
(PID.TID 0000.0001) %MON fCoriG_max                   =   1.2630328426495E-04
(PID.TID 0000.0001) %MON fCoriG_min                   =   1.0491029349513E-04
(PID.TID 0000.0001) %MON fCoriG_mean                  =   1.1610278222072E-04
(PID.TID 0000.0001) %MON fCoriG_sd                    =   7.0142966441249E-06
(PID.TID 0000.0001) %MON fCoriCos_max                 =   9.9464325599212E-05
(PID.TID 0000.0001) %MON fCoriCos_min                 =   7.0705832661230E-05
(PID.TID 0000.0001) %MON fCoriCos_mean                =   8.5450123718417E-05
(PID.TID 0000.0001) %MON fCoriCos_sd                  =   9.4222048082790E-06
(PID.TID 0000.0001) INI_CG2D: CG2D normalisation factor =  1.8806719473501505E-04
(PID.TID 0000.0001) 
(PID.TID 0000.0001) // =======================================================
(PID.TID 0000.0001) // Model configuration
(PID.TID 0000.0001) // =======================================================
(PID.TID 0000.0001) //
(PID.TID 0000.0001) // "Physical" paramters ( PARM01 in namelist )
(PID.TID 0000.0001) //
(PID.TID 0000.0001) buoyancyRelation = /* Type of relation to get Buoyancy */
(PID.TID 0000.0001)               'OCEANIC'
(PID.TID 0000.0001)     ;
(PID.TID 0000.0001) fluidIsAir   =  /* fluid major constituent is Air */
(PID.TID 0000.0001)                   F
(PID.TID 0000.0001)     ;
(PID.TID 0000.0001) fluidIsWater =  /* fluid major constituent is Water */
(PID.TID 0000.0001)                   T
(PID.TID 0000.0001)     ;
(PID.TID 0000.0001) usingPCoords =  /* use p (or p*) vertical coordinate */
(PID.TID 0000.0001)                   F
(PID.TID 0000.0001)     ;
(PID.TID 0000.0001) usingZCoords =  /* use z (or z*) vertical coordinate */
(PID.TID 0000.0001)                   T
(PID.TID 0000.0001)     ;
(PID.TID 0000.0001) tRef =   /* Reference temperature profile ( oC or K ) */
(PID.TID 0000.0001)                 2.400000000000000E+01,      /* K =  1 */
(PID.TID 0000.0001)                 2.300000000000000E+01,      /* K =  2 */
(PID.TID 0000.0001)                 2.200000000000000E+01,      /* K =  3 */
(PID.TID 0000.0001)                 2.100000000000000E+01,      /* K =  4 */
(PID.TID 0000.0001)                 2.000000000000000E+01,      /* K =  5 */
(PID.TID 0000.0001)                 1.900000000000000E+01,      /* K =  6 */
(PID.TID 0000.0001)                 1.800000000000000E+01,      /* K =  7 */
(PID.TID 0000.0001)                 1.700000000000000E+01,      /* K =  8 */
(PID.TID 0000.0001)                 1.600000000000000E+01,      /* K =  9 */
(PID.TID 0000.0001)                 1.500000000000000E+01,      /* K = 10 */
(PID.TID 0000.0001)                 1.400000000000000E+01,      /* K = 11 */
(PID.TID 0000.0001)                 1.300000000000000E+01,      /* K = 12 */
(PID.TID 0000.0001)                 1.200000000000000E+01,      /* K = 13 */
(PID.TID 0000.0001)                 1.100000000000000E+01,      /* K = 14 */
(PID.TID 0000.0001)                 1.000000000000000E+01,      /* K = 15 */
(PID.TID 0000.0001)                 9.000000000000000E+00,      /* K = 16 */
(PID.TID 0000.0001)                 8.000000000000000E+00,      /* K = 17 */
(PID.TID 0000.0001)                 7.000000000000000E+00,      /* K = 18 */
(PID.TID 0000.0001)                 6.000000000000000E+00,      /* K = 19 */
(PID.TID 0000.0001)                 5.000000000000000E+00,      /* K = 20 */
(PID.TID 0000.0001)                 4.000000000000000E+00,      /* K = 21 */
(PID.TID 0000.0001)                 3.000000000000000E+00,      /* K = 22 */
(PID.TID 0000.0001)                 2.000000000000000E+00       /* K = 23 */
(PID.TID 0000.0001)     ;
(PID.TID 0000.0001) sRef =   /* Reference salinity profile ( g/kg ) */
(PID.TID 0000.0001)                 3.465000000000000E+01,      /* K =  1 */
(PID.TID 0000.0001)                 3.475000000000000E+01,      /* K =  2 */
(PID.TID 0000.0001)                 3.482000000000000E+01,      /* K =  3 */
(PID.TID 0000.0001)                 3.487000000000000E+01,      /* K =  4 */
(PID.TID 0000.0001)     2 @  3.490000000000000E+01,             /* K =  5:  6 */
(PID.TID 0000.0001)                 3.486000000000000E+01,      /* K =  7 */
(PID.TID 0000.0001)                 3.478000000000000E+01,      /* K =  8 */
(PID.TID 0000.0001)                 3.469000000000000E+01,      /* K =  9 */
(PID.TID 0000.0001)                 3.460000000000000E+01,      /* K = 10 */
(PID.TID 0000.0001)                 3.458000000000000E+01,      /* K = 11 */
(PID.TID 0000.0001)                 3.462000000000000E+01,      /* K = 12 */
(PID.TID 0000.0001)                 3.468000000000000E+01,      /* K = 13 */
(PID.TID 0000.0001)                 3.472000000000000E+01,      /* K = 14 */
(PID.TID 0000.0001)                 3.473000000000000E+01,      /* K = 15 */
(PID.TID 0000.0001)                 3.474000000000000E+01,      /* K = 16 */
(PID.TID 0000.0001)     2 @  3.473000000000000E+01,             /* K = 17: 18 */
(PID.TID 0000.0001)     2 @  3.472000000000000E+01,             /* K = 19: 20 */
(PID.TID 0000.0001)                 3.471000000000000E+01,      /* K = 21 */
(PID.TID 0000.0001)                 3.470000000000000E+01,      /* K = 22 */
(PID.TID 0000.0001)                 3.469000000000000E+01       /* K = 23 */
(PID.TID 0000.0001)     ;
(PID.TID 0000.0001) rhoRef =   /* Density vertical profile from (Ref,sRef)( kg/m^3 ) */
(PID.TID 0000.0001)                 1.023399597669854E+03,      /* K =  1 */
(PID.TID 0000.0001)                 1.023810240320856E+03,      /* K =  2 */
(PID.TID 0000.0001)                 1.024201435647580E+03,      /* K =  3 */
(PID.TID 0000.0001)                 1.024591510588746E+03,      /* K =  4 */
(PID.TID 0000.0001)                 1.024969611150069E+03,      /* K =  5 */
(PID.TID 0000.0001)                 1.025328017199967E+03,      /* K =  6 */
(PID.TID 0000.0001)                 1.025680833282475E+03,      /* K =  7 */
(PID.TID 0000.0001)                 1.026050051489947E+03,      /* K =  8 */
(PID.TID 0000.0001)                 1.026491970185416E+03,      /* K =  9 */
(PID.TID 0000.0001)                 1.027036952689552E+03,      /* K = 10 */
(PID.TID 0000.0001)                 1.027794852671120E+03,      /* K = 11 */
(PID.TID 0000.0001)                 1.028814168587807E+03,      /* K = 12 */
(PID.TID 0000.0001)                 1.030119722650770E+03,      /* K = 13 */
(PID.TID 0000.0001)                 1.031735154401125E+03,      /* K = 14 */
(PID.TID 0000.0001)                 1.033628649568903E+03,      /* K = 15 */
(PID.TID 0000.0001)                 1.035732830613343E+03,      /* K = 16 */
(PID.TID 0000.0001)                 1.037997052952795E+03,      /* K = 17 */
(PID.TID 0000.0001)                 1.040366267417616E+03,      /* K = 18 */
(PID.TID 0000.0001)                 1.042716568158493E+03,      /* K = 19 */
(PID.TID 0000.0001)                 1.045063813536698E+03,      /* K = 20 */
(PID.TID 0000.0001)                 1.047393250130134E+03,      /* K = 21 */
(PID.TID 0000.0001)                 1.049712998140759E+03,      /* K = 22 */
(PID.TID 0000.0001)                 1.052023490263938E+03       /* K = 23 */
(PID.TID 0000.0001)     ;
(PID.TID 0000.0001) dBdrRef = /* Vertical grad. of reference buoyancy [(m/s/r)^2] */
(PID.TID 0000.0001)                 0.000000000000000E+00,      /* K =  1 */
(PID.TID 0000.0001)                 3.513461801096672E-04,      /* K =  2 */
(PID.TID 0000.0001)                 2.578462793867026E-04,      /* K =  3 */
(PID.TID 0000.0001)                 1.716535447918954E-04,      /* K =  4 */
(PID.TID 0000.0001)                 1.391849606744939E-04,      /* K =  5 */
(PID.TID 0000.0001)                 1.106038973987551E-04,      /* K =  6 */
(PID.TID 0000.0001)                 7.062448315028799E-05,      /* K =  7 */
(PID.TID 0000.0001)                 4.112152780686669E-05,      /* K =  8 */
(PID.TID 0000.0001)                 2.554455911799560E-05,      /* K =  9 */
(PID.TID 0000.0001)                 1.739274227427603E-05,      /* K = 10 */
(PID.TID 0000.0001)                 1.573008010125636E-05,      /* K = 11 */
(PID.TID 0000.0001)                 1.341763357458043E-05,      /* K = 12 */
(PID.TID 0000.0001)                 1.029886793911016E-05,      /* K = 13 */
(PID.TID 0000.0001)                 7.244777660794312E-06,      /* K = 14 */
(PID.TID 0000.0001)                 5.291061202791868E-06,      /* K = 15 */
(PID.TID 0000.0001)                 4.668992652371521E-06,      /* K = 16 */
(PID.TID 0000.0001)                 3.952349989520169E-06,      /* K = 17 */
(PID.TID 0000.0001)                 3.937600045035830E-06,      /* K = 18 */
(PID.TID 0000.0001)                 3.833348475309353E-06,      /* K = 19 */
(PID.TID 0000.0001)                 4.027570774400333E-06,      /* K = 20 */
(PID.TID 0000.0001)                 3.935806005392895E-06,      /* K = 21 */
(PID.TID 0000.0001)                 3.995673930141529E-06,      /* K = 22 */
(PID.TID 0000.0001)                 4.061338744769299E-06       /* K = 23 */
(PID.TID 0000.0001)     ;
(PID.TID 0000.0001) useStrainTensionVisc= /* Use StrainTension Form of Viscous Operator */
(PID.TID 0000.0001)                   F
(PID.TID 0000.0001)     ;
(PID.TID 0000.0001) useVariableVisc = /* Use variable horizontal viscosity */
(PID.TID 0000.0001)                   F
(PID.TID 0000.0001)     ;
(PID.TID 0000.0001) useHarmonicVisc = /* Use harmonic horizontal viscosity */
(PID.TID 0000.0001)                   T
(PID.TID 0000.0001)     ;
(PID.TID 0000.0001) useBiharmonicVisc= /* Use biharmonic horiz.  viscosity */
(PID.TID 0000.0001)                   F
(PID.TID 0000.0001)     ;
(PID.TID 0000.0001) useSmag3D = /* Use isotropic 3-D Smagorinsky viscosity */
(PID.TID 0000.0001)                   F
(PID.TID 0000.0001)     ;
(PID.TID 0000.0001) viscAh  =   /* Lateral harmonic viscosity ( m^2/s ) */
(PID.TID 0000.0001)                 5.000000000000000E+04
(PID.TID 0000.0001)     ;
(PID.TID 0000.0001) viscA4  =   /* Lateral biharmonic viscosity ( m^4/s ) */
(PID.TID 0000.0001)                 0.000000000000000E+00
(PID.TID 0000.0001)     ;
(PID.TID 0000.0001) no_slip_sides =  /* Viscous BCs: No-slip sides */
(PID.TID 0000.0001)                   F
(PID.TID 0000.0001)     ;
(PID.TID 0000.0001) sideDragFactor = /* side-drag scaling factor (non-dim) */
(PID.TID 0000.0001)                 2.000000000000000E+00
(PID.TID 0000.0001)     ;
(PID.TID 0000.0001) viscArNr = /* vertical profile of vertical viscosity ( m^2/s )*/
(PID.TID 0000.0001)    23 @  1.930000000000000E-05              /* K =  1: 23 */
(PID.TID 0000.0001)     ;
(PID.TID 0000.0001) no_slip_bottom =  /* Viscous BCs: No-slip bottom */
(PID.TID 0000.0001)                   T
(PID.TID 0000.0001)     ;
(PID.TID 0000.0001) bottomVisc_pCell = /* Partial-cell in bottom Visc. BC */
(PID.TID 0000.0001)                   F
(PID.TID 0000.0001)     ;
(PID.TID 0000.0001) bottomDragLinear = /* linear bottom-drag coefficient ( m/s ) */
(PID.TID 0000.0001)                 0.000000000000000E+00
(PID.TID 0000.0001)     ;
(PID.TID 0000.0001) bottomDragQuadratic = /* quadratic bottom-drag coefficient (-) */
(PID.TID 0000.0001)                 0.000000000000000E+00
(PID.TID 0000.0001)     ;
(PID.TID 0000.0001) selectBotDragQuadr = /* select quadratic bottom drag options */
(PID.TID 0000.0001)                      -1
(PID.TID 0000.0001)     ;
(PID.TID 0000.0001) diffKhT =   /* Laplacian diffusion of heat laterally ( m^2/s ) */
(PID.TID 0000.0001)                 0.000000000000000E+00
(PID.TID 0000.0001)     ;
(PID.TID 0000.0001) diffK4T =   /* Biharmonic diffusion of heat laterally ( m^4/s ) */
(PID.TID 0000.0001)                 1.000000000000000E+11
(PID.TID 0000.0001)     ;
(PID.TID 0000.0001) diffKhS =   /* Laplacian diffusion of salt laterally ( m^2/s ) */
(PID.TID 0000.0001)                 0.000000000000000E+00
(PID.TID 0000.0001)     ;
(PID.TID 0000.0001) diffK4S =   /* Biharmonic diffusion of salt laterally ( m^4/s ) */
(PID.TID 0000.0001)                 1.000000000000000E+11
(PID.TID 0000.0001)     ;
(PID.TID 0000.0001) diffKrNrT = /* vertical profile of vertical diffusion of Temp ( m^2/s )*/
(PID.TID 0000.0001)    23 @  1.460000000000000E-05              /* K =  1: 23 */
(PID.TID 0000.0001)     ;
(PID.TID 0000.0001) diffKrNrS = /* vertical profile of vertical diffusion of Salt ( m^2/s )*/
(PID.TID 0000.0001)    23 @  1.460000000000000E-05              /* K =  1: 23 */
(PID.TID 0000.0001)     ;
(PID.TID 0000.0001) diffKrBL79surf = /* Surface diffusion for Bryan and Lewis 79 ( m^2/s ) */
(PID.TID 0000.0001)                 0.000000000000000E+00
(PID.TID 0000.0001)     ;
(PID.TID 0000.0001) diffKrBL79deep = /* Deep diffusion for Bryan and Lewis 1979 ( m^2/s ) */
(PID.TID 0000.0001)                 0.000000000000000E+00
(PID.TID 0000.0001)     ;
(PID.TID 0000.0001) diffKrBL79scl = /* Depth scale for Bryan and Lewis 1979 ( m ) */
(PID.TID 0000.0001)                 2.000000000000000E+02
(PID.TID 0000.0001)     ;
(PID.TID 0000.0001) diffKrBL79Ho = /* Turning depth for Bryan and Lewis 1979 ( m ) */
(PID.TID 0000.0001)                -2.000000000000000E+03
(PID.TID 0000.0001)     ;
(PID.TID 0000.0001) ivdc_kappa = /* Implicit Vertical Diffusivity for Convection ( m^2/s) */
(PID.TID 0000.0001)                 0.000000000000000E+00
(PID.TID 0000.0001)     ;
(PID.TID 0000.0001) hMixCriteria=  /* Criteria for mixed-layer diagnostic */
(PID.TID 0000.0001)                -8.000000000000000E-01
(PID.TID 0000.0001)     ;
(PID.TID 0000.0001) dRhoSmall =  /* Parameter for mixed-layer diagnostic */
(PID.TID 0000.0001)                 1.000000000000000E-06
(PID.TID 0000.0001)     ;
(PID.TID 0000.0001) hMixSmooth=  /* Smoothing parameter for mixed-layer diagnostic */
(PID.TID 0000.0001)                 0.000000000000000E+00
(PID.TID 0000.0001)     ;
(PID.TID 0000.0001) eosType =  /* Type of Equation of State */
(PID.TID 0000.0001)               'JMD95Z'
(PID.TID 0000.0001)     ;
(PID.TID 0000.0001) eosRefP0 = /* Reference atmospheric pressure for EOS ( Pa ) */
(PID.TID 0000.0001)                 1.013250000000000E+05
(PID.TID 0000.0001)     ;
(PID.TID 0000.0001) selectP_inEOS_Zc = /* select pressure to use in EOS (0,1,2,3) */
(PID.TID 0000.0001)                       0
(PID.TID 0000.0001)     0= -g*rhoConst*z ; 1= pRef (from tRef,sRef); 2= Hyd P ; 3= Hyd+NH P
(PID.TID 0000.0001)     ;
(PID.TID 0000.0001) surf_pRef = /* Surface reference pressure ( Pa ) */
(PID.TID 0000.0001)                 1.013250000000000E+05
(PID.TID 0000.0001)     ;
(PID.TID 0000.0001) HeatCapacity_Cp =  /* Specific heat capacity ( J/kg/K ) */
(PID.TID 0000.0001)                 3.986000000000000E+03
(PID.TID 0000.0001)     ;
(PID.TID 0000.0001) celsius2K = /* 0 degree Celsius converted to Kelvin ( K ) */
(PID.TID 0000.0001)                 2.731600000000000E+02
(PID.TID 0000.0001)     ;
(PID.TID 0000.0001) rhoConst  = /* Reference density (Boussinesq)  ( kg/m^3 ) */
(PID.TID 0000.0001)                 1.027000000000000E+03
(PID.TID 0000.0001)     ;
(PID.TID 0000.0001) rhoFacC = /* normalized Reference density @ cell-Center (-) */
(PID.TID 0000.0001)    23 @  1.000000000000000E+00              /* K =  1: 23 */
(PID.TID 0000.0001)     ;
(PID.TID 0000.0001) rhoFacF = /* normalized Reference density @ W-Interface (-) */
(PID.TID 0000.0001)    24 @  1.000000000000000E+00              /* K =  1: 24 */
(PID.TID 0000.0001)     ;
(PID.TID 0000.0001) rhoConstFresh = /* Fresh-water reference density ( kg/m^3 ) */
(PID.TID 0000.0001)                 9.998000000000000E+02
(PID.TID 0000.0001)     ;
(PID.TID 0000.0001) gravity =   /* Gravitational acceleration ( m/s^2 ) */
(PID.TID 0000.0001)                 9.815600000000000E+00
(PID.TID 0000.0001)     ;
(PID.TID 0000.0001) gBaro =   /* Barotropic gravity ( m/s^2 ) */
(PID.TID 0000.0001)                 9.815600000000000E+00
(PID.TID 0000.0001)     ;
(PID.TID 0000.0001) gravFacC = /* gravity factor (vs surf.) @ cell-Center (-) */
(PID.TID 0000.0001)    23 @  1.000000000000000E+00              /* K =  1: 23 */
(PID.TID 0000.0001)     ;
(PID.TID 0000.0001) gravFacF = /* gravity factor (vs surf.) @ W-Interface (-) */
(PID.TID 0000.0001)    24 @  1.000000000000000E+00              /* K =  1: 24 */
(PID.TID 0000.0001)     ;
(PID.TID 0000.0001) rotationPeriod =   /* Rotation Period ( s ) */
(PID.TID 0000.0001)                 8.616400000000000E+04
(PID.TID 0000.0001)     ;
(PID.TID 0000.0001) omega =   /* Angular velocity ( rad/s ) */
(PID.TID 0000.0001)                 7.292123516990375E-05
(PID.TID 0000.0001)     ;
(PID.TID 0000.0001) f0 =   /* Reference coriolis parameter ( 1/s ) */
(PID.TID 0000.0001)                 1.000000000000000E-04
(PID.TID 0000.0001)     ;
(PID.TID 0000.0001) beta =   /* Beta ( 1/(m.s) ) */
(PID.TID 0000.0001)                 9.999999999999999E-12
(PID.TID 0000.0001)     ;
(PID.TID 0000.0001) fPrime =   /* Second coriolis parameter ( 1/s ) */
(PID.TID 0000.0001)                 0.000000000000000E+00
(PID.TID 0000.0001)     ;
(PID.TID 0000.0001) rigidLid =   /* Rigid lid on/off flag */
(PID.TID 0000.0001)                   F
(PID.TID 0000.0001)     ;
(PID.TID 0000.0001) implicitFreeSurface =   /* Implicit free surface on/off flag */
(PID.TID 0000.0001)                   T
(PID.TID 0000.0001)     ;
(PID.TID 0000.0001) freeSurfFac =   /* Implicit free surface factor */
(PID.TID 0000.0001)                 1.000000000000000E+00
(PID.TID 0000.0001)     ;
(PID.TID 0000.0001) implicSurfPress =  /* Surface Pressure implicit factor (0-1) */
(PID.TID 0000.0001)                 1.000000000000000E+00
(PID.TID 0000.0001)     ;
(PID.TID 0000.0001) implicDiv2DFlow =  /* Barot. Flow Div. implicit factor (0-1) */
(PID.TID 0000.0001)                 1.000000000000000E+00
(PID.TID 0000.0001)     ;
(PID.TID 0000.0001) uniformLin_PhiSurf = /* use uniform Bo_surf on/off flag */
(PID.TID 0000.0001)                   T
(PID.TID 0000.0001)     ;
(PID.TID 0000.0001) uniformFreeSurfLev = /* free-surface level-index is uniform */
(PID.TID 0000.0001)                   T
(PID.TID 0000.0001)     ;
(PID.TID 0000.0001) sIceLoadFac =  /* scale factor for sIceLoad (0-1) */
(PID.TID 0000.0001)                 1.000000000000000E+00
(PID.TID 0000.0001)     ;
(PID.TID 0000.0001) hFacMin =   /* minimum partial cell factor (hFac) */
(PID.TID 0000.0001)                 1.000000000000000E+00
(PID.TID 0000.0001)     ;
(PID.TID 0000.0001) hFacMinDr = /* minimum partial cell thickness ( m) */
(PID.TID 0000.0001)                 0.000000000000000E+00
(PID.TID 0000.0001)     ;
(PID.TID 0000.0001) exactConserv =  /* Exact Volume Conservation on/off flag */
(PID.TID 0000.0001)                   F
(PID.TID 0000.0001)     ;
(PID.TID 0000.0001) linFSConserveTr = /* Tracer correction for Lin Free Surface on/off flag */
(PID.TID 0000.0001)                   F
(PID.TID 0000.0001)     ;
(PID.TID 0000.0001) nonlinFreeSurf = /* Non-linear Free Surf. options (-1,0,1,2,3)*/
(PID.TID 0000.0001)                       0
(PID.TID 0000.0001)      -1,0= Off ; 1,2,3= On, 2=+rescale gU,gV, 3=+update cg2d solv.
(PID.TID 0000.0001)     ;
(PID.TID 0000.0001) hFacInf =   /* lower threshold for hFac (nonlinFreeSurf only)*/
(PID.TID 0000.0001)                 2.000000000000000E-01
(PID.TID 0000.0001)     ;
(PID.TID 0000.0001) hFacSup =   /* upper threshold for hFac (nonlinFreeSurf only)*/
(PID.TID 0000.0001)                 2.000000000000000E+00
(PID.TID 0000.0001)     ;
(PID.TID 0000.0001) select_rStar = /* r* Vertical coord. options (=0 r coord.; >0 uses r*)*/
(PID.TID 0000.0001)                       0
(PID.TID 0000.0001)     ;
(PID.TID 0000.0001) useRealFreshWaterFlux = /* Real Fresh Water Flux on/off flag*/
(PID.TID 0000.0001)                   F
(PID.TID 0000.0001)     ;
(PID.TID 0000.0001) temp_EvPrRn = /* Temp. of Evap/Prec/R (UNSET=use local T)(oC)*/
(PID.TID 0000.0001)                 1.234567000000000E+05
(PID.TID 0000.0001)     ;
(PID.TID 0000.0001) salt_EvPrRn = /* Salin. of Evap/Prec/R (UNSET=use local S)(g/kg)*/
(PID.TID 0000.0001)                 0.000000000000000E+00
(PID.TID 0000.0001)     ;
(PID.TID 0000.0001) selectAddFluid = /* option for mass source/sink of fluid (=0: off) */
(PID.TID 0000.0001)                       0
(PID.TID 0000.0001)     ;
(PID.TID 0000.0001) temp_addMass = /* Temp. of addMass array (UNSET=use local T)(oC)*/
(PID.TID 0000.0001)                 1.234567000000000E+05
(PID.TID 0000.0001)     ;
(PID.TID 0000.0001) salt_addMass = /* Salin. of addMass array (UNSET=use local S)(g/kg)*/
(PID.TID 0000.0001)                 0.000000000000000E+00
(PID.TID 0000.0001)     ;
(PID.TID 0000.0001) convertFW2Salt = /* convert F.W. Flux to Salt Flux (-1=use local S)(g/kg)*/
(PID.TID 0000.0001)                -1.000000000000000E+00
(PID.TID 0000.0001)     ;
(PID.TID 0000.0001) use3Dsolver = /* use 3-D pressure solver on/off flag */
(PID.TID 0000.0001)                   F
(PID.TID 0000.0001)     ;
(PID.TID 0000.0001) nonHydrostatic =  /* Non-Hydrostatic on/off flag */
(PID.TID 0000.0001)                   F
(PID.TID 0000.0001)     ;
(PID.TID 0000.0001) nh_Am2 = /* Non-Hydrostatic terms scaling factor */
(PID.TID 0000.0001)                 1.000000000000000E+00
(PID.TID 0000.0001)     ;
(PID.TID 0000.0001) implicitNHPress = /* Non-Hyd Pressure implicit factor (0-1)*/
(PID.TID 0000.0001)                 1.000000000000000E+00
(PID.TID 0000.0001)     ;
(PID.TID 0000.0001) selectNHfreeSurf = /* Non-Hyd (free-)Surface option */
(PID.TID 0000.0001)                       0
(PID.TID 0000.0001)     ;
(PID.TID 0000.0001) quasiHydrostatic = /* Quasi-Hydrostatic on/off flag */
(PID.TID 0000.0001)                   F
(PID.TID 0000.0001)     ;
(PID.TID 0000.0001) calc_wVelocity = /* vertical velocity calculation on/off flag */
(PID.TID 0000.0001)                   T
(PID.TID 0000.0001)     ;
(PID.TID 0000.0001) momStepping =  /* Momentum equation on/off flag */
(PID.TID 0000.0001)                   T
(PID.TID 0000.0001)     ;
(PID.TID 0000.0001) vectorInvariantMomentum= /* Vector-Invariant Momentum on/off */
(PID.TID 0000.0001)                   F
(PID.TID 0000.0001)     ;
(PID.TID 0000.0001) momAdvection =  /* Momentum advection on/off flag */
(PID.TID 0000.0001)                   T
(PID.TID 0000.0001)     ;
(PID.TID 0000.0001) momViscosity =  /* Momentum viscosity on/off flag */
(PID.TID 0000.0001)                   T
(PID.TID 0000.0001)     ;
(PID.TID 0000.0001) momImplVertAdv= /* Momentum implicit vert. advection on/off*/
(PID.TID 0000.0001)                   F
(PID.TID 0000.0001)     ;
(PID.TID 0000.0001) implicitViscosity = /* Implicit viscosity on/off flag */
(PID.TID 0000.0001)                   T
(PID.TID 0000.0001)     ;
(PID.TID 0000.0001) selectImplicitDrag= /* Implicit bot Drag options (0,1,2)*/
(PID.TID 0000.0001)                       0
(PID.TID 0000.0001)     0= Expl. ; 1= Impl. on provis. Vel ; 2= Fully Impl (with surf.P)
(PID.TID 0000.0001)     ;
(PID.TID 0000.0001) selectMetricTerms= /* Metric-Terms on/off flag (=0/1) */
(PID.TID 0000.0001)                       1
(PID.TID 0000.0001)     ;
(PID.TID 0000.0001) useNHMTerms = /* Non-Hydrostatic Metric-Terms on/off */
(PID.TID 0000.0001)                   F
(PID.TID 0000.0001)     ;
(PID.TID 0000.0001) selectCoriMap = /* Coriolis Map options (0,1,2,3)*/
(PID.TID 0000.0001)                       2
(PID.TID 0000.0001)     0= f-Plane ; 1= Beta-Plane ; 2= Spherical ; 3= read from file
(PID.TID 0000.0001)     ;
(PID.TID 0000.0001) select3dCoriScheme= /* 3-D Coriolis on/off flag (=0/1) */
(PID.TID 0000.0001)                       0
(PID.TID 0000.0001)     ;
(PID.TID 0000.0001) useCoriolis =  /* Coriolis on/off flag */
(PID.TID 0000.0001)                   T
(PID.TID 0000.0001)     ;
(PID.TID 0000.0001) useCDscheme =  /* CD scheme on/off flag */
(PID.TID 0000.0001)                   F
(PID.TID 0000.0001)     ;
(PID.TID 0000.0001) selectCoriScheme= /* Scheme selector for Coriolis-Term */
(PID.TID 0000.0001)                       2
(PID.TID 0000.0001)    = 0 : original discretization (simple averaging, no hFac)
(PID.TID 0000.0001)    = 1 : Wet-point averaging (Jamar & Ozer 1986)
(PID.TID 0000.0001)    = 2 : energy conserving scheme (no hFac weight)
(PID.TID 0000.0001)    = 3 : energy conserving scheme using Wet-point averaging
(PID.TID 0000.0001)     ;
(PID.TID 0000.0001) momForcing =  /* Momentum forcing on/off flag */
(PID.TID 0000.0001)                   T
(PID.TID 0000.0001)     ;
(PID.TID 0000.0001) momTidalForcing = /* Momentum Tidal forcing on/off flag */
(PID.TID 0000.0001)                   T
(PID.TID 0000.0001)     ;
(PID.TID 0000.0001) momPressureForcing =  /* Momentum pressure term on/off flag */
(PID.TID 0000.0001)                   T
(PID.TID 0000.0001)     ;
(PID.TID 0000.0001) implicitIntGravWave= /* Implicit Internal Gravity Wave flag */
(PID.TID 0000.0001)                   F
(PID.TID 0000.0001)     ;
(PID.TID 0000.0001) staggerTimeStep =    /* Stagger time stepping on/off flag */
(PID.TID 0000.0001)                   T
(PID.TID 0000.0001)     ;
(PID.TID 0000.0001) doResetHFactors = /* reset thickness factors @ each time-step */
(PID.TID 0000.0001)                   F
(PID.TID 0000.0001)     ;
(PID.TID 0000.0001) multiDimAdvection =  /* enable/disable Multi-Dim Advection */
(PID.TID 0000.0001)                   T
(PID.TID 0000.0001)     ;
(PID.TID 0000.0001) useMultiDimAdvec =   /* Multi-Dim Advection is/is-not used */
(PID.TID 0000.0001)                   T
(PID.TID 0000.0001)     ;
(PID.TID 0000.0001) implicitDiffusion = /* Implicit Diffusion on/off flag */
(PID.TID 0000.0001)                   T
(PID.TID 0000.0001)     ;
(PID.TID 0000.0001) tempStepping =  /* Temperature equation on/off flag */
(PID.TID 0000.0001)                   T
(PID.TID 0000.0001)     ;
(PID.TID 0000.0001) tempAdvection = /* Temperature advection on/off flag */
(PID.TID 0000.0001)                   T
(PID.TID 0000.0001)     ;
(PID.TID 0000.0001) tempImplVertAdv = /* Temp. implicit vert. advection on/off */
(PID.TID 0000.0001)                   F
(PID.TID 0000.0001)     ;
(PID.TID 0000.0001) tempForcing  =  /* Temperature forcing on/off flag */
(PID.TID 0000.0001)                   T
(PID.TID 0000.0001)     ;
(PID.TID 0000.0001) doThetaClimRelax = /* apply SST relaxation on/off flag */
(PID.TID 0000.0001)                   F
(PID.TID 0000.0001)     ;
(PID.TID 0000.0001) tempIsActiveTr = /* Temp. is a dynamically Active Tracer */
(PID.TID 0000.0001)                   T
(PID.TID 0000.0001)     ;
(PID.TID 0000.0001) saltStepping =  /* Salinity equation on/off flag */
(PID.TID 0000.0001)                   T
(PID.TID 0000.0001)     ;
(PID.TID 0000.0001) saltAdvection = /* Salinity advection on/off flag */
(PID.TID 0000.0001)                   T
(PID.TID 0000.0001)     ;
(PID.TID 0000.0001) saltImplVertAdv = /* Sali. implicit vert. advection on/off */
(PID.TID 0000.0001)                   F
(PID.TID 0000.0001)     ;
(PID.TID 0000.0001) saltForcing  =  /* Salinity forcing on/off flag */
(PID.TID 0000.0001)                   T
(PID.TID 0000.0001)     ;
(PID.TID 0000.0001) doSaltClimRelax = /* apply SSS relaxation on/off flag */
(PID.TID 0000.0001)                   T
(PID.TID 0000.0001)     ;
(PID.TID 0000.0001) saltIsActiveTr = /* Salt  is a dynamically Active Tracer */
(PID.TID 0000.0001)                   T
(PID.TID 0000.0001)     ;
(PID.TID 0000.0001)  readBinaryPrec = /* Precision used for reading binary files */
(PID.TID 0000.0001)                      32
(PID.TID 0000.0001)     ;
(PID.TID 0000.0001) writeBinaryPrec = /* Precision used for writing binary files */
(PID.TID 0000.0001)                      32
(PID.TID 0000.0001)     ;
(PID.TID 0000.0001)  rwSuffixType =   /* select format of mds file suffix */
(PID.TID 0000.0001)                       0
(PID.TID 0000.0001)    = 0 : myIter (I10.10) ;   = 1 : 100*myTime (100th sec) ;
(PID.TID 0000.0001)    = 2 : myTime (seconds);   = 3 : myTime/360 (10th of hr);
(PID.TID 0000.0001)    = 4 : myTime/3600 (hours)
(PID.TID 0000.0001)     ;
(PID.TID 0000.0001)  globalFiles = /* write "global" (=not per tile) files */
(PID.TID 0000.0001)                   F
(PID.TID 0000.0001)     ;
(PID.TID 0000.0001)  useSingleCpuIO = /* only master MPI process does I/O */
(PID.TID 0000.0001)                   T
(PID.TID 0000.0001)     ;
(PID.TID 0000.0001)  useSingleCpuInput = /* only master process reads input */
(PID.TID 0000.0001)                   T
(PID.TID 0000.0001)     ;
(PID.TID 0000.0001) /* debLev[*]  : level of debug & auxiliary message printing */
(PID.TID 0000.0001) debLevZero =  0 ; /* level of disabled aux. msg printing */
(PID.TID 0000.0001)    debLevA =  1 ; /* level of minimum  aux. msg printing */
(PID.TID 0000.0001)    debLevB =  2 ; /* level of low aux. print (report read-file opening)*/
(PID.TID 0000.0001)    debLevC =  3 ; /* level of moderate debug prt (most pkgs debug msg) */
(PID.TID 0000.0001)    debLevD =  4 ; /* level of enhanced debug prt (add DEBUG_STATS prt) */
(PID.TID 0000.0001)    debLevE =  5 ; /* level of extensive debug printing */
(PID.TID 0000.0001) debugLevel =  /* select debug printing level */
(PID.TID 0000.0001)                       2
(PID.TID 0000.0001)     ;
(PID.TID 0000.0001)  plotLevel =  /* select PLOT_FIELD printing level */
(PID.TID 0000.0001)                       2
(PID.TID 0000.0001)     ;
(PID.TID 0000.0001) //
(PID.TID 0000.0001) // Elliptic solver(s) paramters ( PARM02 in namelist )
(PID.TID 0000.0001) //
(PID.TID 0000.0001) cg2dMaxIters =   /* Upper limit on 2d con. grad iterations  */
(PID.TID 0000.0001)                     500
(PID.TID 0000.0001)     ;
(PID.TID 0000.0001) cg2dMinItersNSA =   /* Minimum number of iterations of 2d con. grad solver  */
(PID.TID 0000.0001)                       0
(PID.TID 0000.0001)     ;
(PID.TID 0000.0001) cg2dUseMinResSol= /* use cg2d last-iter(=0) / min-resid.(=1) solution */
(PID.TID 0000.0001)                       0
(PID.TID 0000.0001)     ;
(PID.TID 0000.0001) cg2dTargetResidual =   /* 2d con. grad target residual  */
(PID.TID 0000.0001)                 1.000000000000000E-12
(PID.TID 0000.0001)     ;
(PID.TID 0000.0001) cg2dTargetResWunit =   /* CG2d target residual [W units] */
(PID.TID 0000.0001)                -1.000000000000000E+00
(PID.TID 0000.0001)     ;
(PID.TID 0000.0001) cg2dPreCondFreq =   /* Freq. for updating cg2d preconditioner */
(PID.TID 0000.0001)                       1
(PID.TID 0000.0001)     ;
(PID.TID 0000.0001) useSRCGSolver =  /* use single reduction CG solver(s) */
(PID.TID 0000.0001)                   F
(PID.TID 0000.0001)     ;
(PID.TID 0000.0001) useNSACGSolver =  /* use not-self-adjoint CG solver */
(PID.TID 0000.0001)                   F
(PID.TID 0000.0001)     ;
(PID.TID 0000.0001) printResidualFreq = /* Freq. for printing CG residual */
(PID.TID 0000.0001)                       0
(PID.TID 0000.0001)     ;
(PID.TID 0000.0001) //
(PID.TID 0000.0001) // Time stepping paramters ( PARM03 in namelist )
(PID.TID 0000.0001) //
(PID.TID 0000.0001) deltaTMom =   /* Momentum equation timestep ( s ) */
(PID.TID 0000.0001)                 3.600000000000000E+03
(PID.TID 0000.0001)     ;
(PID.TID 0000.0001) deltaTFreeSurf = /* FreeSurface equation timestep ( s ) */
(PID.TID 0000.0001)                 3.600000000000000E+03
(PID.TID 0000.0001)     ;
(PID.TID 0000.0001) dTtracerLev =  /* Tracer equation timestep ( s ) */
(PID.TID 0000.0001)    23 @  3.600000000000000E+03              /* K =  1: 23 */
(PID.TID 0000.0001)     ;
(PID.TID 0000.0001) deltaTClock  =   /* Model clock timestep ( s ) */
(PID.TID 0000.0001)                 3.600000000000000E+03
(PID.TID 0000.0001)     ;
(PID.TID 0000.0001) cAdjFreq =   /* Convective adjustment interval ( s ) */
(PID.TID 0000.0001)                 0.000000000000000E+00
(PID.TID 0000.0001)     ;
(PID.TID 0000.0001) momForcingOutAB = /* =1: take Momentum Forcing out of Adams-Bash. stepping */
(PID.TID 0000.0001)                       1
(PID.TID 0000.0001)     ;
(PID.TID 0000.0001) tracForcingOutAB = /* =1: take T,S,pTr Forcing out of Adams-Bash. stepping */
(PID.TID 0000.0001)                       1
(PID.TID 0000.0001)     ;
(PID.TID 0000.0001) momDissip_In_AB = /* put Dissipation Tendency in Adams-Bash. stepping */
(PID.TID 0000.0001)                   T
(PID.TID 0000.0001)     ;
(PID.TID 0000.0001) doAB_onGtGs = /* apply AB on Tendencies (rather than on T,S)*/
(PID.TID 0000.0001)                   T
(PID.TID 0000.0001)     ;
(PID.TID 0000.0001) abEps =   /* Adams-Bashforth-2 stabilizing weight */
(PID.TID 0000.0001)                 1.000000000000000E-01
(PID.TID 0000.0001)     ;
(PID.TID 0000.0001) applyExchUV_early = /* Apply EXCH to U,V earlier in time-step */
(PID.TID 0000.0001)                   F
(PID.TID 0000.0001)     ;
(PID.TID 0000.0001) pickupStrictlyMatch= /* stop if pickup do not strictly match */
(PID.TID 0000.0001)                   F
(PID.TID 0000.0001)     ;
(PID.TID 0000.0001) nIter0   =   /* Run starting timestep number */
(PID.TID 0000.0001)                       1
(PID.TID 0000.0001)     ;
(PID.TID 0000.0001) nTimeSteps = /* Number of timesteps */
(PID.TID 0000.0001)                       5
(PID.TID 0000.0001)     ;
(PID.TID 0000.0001) nEndIter =   /* Run ending timestep number */
(PID.TID 0000.0001)                       6
(PID.TID 0000.0001)     ;
(PID.TID 0000.0001) baseTime =   /* Model base time ( s ) */
(PID.TID 0000.0001)                 0.000000000000000E+00
(PID.TID 0000.0001)     ;
(PID.TID 0000.0001) startTime =  /* Run start time ( s ) */
(PID.TID 0000.0001)                 3.600000000000000E+03
(PID.TID 0000.0001)     ;
(PID.TID 0000.0001) endTime  =   /* Integration ending time ( s ) */
(PID.TID 0000.0001)                 2.160000000000000E+04
(PID.TID 0000.0001)     ;
(PID.TID 0000.0001) pChkPtFreq = /* Permanent restart/pickup file interval ( s ) */
(PID.TID 0000.0001)                 3.600000000000000E+04
(PID.TID 0000.0001)     ;
(PID.TID 0000.0001) chkPtFreq  = /* Rolling restart/pickup file interval ( s ) */
(PID.TID 0000.0001)                 0.000000000000000E+00
(PID.TID 0000.0001)     ;
(PID.TID 0000.0001) pickup_write_mdsio =   /* Model IO flag. */
(PID.TID 0000.0001)                   T
(PID.TID 0000.0001)     ;
(PID.TID 0000.0001) pickup_read_mdsio =   /* Model IO flag. */
(PID.TID 0000.0001)                   T
(PID.TID 0000.0001)     ;
(PID.TID 0000.0001) writePickupAtEnd =   /* Model IO flag. */
(PID.TID 0000.0001)                   T
(PID.TID 0000.0001)     ;
(PID.TID 0000.0001) dumpFreq =   /* Model state write out interval ( s ). */
(PID.TID 0000.0001)                 0.000000000000000E+00
(PID.TID 0000.0001)     ;
(PID.TID 0000.0001) dumpInitAndLast= /* write out Initial & Last iter. model state */
(PID.TID 0000.0001)                   T
(PID.TID 0000.0001)     ;
(PID.TID 0000.0001) snapshot_mdsio =   /* Model IO flag. */
(PID.TID 0000.0001)                   T
(PID.TID 0000.0001)     ;
(PID.TID 0000.0001) monitorFreq =   /* Monitor output interval ( s ). */
(PID.TID 0000.0001)                 1.000000000000000E+00
(PID.TID 0000.0001)     ;
(PID.TID 0000.0001) monitorSelect = /* select group of variables to monitor */
(PID.TID 0000.0001)                       3
(PID.TID 0000.0001)     ;
(PID.TID 0000.0001) monitor_stdio =   /* Model IO flag. */
(PID.TID 0000.0001)                   T
(PID.TID 0000.0001)     ;
(PID.TID 0000.0001) externForcingPeriod =   /* forcing period (s) */
(PID.TID 0000.0001)                 0.000000000000000E+00
(PID.TID 0000.0001)     ;
(PID.TID 0000.0001) externForcingCycle =   /* period of the cyle (s). */
(PID.TID 0000.0001)                 0.000000000000000E+00
(PID.TID 0000.0001)     ;
(PID.TID 0000.0001) tauThetaClimRelax =   /* relaxation time scale (s) */
(PID.TID 0000.0001)                 0.000000000000000E+00
(PID.TID 0000.0001)     ;
(PID.TID 0000.0001) tauSaltClimRelax =   /* relaxation time scale (s) */
(PID.TID 0000.0001)                 4.142330000000000E+06
(PID.TID 0000.0001)     ;
(PID.TID 0000.0001) latBandClimRelax =   /* max. Lat. where relaxation */
(PID.TID 0000.0001)                 1.800000000000000E+02
(PID.TID 0000.0001)     ;
(PID.TID 0000.0001) //
(PID.TID 0000.0001) // Gridding paramters ( PARM04 in namelist )
(PID.TID 0000.0001) //
(PID.TID 0000.0001) usingCartesianGrid = /* Cartesian coordinates flag ( True/False ) */
(PID.TID 0000.0001)                   F
(PID.TID 0000.0001)     ;
(PID.TID 0000.0001) usingCylindricalGrid = /* Cylindrical coordinates flag ( True/False ) */
(PID.TID 0000.0001)                   F
(PID.TID 0000.0001)     ;
(PID.TID 0000.0001) usingSphericalPolarGrid = /* Spherical coordinates flag ( True/False ) */
(PID.TID 0000.0001)                   T
(PID.TID 0000.0001)     ;
(PID.TID 0000.0001) usingCurvilinearGrid = /* Curvilinear coordinates flag ( True/False ) */
(PID.TID 0000.0001)                   F
(PID.TID 0000.0001)     ;
(PID.TID 0000.0001) useMin4hFacEdges = /* set hFacW,S as minimum of adjacent hFacC factor */
(PID.TID 0000.0001)                   F
(PID.TID 0000.0001)     ;
(PID.TID 0000.0001) interViscAr_pCell = /* account for partial-cell in interior vert. viscosity */
(PID.TID 0000.0001)                   F
(PID.TID 0000.0001)     ;
(PID.TID 0000.0001) interDiffKr_pCell = /* account for partial-cell in interior vert. diffusion */
(PID.TID 0000.0001)                   F
(PID.TID 0000.0001)     ;
(PID.TID 0000.0001) pCellMix_select = /* option to enhance mixing near surface & bottom */
(PID.TID 0000.0001)                       0
(PID.TID 0000.0001)     ;
(PID.TID 0000.0001) selectSigmaCoord = /* Hybrid-Sigma Vert. Coordinate option */
(PID.TID 0000.0001)                       0
(PID.TID 0000.0001)     ;
(PID.TID 0000.0001) rSigmaBnd = /* r/sigma transition ( units of r ==  m ) */
(PID.TID 0000.0001)                 1.234567000000000E+05
(PID.TID 0000.0001)     ;
(PID.TID 0000.0001) rkSign =   /* index orientation relative to vertical coordinate */
(PID.TID 0000.0001)                -1.000000000000000E+00
(PID.TID 0000.0001)     ;
(PID.TID 0000.0001) gravitySign = /* gravity orientation relative to vertical coordinate */
(PID.TID 0000.0001)                -1.000000000000000E+00
(PID.TID 0000.0001)     ;
(PID.TID 0000.0001) seaLev_Z =  /* reference height of sea-level [m] */
(PID.TID 0000.0001)                 0.000000000000000E+00
(PID.TID 0000.0001)     ;
(PID.TID 0000.0001) top_Pres =  /* reference pressure at the top [Pa] */
(PID.TID 0000.0001)                 0.000000000000000E+00
(PID.TID 0000.0001)     ;
(PID.TID 0000.0001) mass2rUnit = /* convert mass per unit area [kg/m2] to r-units [m] */
(PID.TID 0000.0001)                 9.737098344693282E-04
(PID.TID 0000.0001)     ;
(PID.TID 0000.0001) rUnit2mass = /* convert r-units [m] to mass per unit area [kg/m2] */
(PID.TID 0000.0001)                 1.027000000000000E+03
(PID.TID 0000.0001)     ;
(PID.TID 0000.0001) drC =   /* C spacing ( units of r ) */
(PID.TID 0000.0001)                 5.000000000000000E+00,      /* K =  1 */
(PID.TID 0000.0001)                 1.000000000000000E+01,      /* K =  2 */
(PID.TID 0000.0001)                 1.250000000000000E+01,      /* K =  3 */
(PID.TID 0000.0001)                 1.750000000000000E+01,      /* K =  4 */
(PID.TID 0000.0001)                 2.000000000000000E+01,      /* K =  5 */
(PID.TID 0000.0001)                 2.250000000000000E+01,      /* K =  6 */
(PID.TID 0000.0001)                 3.000000000000000E+01,      /* K =  7 */
(PID.TID 0000.0001)                 4.250000000000000E+01,      /* K =  8 */
(PID.TID 0000.0001)                 6.250000000000000E+01,      /* K =  9 */
(PID.TID 0000.0001)                 8.750000000000000E+01,      /* K = 10 */
(PID.TID 0000.0001)                 1.250000000000000E+02,      /* K = 11 */
(PID.TID 0000.0001)                 1.750000000000000E+02,      /* K = 12 */
(PID.TID 0000.0001)                 2.375000000000000E+02,      /* K = 13 */
(PID.TID 0000.0001)                 3.125000000000000E+02,      /* K = 14 */
(PID.TID 0000.0001)                 3.825000000000000E+02,      /* K = 15 */
(PID.TID 0000.0001)                 4.325000000000000E+02,      /* K = 16 */
(PID.TID 0000.0001)                 4.750000000000000E+02,      /* K = 17 */
(PID.TID 0000.0001)     6 @  5.000000000000000E+02,             /* K = 18: 23 */
(PID.TID 0000.0001)                 2.500000000000000E+02       /* K = 24 */
(PID.TID 0000.0001)     ;
(PID.TID 0000.0001) drF =   /* W spacing ( units of r ) */
(PID.TID 0000.0001)     2 @  1.000000000000000E+01,             /* K =  1:  2 */
(PID.TID 0000.0001)                 1.500000000000000E+01,      /* K =  3 */
(PID.TID 0000.0001)     2 @  2.000000000000000E+01,             /* K =  4:  5 */
(PID.TID 0000.0001)                 2.500000000000000E+01,      /* K =  6 */
(PID.TID 0000.0001)                 3.500000000000000E+01,      /* K =  7 */
(PID.TID 0000.0001)                 5.000000000000000E+01,      /* K =  8 */
(PID.TID 0000.0001)                 7.500000000000000E+01,      /* K =  9 */
(PID.TID 0000.0001)                 1.000000000000000E+02,      /* K = 10 */
(PID.TID 0000.0001)                 1.500000000000000E+02,      /* K = 11 */
(PID.TID 0000.0001)                 2.000000000000000E+02,      /* K = 12 */
(PID.TID 0000.0001)                 2.750000000000000E+02,      /* K = 13 */
(PID.TID 0000.0001)                 3.500000000000000E+02,      /* K = 14 */
(PID.TID 0000.0001)                 4.150000000000000E+02,      /* K = 15 */
(PID.TID 0000.0001)                 4.500000000000000E+02,      /* K = 16 */
(PID.TID 0000.0001)     7 @  5.000000000000000E+02              /* K = 17: 23 */
(PID.TID 0000.0001)     ;
(PID.TID 0000.0001) delX = /* U spacing ( m - cartesian, degrees - spherical ) */
(PID.TID 0000.0001)    10 @  2.000000000000000E+00              /* I =  1: 10 */
(PID.TID 0000.0001)     ;
(PID.TID 0000.0001) delY = /* V spacing ( m - cartesian, degrees - spherical ) */
(PID.TID 0000.0001)     8 @  2.000000000000000E+00              /* J =  1:  8 */
(PID.TID 0000.0001)     ;
(PID.TID 0000.0001) xgOrigin = /* X-axis origin of West  edge (cartesian: m, lat-lon: deg) */
(PID.TID 0000.0001)                 2.800000000000000E+02
(PID.TID 0000.0001)     ;
(PID.TID 0000.0001) ygOrigin = /* Y-axis origin of South edge (cartesian: m, lat-lon: deg) */
(PID.TID 0000.0001)                 4.600000000000000E+01
(PID.TID 0000.0001)     ;
(PID.TID 0000.0001) rSphere =  /* Radius ( ignored - cartesian, m - spherical ) */
(PID.TID 0000.0001)                 6.371000000000000E+06
(PID.TID 0000.0001)     ;
(PID.TID 0000.0001) deepAtmosphere = /* Deep/Shallow Atmosphere flag (True/False) */
(PID.TID 0000.0001)                   F
(PID.TID 0000.0001)     ;
(PID.TID 0000.0001) xC =  /* xC(:,1,:,1) : P-point X coord ( deg. or m if cartesian) */
(PID.TID 0000.0001)                 2.810000000000000E+02,      /* I =  1 */
(PID.TID 0000.0001)                 2.830000000000000E+02,      /* I =  2 */
(PID.TID 0000.0001)                 2.850000000000000E+02,      /* I =  3 */
(PID.TID 0000.0001)                 2.870000000000000E+02,      /* I =  4 */
(PID.TID 0000.0001)                 2.890000000000000E+02,      /* I =  5 */
(PID.TID 0000.0001)                 2.910000000000000E+02,      /* I =  6 */
(PID.TID 0000.0001)                 2.930000000000000E+02,      /* I =  7 */
(PID.TID 0000.0001)                 2.950000000000000E+02,      /* I =  8 */
(PID.TID 0000.0001)                 2.970000000000000E+02,      /* I =  9 */
(PID.TID 0000.0001)                 2.990000000000000E+02       /* I = 10 */
(PID.TID 0000.0001)     ;
(PID.TID 0000.0001) yC =  /* yC(1,:,1,:) : P-point Y coord ( deg. or m if cartesian) */
(PID.TID 0000.0001)                 4.700000000000000E+01,      /* J =  1 */
(PID.TID 0000.0001)                 4.900000000000000E+01,      /* J =  2 */
(PID.TID 0000.0001)                 5.100000000000000E+01,      /* J =  3 */
(PID.TID 0000.0001)                 5.300000000000000E+01,      /* J =  4 */
(PID.TID 0000.0001)                 5.500000000000000E+01,      /* J =  5 */
(PID.TID 0000.0001)                 5.700000000000000E+01,      /* J =  6 */
(PID.TID 0000.0001)                 5.900000000000000E+01,      /* J =  7 */
(PID.TID 0000.0001)                 6.100000000000000E+01       /* J =  8 */
(PID.TID 0000.0001)     ;
(PID.TID 0000.0001) rcoord = /* P-point R coordinate (  units of r ) */
(PID.TID 0000.0001)                -5.000000000000000E+00,      /* K =  1 */
(PID.TID 0000.0001)                -1.500000000000000E+01,      /* K =  2 */
(PID.TID 0000.0001)                -2.750000000000000E+01,      /* K =  3 */
(PID.TID 0000.0001)                -4.500000000000000E+01,      /* K =  4 */
(PID.TID 0000.0001)                -6.500000000000000E+01,      /* K =  5 */
(PID.TID 0000.0001)                -8.750000000000000E+01,      /* K =  6 */
(PID.TID 0000.0001)                -1.175000000000000E+02,      /* K =  7 */
(PID.TID 0000.0001)                -1.600000000000000E+02,      /* K =  8 */
(PID.TID 0000.0001)                -2.225000000000000E+02,      /* K =  9 */
(PID.TID 0000.0001)                -3.100000000000000E+02,      /* K = 10 */
(PID.TID 0000.0001)                -4.350000000000000E+02,      /* K = 11 */
(PID.TID 0000.0001)                -6.100000000000000E+02,      /* K = 12 */
(PID.TID 0000.0001)                -8.475000000000000E+02,      /* K = 13 */
(PID.TID 0000.0001)                -1.160000000000000E+03,      /* K = 14 */
(PID.TID 0000.0001)                -1.542500000000000E+03,      /* K = 15 */
(PID.TID 0000.0001)                -1.975000000000000E+03,      /* K = 16 */
(PID.TID 0000.0001)                -2.450000000000000E+03,      /* K = 17 */
(PID.TID 0000.0001)                -2.950000000000000E+03,      /* K = 18 */
(PID.TID 0000.0001)                -3.450000000000000E+03,      /* K = 19 */
(PID.TID 0000.0001)                -3.950000000000000E+03,      /* K = 20 */
(PID.TID 0000.0001)                -4.450000000000000E+03,      /* K = 21 */
(PID.TID 0000.0001)                -4.950000000000000E+03,      /* K = 22 */
(PID.TID 0000.0001)                -5.450000000000000E+03       /* K = 23 */
(PID.TID 0000.0001)     ;
(PID.TID 0000.0001) rF =   /* W-Interf. R coordinate (  units of r ) */
(PID.TID 0000.0001)                 0.000000000000000E+00,      /* K =  1 */
(PID.TID 0000.0001)                -1.000000000000000E+01,      /* K =  2 */
(PID.TID 0000.0001)                -2.000000000000000E+01,      /* K =  3 */
(PID.TID 0000.0001)                -3.500000000000000E+01,      /* K =  4 */
(PID.TID 0000.0001)                -5.500000000000000E+01,      /* K =  5 */
(PID.TID 0000.0001)                -7.500000000000000E+01,      /* K =  6 */
(PID.TID 0000.0001)                -1.000000000000000E+02,      /* K =  7 */
(PID.TID 0000.0001)                -1.350000000000000E+02,      /* K =  8 */
(PID.TID 0000.0001)                -1.850000000000000E+02,      /* K =  9 */
(PID.TID 0000.0001)                -2.600000000000000E+02,      /* K = 10 */
(PID.TID 0000.0001)                -3.600000000000000E+02,      /* K = 11 */
(PID.TID 0000.0001)                -5.100000000000000E+02,      /* K = 12 */
(PID.TID 0000.0001)                -7.100000000000000E+02,      /* K = 13 */
(PID.TID 0000.0001)                -9.850000000000000E+02,      /* K = 14 */
(PID.TID 0000.0001)                -1.335000000000000E+03,      /* K = 15 */
(PID.TID 0000.0001)                -1.750000000000000E+03,      /* K = 16 */
(PID.TID 0000.0001)                -2.200000000000000E+03,      /* K = 17 */
(PID.TID 0000.0001)                -2.700000000000000E+03,      /* K = 18 */
(PID.TID 0000.0001)                -3.200000000000000E+03,      /* K = 19 */
(PID.TID 0000.0001)                -3.700000000000000E+03,      /* K = 20 */
(PID.TID 0000.0001)                -4.200000000000000E+03,      /* K = 21 */
(PID.TID 0000.0001)                -4.700000000000000E+03,      /* K = 22 */
(PID.TID 0000.0001)                -5.200000000000000E+03,      /* K = 23 */
(PID.TID 0000.0001)                -5.700000000000000E+03       /* K = 24 */
(PID.TID 0000.0001)     ;
(PID.TID 0000.0001) deepFacC = /* deep-model grid factor @ cell-Center (-) */
(PID.TID 0000.0001)    23 @  1.000000000000000E+00              /* K =  1: 23 */
(PID.TID 0000.0001)     ;
(PID.TID 0000.0001) deepFacF = /* deep-model grid factor @ W-Interface (-) */
(PID.TID 0000.0001)    24 @  1.000000000000000E+00              /* K =  1: 24 */
(PID.TID 0000.0001)     ;
(PID.TID 0000.0001) rotateGrid = /* use rotated grid ( True/False ) */
(PID.TID 0000.0001)                   F
(PID.TID 0000.0001)     ;
(PID.TID 0000.0001) phiEuler = /* Euler angle, rotation about original z-coordinate [rad] */
(PID.TID 0000.0001)                 0.000000000000000E+00
(PID.TID 0000.0001)     ;
(PID.TID 0000.0001) thetaEuler = /* Euler angle, rotation about new x-coordinate [rad] */
(PID.TID 0000.0001)                 0.000000000000000E+00
(PID.TID 0000.0001)     ;
(PID.TID 0000.0001) psiEuler = /* Euler angle, rotation about new z-coordinate [rad] */
(PID.TID 0000.0001)                 0.000000000000000E+00
(PID.TID 0000.0001)     ;
(PID.TID 0000.0001) dxF =  /* dxF(:,1,:,1) ( units: m ) */
(PID.TID 0000.0001)    10 @  1.516695152377178E+05              /* I =  1: 10 */
(PID.TID 0000.0001)     ;
(PID.TID 0000.0001) dxF =  /* dxF(1,:,1,:) ( units: m ) */
(PID.TID 0000.0001)                 1.516695152377178E+05,      /* J =  1 */
(PID.TID 0000.0001)                 1.459008712061998E+05,      /* J =  2 */
(PID.TID 0000.0001)                 1.399544694374234E+05,      /* J =  3 */
(PID.TID 0000.0001)                 1.338375547059708E+05,      /* J =  4 */
(PID.TID 0000.0001)                 1.275575795302039E+05,      /* J =  5 */
(PID.TID 0000.0001)                 1.211221950925184E+05,      /* J =  6 */
(PID.TID 0000.0001)                 1.145392419175564E+05,      /* J =  7 */
(PID.TID 0000.0001)                 1.078167403197357E+05       /* J =  8 */
(PID.TID 0000.0001)     ;
(PID.TID 0000.0001) dyF =  /* dyF(:,1,:,1) ( units: m ) */
(PID.TID 0000.0001)    10 @  2.223898532891175E+05              /* I =  1: 10 */
(PID.TID 0000.0001)     ;
(PID.TID 0000.0001) dyF =  /* dyF(1,:,1,:) ( units: m ) */
(PID.TID 0000.0001)     8 @  2.223898532891175E+05              /* J =  1:  8 */
(PID.TID 0000.0001)     ;
(PID.TID 0000.0001) dxG =  /* dxG(:,1,:,1) ( units: m ) */
(PID.TID 0000.0001)    10 @  1.544849730924338E+05              /* I =  1: 10 */
(PID.TID 0000.0001)     ;
(PID.TID 0000.0001) dxG =  /* dxG(1,:,1,:) ( units: m ) */
(PID.TID 0000.0001)                 1.544849730924338E+05,      /* J =  1 */
(PID.TID 0000.0001)                 1.488078573794047E+05,      /* J =  2 */
(PID.TID 0000.0001)                 1.429494422142520E+05,      /* J =  3 */
(PID.TID 0000.0001)                 1.369168651734348E+05,      /* J =  4 */
(PID.TID 0000.0001)                 1.307174760228300E+05,      /* J =  5 */
(PID.TID 0000.0001)                 1.243588277631750E+05,      /* J =  6 */
(PID.TID 0000.0001)                 1.178486674278995E+05,      /* J =  7 */
(PID.TID 0000.0001)                 1.111949266445588E+05       /* J =  8 */
(PID.TID 0000.0001)     ;
(PID.TID 0000.0001) dyG =  /* dyG(:,1,:,1) ( units: m ) */
(PID.TID 0000.0001)    10 @  2.223898532891175E+05              /* I =  1: 10 */
(PID.TID 0000.0001)     ;
(PID.TID 0000.0001) dyG =  /* dyG(1,:,1,:) ( units: m ) */
(PID.TID 0000.0001)     8 @  2.223898532891175E+05              /* J =  1:  8 */
(PID.TID 0000.0001)     ;
(PID.TID 0000.0001) dxC =  /* dxC(:,1,:,1) ( units: m ) */
(PID.TID 0000.0001)    10 @  1.516695152377178E+05              /* I =  1: 10 */
(PID.TID 0000.0001)     ;
(PID.TID 0000.0001) dxC =  /* dxC(1,:,1,:) ( units: m ) */
(PID.TID 0000.0001)                 1.516695152377178E+05,      /* J =  1 */
(PID.TID 0000.0001)                 1.459008712061998E+05,      /* J =  2 */
(PID.TID 0000.0001)                 1.399544694374234E+05,      /* J =  3 */
(PID.TID 0000.0001)                 1.338375547059708E+05,      /* J =  4 */
(PID.TID 0000.0001)                 1.275575795302039E+05,      /* J =  5 */
(PID.TID 0000.0001)                 1.211221950925184E+05,      /* J =  6 */
(PID.TID 0000.0001)                 1.145392419175564E+05,      /* J =  7 */
(PID.TID 0000.0001)                 1.078167403197357E+05       /* J =  8 */
(PID.TID 0000.0001)     ;
(PID.TID 0000.0001) dyC =  /* dyC(:,1,:,1) ( units: m ) */
(PID.TID 0000.0001)    10 @  2.223898532891175E+05              /* I =  1: 10 */
(PID.TID 0000.0001)     ;
(PID.TID 0000.0001) dyC =  /* dyC(1,:,1,:) ( units: m ) */
(PID.TID 0000.0001)     8 @  2.223898532891175E+05              /* J =  1:  8 */
(PID.TID 0000.0001)     ;
(PID.TID 0000.0001) dxV =  /* dxV(:,1,:,1) ( units: m ) */
(PID.TID 0000.0001)    10 @  1.544849730924338E+05              /* I =  1: 10 */
(PID.TID 0000.0001)     ;
(PID.TID 0000.0001) dxV =  /* dxV(1,:,1,:) ( units: m ) */
(PID.TID 0000.0001)                 1.544849730924338E+05,      /* J =  1 */
(PID.TID 0000.0001)                 1.488078573794047E+05,      /* J =  2 */
(PID.TID 0000.0001)                 1.429494422142520E+05,      /* J =  3 */
(PID.TID 0000.0001)                 1.369168651734348E+05,      /* J =  4 */
(PID.TID 0000.0001)                 1.307174760228300E+05,      /* J =  5 */
(PID.TID 0000.0001)                 1.243588277631750E+05,      /* J =  6 */
(PID.TID 0000.0001)                 1.178486674278995E+05,      /* J =  7 */
(PID.TID 0000.0001)                 1.111949266445588E+05       /* J =  8 */
(PID.TID 0000.0001)     ;
(PID.TID 0000.0001) dyU =  /* dyU(:,1,:,1) ( units: m ) */
(PID.TID 0000.0001)    10 @  2.223898532891175E+05              /* I =  1: 10 */
(PID.TID 0000.0001)     ;
(PID.TID 0000.0001) dyU =  /* dyU(1,:,1,:) ( units: m ) */
(PID.TID 0000.0001)     8 @  2.223898532891175E+05              /* J =  1:  8 */
(PID.TID 0000.0001)     ;
(PID.TID 0000.0001) rA  =  /* rA (:,1,:,1) ( units: m^2 ) */
(PID.TID 0000.0001)    10 @  3.372804882275630E+10              /* I =  1: 10 */
(PID.TID 0000.0001)     ;
(PID.TID 0000.0001) rA  =  /* rA (1,:,1,:) ( units: m^2 ) */
(PID.TID 0000.0001)                 3.372804882275630E+10,      /* J =  1 */
(PID.TID 0000.0001)                 3.244522605358471E+10,      /* J =  2 */
(PID.TID 0000.0001)                 3.112287377427108E+10,      /* J =  3 */
(PID.TID 0000.0001)                 2.976260306737437E+10,      /* J =  4 */
(PID.TID 0000.0001)                 2.836607121321784E+10,      /* J =  5 */
(PID.TID 0000.0001)                 2.693497967074614E+10,      /* J =  6 */
(PID.TID 0000.0001)                 2.547107200456132E+10,      /* J =  7 */
(PID.TID 0000.0001)                 2.397613176065682E+10       /* J =  8 */
(PID.TID 0000.0001)     ;
(PID.TID 0000.0001) rAw =  /* rAw(:,1,:,1) ( units: m^2 ) */
(PID.TID 0000.0001)    10 @  3.372804882275630E+10              /* I =  1: 10 */
(PID.TID 0000.0001)     ;
(PID.TID 0000.0001) rAw =  /* rAw(1,:,1,:) ( units: m^2 ) */
(PID.TID 0000.0001)                 3.372804882275630E+10,      /* J =  1 */
(PID.TID 0000.0001)                 3.244522605358471E+10,      /* J =  2 */
(PID.TID 0000.0001)                 3.112287377427108E+10,      /* J =  3 */
(PID.TID 0000.0001)                 2.976260306737437E+10,      /* J =  4 */
(PID.TID 0000.0001)                 2.836607121321784E+10,      /* J =  5 */
(PID.TID 0000.0001)                 2.693497967074614E+10,      /* J =  6 */
(PID.TID 0000.0001)                 2.547107200456132E+10,      /* J =  7 */
(PID.TID 0000.0001)                 2.397613176065682E+10       /* J =  8 */
(PID.TID 0000.0001)     ;
(PID.TID 0000.0001) rAs =  /* rAs(:,1,:,1) ( units: m^2 ) */
(PID.TID 0000.0001)    10 @  3.435414629417918E+10              /* I =  1: 10 */
(PID.TID 0000.0001)     ;
(PID.TID 0000.0001) rAs =  /* rAs(1,:,1,:) ( units: m^2 ) */
(PID.TID 0000.0001)                 3.435414629417918E+10,      /* J =  1 */
(PID.TID 0000.0001)                 3.309167746093097E+10,      /* J =  2 */
(PID.TID 0000.0001)                 3.178889151607872E+10,      /* J =  3 */
(PID.TID 0000.0001)                 3.044737570361747E+10,      /* J =  4 */
(PID.TID 0000.0001)                 2.906876445392020E+10,      /* J =  5 */
(PID.TID 0000.0001)                 2.765473739243563E+10,      /* J =  6 */
(PID.TID 0000.0001)                 2.620701729332415E+10,      /* J =  7 */
(PID.TID 0000.0001)                 2.472736798052209E+10       /* J =  8 */
(PID.TID 0000.0001)     ;
(PID.TID 0000.0001) globalArea = /* Integrated horizontal Area (m^2) */
(PID.TID 0000.0001)                 1.218932156708734E+12
(PID.TID 0000.0001)     ;
(PID.TID 0000.0001) // =======================================================
(PID.TID 0000.0001) // End of Model config. summary
(PID.TID 0000.0001) // =======================================================
(PID.TID 0000.0001) 
(PID.TID 0000.0001) == Packages configuration : Check & print summary ==
(PID.TID 0000.0001) 
(PID.TID 0000.0001) OBCS_CHECK: #define ALLOW_OBCS
(PID.TID 0000.0001) // =======================================================
(PID.TID 0000.0001) // OBCS_CHECK: OBCS configuration summary
(PID.TID 0000.0001) // =======================================================
(PID.TID 0000.0001) 
(PID.TID 0000.0001) useOBCSprescribe = /* prescribe OB values */
(PID.TID 0000.0001)                   T
(PID.TID 0000.0001)     ;
(PID.TID 0000.0001) useOBCSbalance = /* balance the flow through OB */
(PID.TID 0000.0001)                   F
(PID.TID 0000.0001)     ;
(PID.TID 0000.0001) OBCSfixTopo =  /* mod. topo to have zero gradient across boundaries. */
(PID.TID 0000.0001)                   T
(PID.TID 0000.0001)     ;
(PID.TID 0000.0001) OBCS_uvApplyFac = /* Factor to apply to U,V 2nd column/row */
(PID.TID 0000.0001)                 1.000000000000000E+00
(PID.TID 0000.0001)     ;
(PID.TID 0000.0001) OBCS_u1_adv_T = /* Temp uses upwind adv-scheme @ OB */
(PID.TID 0000.0001)                       0
(PID.TID 0000.0001)     ;
(PID.TID 0000.0001) OBCS_u1_adv_S = /* Salt uses upwind adv-scheme @ OB */
(PID.TID 0000.0001)                       0
(PID.TID 0000.0001)     ;
(PID.TID 0000.0001) OBCS_monitorFreq = /* monitor output frequency [s] */
(PID.TID 0000.0001)                 1.000000000000000E+00
(PID.TID 0000.0001)     ;
(PID.TID 0000.0001) OBCS_monSelect = /* select group of variables to monitor */
(PID.TID 0000.0001)                       0
(PID.TID 0000.0001)     ;
(PID.TID 0000.0001) OBCSprintDiags =  /* print some OBCS diagnostics. */
(PID.TID 0000.0001)                   F
(PID.TID 0000.0001)     ;
(PID.TID 0000.0001) useOBCStides = /* apply tidal forcing through OB */
(PID.TID 0000.0001)                   T
(PID.TID 0000.0001)     ;
(PID.TID 0000.0001) tidalPeriod = /* (s) */
(PID.TID 0000.0001)                 4.471416000000000E+04,      /* I =  1 */
(PID.TID 0000.0001)                 4.320000000000000E+04,      /* I =  2 */
(PID.TID 0000.0001)                 4.556988000000000E+04,      /* I =  3 */
(PID.TID 0000.0001)                 4.308192000000000E+04,      /* I =  4 */
(PID.TID 0000.0001)                 8.616420000000000E+04,      /* I =  5 */
(PID.TID 0000.0001)                 9.294948000000000E+04,      /* I =  6 */
(PID.TID 0000.0001)                 8.663724000000001E+04,      /* I =  7 */
(PID.TID 0000.0001)                 9.672624000000001E+04,      /* I =  8 */
(PID.TID 0000.0001)                 1.180295640000000E+06,      /* I =  9 */
(PID.TID 0000.0001)                 2.380716000000000E+06       /* I = 10 */
(PID.TID 0000.0001)     ;
(PID.TID 0000.0001) useOrlanskiNorth =  /* use Orlanski for northern bound. */
(PID.TID 0000.0001)                   F
(PID.TID 0000.0001)     ;
(PID.TID 0000.0001) useOrlanskiSouth =  /* use Orlanski for southern bound. */
(PID.TID 0000.0001)                   F
(PID.TID 0000.0001)     ;
(PID.TID 0000.0001) useOrlanskiEast  =  /* use Orlanski for eastern bound. */
(PID.TID 0000.0001)                   F
(PID.TID 0000.0001)     ;
(PID.TID 0000.0001) useOrlanskiWest  =  /* use Orlanski for western bound. */
(PID.TID 0000.0001)                   F
(PID.TID 0000.0001)     ;
(PID.TID 0000.0001) useStevensNorth =  /* use Stevens for northern bound. */
(PID.TID 0000.0001)                   F
(PID.TID 0000.0001)     ;
(PID.TID 0000.0001) useStevensSouth =  /* use Stevens for southern bound. */
(PID.TID 0000.0001)                   F
(PID.TID 0000.0001)     ;
(PID.TID 0000.0001) useStevensEast  =  /* use Stevens for eastern bound. */
(PID.TID 0000.0001)                   F
(PID.TID 0000.0001)     ;
(PID.TID 0000.0001) useStevensWest  =  /* use Stevens for western bound. */
(PID.TID 0000.0001)                   F
(PID.TID 0000.0001)     ;
(PID.TID 0000.0001) useStevensPhaseVel  =  /* include phase vel. term. */
(PID.TID 0000.0001)                   T
(PID.TID 0000.0001)     ;
(PID.TID 0000.0001) useStevensAdvection  =  /* include advection term. */
(PID.TID 0000.0001)                   T
(PID.TID 0000.0001)     ;
(PID.TID 0000.0001) TrelaxStevens = /* relaxation time scale for theta ( s ). */
(PID.TID 0000.0001)                 0.000000000000000E+00
(PID.TID 0000.0001)     ;
(PID.TID 0000.0001) SrelaxStevens = /* relaxation time scale for salinity ( s ). */
(PID.TID 0000.0001)                 0.000000000000000E+00
(PID.TID 0000.0001)     ;
(PID.TID 0000.0001) useOBCSSponge =  /* use sponge along boundaries */
(PID.TID 0000.0001)                   F
(PID.TID 0000.0001)     ;
(PID.TID 0000.0001) useSeaiceSponge =  /* use sponge for sea ice variables */
(PID.TID 0000.0001)                   F
(PID.TID 0000.0001)     ;
(PID.TID 0000.0001) useSeaiceNeumann =  /* use Neumann conditions for sea ice variables */
(PID.TID 0000.0001)                   T
(PID.TID 0000.0001)     ;
(PID.TID 0000.0001) OB_indexNone = /* null value for OB index (i.e. no OB) */
(PID.TID 0000.0001)                     -99
(PID.TID 0000.0001)     ;
(PID.TID 0000.0001) ======== Tile bi=   1 , bj=   1 ========
(PID.TID 0000.0001)  OB_Jn = /* Northern OB local indices */
(PID.TID 0000.0001)    13 @        8                            /* I = -3:  9 */
(PID.TID 0000.0001)  OB_Js = /* Southern OB local indices */
(PID.TID 0000.0001)    13 @        1                            /* I = -3:  9 */
(PID.TID 0000.0001)  OB_Ie = /* Eastern OB local indices */
(PID.TID 0000.0001)    16 @      -99                            /* J = -3: 12 */
(PID.TID 0000.0001)  OB_Iw = /* Western OB local indices */
(PID.TID 0000.0001)    16 @        1                            /* J = -3: 12 */
(PID.TID 0000.0001) ======== Tile bi=   2 , bj=   1 ========
(PID.TID 0000.0001)  OB_Jn = /* Northern OB local indices */
(PID.TID 0000.0001)    13 @        8                            /* I = -3:  9 */
(PID.TID 0000.0001)  OB_Js = /* Southern OB local indices */
(PID.TID 0000.0001)    13 @        1                            /* I = -3:  9 */
(PID.TID 0000.0001)  OB_Ie = /* Eastern OB local indices */
(PID.TID 0000.0001)    16 @        5                            /* J = -3: 12 */
(PID.TID 0000.0001)  OB_Iw = /* Western OB local indices */
(PID.TID 0000.0001)    16 @      -99                            /* J = -3: 12 */
(PID.TID 0000.0001) // =======================================================
(PID.TID 0000.0001) // End of OBCS config. summary
(PID.TID 0000.0001) // =======================================================
(PID.TID 0000.0001) 
(PID.TID 0000.0001) OBCS_CHECK: set-up OK
(PID.TID 0000.0001) OBCS_CHECK: check Inside Mask and OB locations: OK
(PID.TID 0000.0001) KPP_CHECK: #define ALLOW_KPP
(PID.TID 0000.0001)  kpp_freq = /* frequency of KPP calculation */
(PID.TID 0000.0001)                 3.600000000000000E+03
(PID.TID 0000.0001)     ;
(PID.TID 0000.0001) KPP_ghatUseTotalDiffus= /* non-local term fct of total diffus */
(PID.TID 0000.0001)                   T
(PID.TID 0000.0001)     ;
(PID.TID 0000.0001) KPPuseDoubleDiff = /* include double diffusive contrib */
(PID.TID 0000.0001)                   F
(PID.TID 0000.0001)     ;
(PID.TID 0000.0001) LimitHblStable = /* limits depth of hbl if stable cond.*/
(PID.TID 0000.0001)                   T
(PID.TID 0000.0001)     ;
(PID.TID 0000.0001)  minKPPhbl = /* minimum KPPhbl value [m] */
(PID.TID 0000.0001)                 5.000000000000000E+00
(PID.TID 0000.0001)     ;
(PID.TID 0000.0001)  epsln     = /* constant [-] */
(PID.TID 0000.0001)                 9.999999999999999E-21
(PID.TID 0000.0001)     ;
(PID.TID 0000.0001)  phepsi    = /* constant [-] */
(PID.TID 0000.0001)                 1.000000000000000E-10
(PID.TID 0000.0001)     ;
(PID.TID 0000.0001)  epsilon   = /* constant [-] */
(PID.TID 0000.0001)                 1.000000000000000E-01
(PID.TID 0000.0001)     ;
(PID.TID 0000.0001)  vonk      = /* Von Karmans constant [-] */
(PID.TID 0000.0001)                 4.000000000000000E-01
(PID.TID 0000.0001)     ;
(PID.TID 0000.0001)  dB_dz     = /* maximum N^2 in mixed layer [s^-2] */
(PID.TID 0000.0001)                 5.200000000000000E-05
(PID.TID 0000.0001)     ;
(PID.TID 0000.0001)  conc1     = /* scalar constant [-] */
(PID.TID 0000.0001)                 5.000000000000000E+00
(PID.TID 0000.0001)     ;
(PID.TID 0000.0001)  conam     = /* scalar constant [-] */
(PID.TID 0000.0001)                 1.257000000000000E+00
(PID.TID 0000.0001)     ;
(PID.TID 0000.0001)  concm     = /* scalar constant [-] */
(PID.TID 0000.0001)                 8.380000000000001E+00
(PID.TID 0000.0001)     ;
(PID.TID 0000.0001)  conc2     = /* scalar constant [-] */
(PID.TID 0000.0001)                 1.600000000000000E+01
(PID.TID 0000.0001)     ;
(PID.TID 0000.0001)  conas     = /* scalar constant [-] */
(PID.TID 0000.0001)                -2.886000000000000E+01
(PID.TID 0000.0001)     ;
(PID.TID 0000.0001)  concs     = /* scalar constant [-] */
(PID.TID 0000.0001)                 9.895999999999999E+01
(PID.TID 0000.0001)     ;
(PID.TID 0000.0001)  conc3     = /* scalar constant [-] */
(PID.TID 0000.0001)                 1.600000000000000E+01
(PID.TID 0000.0001)     ;
(PID.TID 0000.0001)  zetam     = /* scalar constant [-] */
(PID.TID 0000.0001)                -2.000000000000000E-01
(PID.TID 0000.0001)     ;
(PID.TID 0000.0001)  zetas     = /* scalar constant [-] */
(PID.TID 0000.0001)                -1.000000000000000E+00
(PID.TID 0000.0001)     ;
(PID.TID 0000.0001)  Ricr      = /* critical bulk Richardson Number [-] */
(PID.TID 0000.0001)                 3.000000000000000E-01
(PID.TID 0000.0001)     ;
(PID.TID 0000.0001)  cekman    = /* coeff for Ekman depth [-] */
(PID.TID 0000.0001)                 7.000000000000000E-01
(PID.TID 0000.0001)     ;
(PID.TID 0000.0001)  cmonob    = /* coeff for Monin-Obukhov depth [-] */
(PID.TID 0000.0001)                 1.000000000000000E+00
(PID.TID 0000.0001)     ;
(PID.TID 0000.0001)  concv     = /* buoyancy freq ratio [-] */
(PID.TID 0000.0001)                 1.800000000000000E+00
(PID.TID 0000.0001)     ;
(PID.TID 0000.0001)  hbf       = /* solar radiation depth ratio [-] */
(PID.TID 0000.0001)                 1.000000000000000E+00
(PID.TID 0000.0001)     ;
(PID.TID 0000.0001)  zmin      = /* minimum for zehat in table [m3/s3] */
(PID.TID 0000.0001)                -4.000000000000000E-07
(PID.TID 0000.0001)     ;
(PID.TID 0000.0001)  zmax      = /* maximum for zehat in table [m3/s3] */
(PID.TID 0000.0001)                 0.000000000000000E+00
(PID.TID 0000.0001)     ;
(PID.TID 0000.0001)  umin      = /* minimum for ustar in table [m/s] */
(PID.TID 0000.0001)                 0.000000000000000E+00
(PID.TID 0000.0001)     ;
(PID.TID 0000.0001)  umax      = /* maximum for ustar in table [m/s] */
(PID.TID 0000.0001)                 4.000000000000000E-02
(PID.TID 0000.0001)     ;
(PID.TID 0000.0001) num_v_smooth_Ri = /* number of vertical smoothing */
(PID.TID 0000.0001)                       0
(PID.TID 0000.0001)     ;
(PID.TID 0000.0001)  Riinfty   = /* shear instability Ri number limit [-] */
(PID.TID 0000.0001)                 7.000000000000000E-01
(PID.TID 0000.0001)     ;
(PID.TID 0000.0001)  BVSQcon   = /* Brunt-Vaisala squared (=N^2) [s^-2] */
(PID.TID 0000.0001)                -2.000000000000000E-05
(PID.TID 0000.0001)     ;
(PID.TID 0000.0001)  difm0     = /* max viscosity from shear instab. [m2/s] */
(PID.TID 0000.0001)                 5.000000000000000E-03
(PID.TID 0000.0001)     ;
(PID.TID 0000.0001)  difs0     = /* max diffusiv. from shear instab. [m2/s] */
(PID.TID 0000.0001)                 5.000000000000000E-03
(PID.TID 0000.0001)     ;
(PID.TID 0000.0001)  dift0     = /* max diffusiv. from shear instab. [m2/s] */
(PID.TID 0000.0001)                 5.000000000000000E-03
(PID.TID 0000.0001)     ;
(PID.TID 0000.0001)  difmcon   = /* convective viscosity [m2/s] */
(PID.TID 0000.0001)                 1.000000000000000E-01
(PID.TID 0000.0001)     ;
(PID.TID 0000.0001)  difscon   = /* convective diffusiv. [m2/s] */
(PID.TID 0000.0001)                 1.000000000000000E-01
(PID.TID 0000.0001)     ;
(PID.TID 0000.0001)  diftcon   = /* convective diffusiv. [m2/s] */
(PID.TID 0000.0001)                 1.000000000000000E-01
(PID.TID 0000.0001)     ;
(PID.TID 0000.0001)  Rrho0     = /* double diffusion density ratio [-] */
(PID.TID 0000.0001)                 1.900000000000000E+00
(PID.TID 0000.0001)     ;
(PID.TID 0000.0001)  dsfmax    = /* max diffusiv. for salt fingering [m2/s] */
(PID.TID 0000.0001)                 1.000000000000000E-02
(PID.TID 0000.0001)     ;
(PID.TID 0000.0001)  cstar     = /* coeff for non-locak transport [-] */
(PID.TID 0000.0001)                 1.000000000000000E+01
(PID.TID 0000.0001)     ;
(PID.TID 0000.0001) KPPwriteState = /* write KPP fields to file */
(PID.TID 0000.0001)                   T
(PID.TID 0000.0001)     ;
(PID.TID 0000.0001)  kpp_dumpFreq = /* dump freq of KPP output */
(PID.TID 0000.0001)                 0.000000000000000E+00
(PID.TID 0000.0001)     ;
(PID.TID 0000.0001)  kpp_taveFreq = /* time-averaging freq of KPP output */
(PID.TID 0000.0001)                 3.600000000000000E+04
(PID.TID 0000.0001)     ;
(PID.TID 0000.0001) 
(PID.TID 0000.0001) GMREDI_CHECK: #define GMREDI
(PID.TID 0000.0001) GM_AdvForm =     /* if FALSE => use SkewFlux Form */
(PID.TID 0000.0001)                   F
(PID.TID 0000.0001)     ;
(PID.TID 0000.0001) GM_InMomAsStress = /* if TRUE => apply as Eddy Stress */
(PID.TID 0000.0001)                   F
(PID.TID 0000.0001)     ;
(PID.TID 0000.0001) GM_AdvSeparate = /* Calc Bolus & Euler Adv. separately */
(PID.TID 0000.0001)                   F
(PID.TID 0000.0001)     ;
(PID.TID 0000.0001) GM_ExtraDiag =   /* Tensor Extra Diag (line 1&2) non 0 */
(PID.TID 0000.0001)                   F
(PID.TID 0000.0001)     ;
(PID.TID 0000.0001) GM_isopycK =    /* Background Isopyc. Diffusivity [m^2/s] */
(PID.TID 0000.0001)                 5.710000000000000E+02
(PID.TID 0000.0001)     ;
(PID.TID 0000.0001) GM_advec*K =    /* Backg. GM-Advec(=Bolus) Diffusivity [m^2/s] */
(PID.TID 0000.0001)                 0.000000000000000E+00
(PID.TID 0000.0001)     ;
(PID.TID 0000.0001) GM_skewflx*K =  /* Background GM_SkewFlx Diffusivity [m^2/s] */
(PID.TID 0000.0001)                 5.710000000000000E+02
(PID.TID 0000.0001)     ;
(PID.TID 0000.0001) GM_isoFac_calcK = /* Fraction of dynamic K added to Redi tensor */
(PID.TID 0000.0001)                 1.000000000000000E+00
(PID.TID 0000.0001)     ;
(PID.TID 0000.0001) GM_Kmin_horiz = /* Minimum Horizontal Diffusivity [m^2/s] */
(PID.TID 0000.0001)                 0.000000000000000E+00
(PID.TID 0000.0001)     ;
(PID.TID 0000.0001) GM_Visbeck_alpha = /* Visbeck alpha coeff. [-] */
(PID.TID 0000.0001)                 0.000000000000000E+00
(PID.TID 0000.0001)     ;
(PID.TID 0000.0001) GM_Small_Number =  /* epsilon used in slope calc */
(PID.TID 0000.0001)                 9.999999999999999E-21
(PID.TID 0000.0001)     ;
(PID.TID 0000.0001) GM_slopeSqCutoff = /* Slope^2 cut-off value */
(PID.TID 0000.0001)                 1.000000000000000E+48
(PID.TID 0000.0001)     ;
(PID.TID 0000.0001) GM_taper_scheme =  /* Type of Tapering/Clipping scheme */
(PID.TID 0000.0001)               'ldd97                                   '
(PID.TID 0000.0001)     ;
(PID.TID 0000.0001) GM_maxSlope =  /* Maximum Slope (Tapering/Clipping) */
(PID.TID 0000.0001)                 1.000000000000000E-02
(PID.TID 0000.0001)     ;
(PID.TID 0000.0001) GM_facTrL2dz = /* Minimum Trans.Layer Thick. (factor of dz) */
(PID.TID 0000.0001)                 1.000000000000000E+00
(PID.TID 0000.0001)     ;
(PID.TID 0000.0001) GM_facTrL2ML = /* Max.Trans.Layer Thick. (factor of MxL Depth)*/
(PID.TID 0000.0001)                 5.000000000000000E+00
(PID.TID 0000.0001)     ;
(PID.TID 0000.0001) GM_maxTransLay = /* Maximum Transition Layer Thickness [m] */
(PID.TID 0000.0001)                 5.000000000000000E+02
(PID.TID 0000.0001)     ;
(PID.TID 0000.0001) GM_UseBVP = /* if TRUE => use bvp a la Ferrari et al. (2010) */
(PID.TID 0000.0001)                   F
(PID.TID 0000.0001)     ;
(PID.TID 0000.0001) GM_BVP_ModeNumber = /* Vertical mode number for BVP wave speed */
(PID.TID 0000.0001)                       1
(PID.TID 0000.0001)     ;
(PID.TID 0000.0001) GM_BVP_cMin = /* Minimum wave speed for BVP [m/s] */
(PID.TID 0000.0001)                 1.000000000000000E-01
(PID.TID 0000.0001)     ;
(PID.TID 0000.0001) GM_useSubMeso = /* if TRUE => use Sub-Meso param. (B.Fox-Kemper) */
(PID.TID 0000.0001)                   F
(PID.TID 0000.0001)     ;
(PID.TID 0000.0001) subMeso_Ceff = /* efficiency coeff. of Mixed-Layer Eddies [-] */
(PID.TID 0000.0001)                 7.000000000000001E-02
(PID.TID 0000.0001)     ;
(PID.TID 0000.0001) subMeso_invTau = /* inverse of Sub-Meso mixing time-scale [/s] */
(PID.TID 0000.0001)                 2.000000000000000E-06
(PID.TID 0000.0001)     ;
(PID.TID 0000.0001) subMeso_LfMin = /* minimum length-scale "Lf" [m] */
(PID.TID 0000.0001)                 1.000000000000000E+03
(PID.TID 0000.0001)     ;
(PID.TID 0000.0001) subMeso_Lmax = /* maximum grid-scale length [m] */
(PID.TID 0000.0001)                 1.100000000000000E+05
(PID.TID 0000.0001)     ;
(PID.TID 0000.0001) GM_useLeithQG = /* if TRUE => add QG Leith viscosity to GMRedi tensor */
(PID.TID 0000.0001)                   F
(PID.TID 0000.0001)     ;
(PID.TID 0000.0001) GM_useGEOM = /* using GEOMETRIC */
(PID.TID 0000.0001)                   F
(PID.TID 0000.0001)     ;
(PID.TID 0000.0001) EXF_CHECK: #define ALLOW_EXF
(PID.TID 0000.0001) SEAICE_CHECK: #define ALLOW_SEAICE
(PID.TID 0000.0001) SALT_PLUME_CHECK: #define SALT_PLUME
(PID.TID 0000.0001) GAD_CHECK: #define ALLOW_GENERIC_ADVDIFF
(PID.TID 0000.0001) // =======================================================
(PID.TID 0000.0001) // Check Model config. (CONFIG_CHECK):
(PID.TID 0000.0001) // CONFIG_CHECK : Normal End
(PID.TID 0000.0001) // =======================================================
(PID.TID 0000.0001) 
(PID.TID 0000.0001)  MDS_READ_META: opening file: pickup.0000000001.meta
(PID.TID 0000.0001)  nRecords = 187 ; filePrec =  64 ; fileIter =      8760
(PID.TID 0000.0001)     nDims =   2 , dims:
(PID.TID 0000.0001)    1:  10   1  10
(PID.TID 0000.0001)    2:   8   1   8
(PID.TID 0000.0001)     nFlds =  11 , nFl3D =   8 , fields:
(PID.TID 0000.0001)  >Uvel    < >Vvel    < >Theta   < >Salt    < >GuNm1   < >GvNm1   < >GtNm1   < >GsNm1   < >EtaN    < >dEtaHdt < >EtaH    <
(PID.TID 0000.0001) missingVal=  1.00000000000000E+00 ; nTimRec =   1 , timeList:
(PID.TID 0000.0001)   3.153600000000E+07
(PID.TID 0000.0001) READ_MFLDS_3D_RL: read field: "Uvel    ", #   1 in fldList, rec=   1
(PID.TID 0000.0001)  MDS_READ_FIELD: opening global file: pickup.0000000001.data
(PID.TID 0000.0001) READ_MFLDS_3D_RL: read field: "Vvel    ", #   2 in fldList, rec=   2
(PID.TID 0000.0001)  MDS_READ_FIELD: opening global file: pickup.0000000001.data
(PID.TID 0000.0001) READ_MFLDS_3D_RL: read field: "Theta   ", #   3 in fldList, rec=   3
(PID.TID 0000.0001)  MDS_READ_FIELD: opening global file: pickup.0000000001.data
(PID.TID 0000.0001) READ_MFLDS_3D_RL: read field: "Salt    ", #   4 in fldList, rec=   4
(PID.TID 0000.0001)  MDS_READ_FIELD: opening global file: pickup.0000000001.data
(PID.TID 0000.0001) READ_MFLDS_3D_RL: read field: "GuNm1   ", #   5 in fldList, rec=   5
(PID.TID 0000.0001)  MDS_READ_FIELD: opening global file: pickup.0000000001.data
(PID.TID 0000.0001) READ_MFLDS_3D_RL: read field: "GvNm1   ", #   6 in fldList, rec=   6
(PID.TID 0000.0001)  MDS_READ_FIELD: opening global file: pickup.0000000001.data
(PID.TID 0000.0001) READ_MFLDS_3D_RL: read field: "EtaN    ", #   9 in fldList, rec= 185
(PID.TID 0000.0001)  MDS_READ_FIELD: opening global file: pickup.0000000001.data
(PID.TID 0000.0001) READ_MFLDS_CHECK: - normal end ; reset MFLDS file-name: pickup.0000000001
(PID.TID 0000.0001)  MDS_READ_META: opening file: pickup_seaice.0000000001.meta
(PID.TID 0000.0001)  nRecords =   8 ; filePrec =  64 ; fileIter =      8760
(PID.TID 0000.0001)     nDims =   2 , dims:
(PID.TID 0000.0001)    1:  10   1  10
(PID.TID 0000.0001)    2:   8   1   8
(PID.TID 0000.0001)     nFlds =   8 , nFl3D =   0 , fields:
(PID.TID 0000.0001)  >siTICE  < >siAREA  < >siHEFF  < >siHSNOW < >siHSALT < >siAGE   < >siUICE  < >siVICE  <
(PID.TID 0000.0001) missingVal=  1.00000000000000E+00 ; nTimRec =   1 , timeList:
(PID.TID 0000.0001)   3.153600000000E+07
(PID.TID 0000.0001) READ_MFLDS_3D_RL: field: "siTICES " missing in file: pickup_seaice.0000000001
(PID.TID 0000.0001) READ_MFLDS_LEV_RL: read field: "siTICE  ", #   1 in fldList, rec=   1
(PID.TID 0000.0001)  MDS_READ_FIELD: opening global file: pickup_seaice.0000000001.data
(PID.TID 0000.0001) READ_MFLDS_3D_RL: read field: "siAREA  ", #   2 in fldList, rec=   2
(PID.TID 0000.0001)  MDS_READ_FIELD: opening global file: pickup_seaice.0000000001.data
(PID.TID 0000.0001) READ_MFLDS_3D_RL: read field: "siHEFF  ", #   3 in fldList, rec=   3
(PID.TID 0000.0001)  MDS_READ_FIELD: opening global file: pickup_seaice.0000000001.data
(PID.TID 0000.0001) READ_MFLDS_3D_RL: read field: "siHSNOW ", #   4 in fldList, rec=   4
(PID.TID 0000.0001)  MDS_READ_FIELD: opening global file: pickup_seaice.0000000001.data
(PID.TID 0000.0001) READ_MFLDS_3D_RL: read field: "siHSALT ", #   5 in fldList, rec=   5
(PID.TID 0000.0001)  MDS_READ_FIELD: opening global file: pickup_seaice.0000000001.data
(PID.TID 0000.0001) READ_MFLDS_3D_RL: read field: "siUICE  ", #   7 in fldList, rec=   7
(PID.TID 0000.0001)  MDS_READ_FIELD: opening global file: pickup_seaice.0000000001.data
(PID.TID 0000.0001) READ_MFLDS_3D_RL: read field: "siVICE  ", #   8 in fldList, rec=   8
(PID.TID 0000.0001)  MDS_READ_FIELD: opening global file: pickup_seaice.0000000001.data
(PID.TID 0000.0001)  MDS_READ_SEC_XZ: opening global file: OBNam.seaice_obcs
(PID.TID 0000.0001)  MDS_READ_SEC_XZ: opening global file: OBNph.seaice_obcs
(PID.TID 0000.0001)  MDS_READ_SEC_XZ: opening global file: OBSam.seaice_obcs
(PID.TID 0000.0001)  MDS_READ_SEC_XZ: opening global file: OBSph.seaice_obcs
(PID.TID 0000.0001)  MDS_READ_SEC_YZ: opening global file: OBEam.seaice_obcs
(PID.TID 0000.0001)  MDS_READ_SEC_YZ: opening global file: OBEph.seaice_obcs
(PID.TID 0000.0001)  MDS_READ_SEC_YZ: opening global file: OBWam.seaice_obcs
(PID.TID 0000.0001)  MDS_READ_SEC_YZ: opening global file: OBWph.seaice_obcs
(PID.TID 0000.0001)  MDS_READ_SEC_XZ: opening global file: OBNu.seaice_obcs
(PID.TID 0000.0001)  MDS_READ_SEC_XZ: opening global file: OBNu.seaice_obcs
(PID.TID 0000.0001)  MDS_READ_SEC_XZ: opening global file: OBNv.seaice_obcs
(PID.TID 0000.0001)  MDS_READ_SEC_XZ: opening global file: OBNv.seaice_obcs
(PID.TID 0000.0001)  MDS_READ_SEC_XZ: opening global file: OBNt.seaice_obcs
(PID.TID 0000.0001)  MDS_READ_SEC_XZ: opening global file: OBNt.seaice_obcs
(PID.TID 0000.0001)  MDS_READ_SEC_XZ: opening global file: OBNs.seaice_obcs
(PID.TID 0000.0001)  MDS_READ_SEC_XZ: opening global file: OBNs.seaice_obcs
(PID.TID 0000.0001)  MDS_READ_SEC_XZ: opening global file: OBNa.seaice_obcs
(PID.TID 0000.0001)  MDS_READ_SEC_XZ: opening global file: OBNa.seaice_obcs
(PID.TID 0000.0001)  MDS_READ_SEC_XZ: opening global file: OBNh.seaice_obcs
(PID.TID 0000.0001)  MDS_READ_SEC_XZ: opening global file: OBNh.seaice_obcs
(PID.TID 0000.0001)  MDS_READ_SEC_XZ: opening global file: OBNsl.seaice_obcs
(PID.TID 0000.0001)  MDS_READ_SEC_XZ: opening global file: OBNsl.seaice_obcs
(PID.TID 0000.0001)  MDS_READ_SEC_XZ: opening global file: OBNsn.seaice_obcs
(PID.TID 0000.0001)  MDS_READ_SEC_XZ: opening global file: OBNsn.seaice_obcs
(PID.TID 0000.0001)  MDS_READ_SEC_XZ: opening global file: OBNuice.seaice_obcs
(PID.TID 0000.0001)  MDS_READ_SEC_XZ: opening global file: OBNuice.seaice_obcs
(PID.TID 0000.0001)  MDS_READ_SEC_XZ: opening global file: OBNvice.seaice_obcs
(PID.TID 0000.0001)  MDS_READ_SEC_XZ: opening global file: OBNvice.seaice_obcs
(PID.TID 0000.0001)  MDS_READ_SEC_XZ: opening global file: OBSu.seaice_obcs
(PID.TID 0000.0001)  MDS_READ_SEC_XZ: opening global file: OBSu.seaice_obcs
(PID.TID 0000.0001)  MDS_READ_SEC_XZ: opening global file: OBSv.seaice_obcs
(PID.TID 0000.0001)  MDS_READ_SEC_XZ: opening global file: OBSv.seaice_obcs
(PID.TID 0000.0001)  MDS_READ_SEC_XZ: opening global file: OBSt.seaice_obcs
(PID.TID 0000.0001)  MDS_READ_SEC_XZ: opening global file: OBSt.seaice_obcs
(PID.TID 0000.0001)  MDS_READ_SEC_XZ: opening global file: OBSs.seaice_obcs
(PID.TID 0000.0001)  MDS_READ_SEC_XZ: opening global file: OBSs.seaice_obcs
(PID.TID 0000.0001)  MDS_READ_SEC_XZ: opening global file: OBSa.seaice_obcs
(PID.TID 0000.0001)  MDS_READ_SEC_XZ: opening global file: OBSa.seaice_obcs
(PID.TID 0000.0001)  MDS_READ_SEC_XZ: opening global file: OBSh.seaice_obcs
(PID.TID 0000.0001)  MDS_READ_SEC_XZ: opening global file: OBSh.seaice_obcs
(PID.TID 0000.0001)  MDS_READ_SEC_XZ: opening global file: OBSsl.seaice_obcs
(PID.TID 0000.0001)  MDS_READ_SEC_XZ: opening global file: OBSsl.seaice_obcs
(PID.TID 0000.0001)  MDS_READ_SEC_XZ: opening global file: OBSsn.seaice_obcs
(PID.TID 0000.0001)  MDS_READ_SEC_XZ: opening global file: OBSsn.seaice_obcs
(PID.TID 0000.0001)  MDS_READ_SEC_XZ: opening global file: OBSuice.seaice_obcs
(PID.TID 0000.0001)  MDS_READ_SEC_XZ: opening global file: OBSuice.seaice_obcs
(PID.TID 0000.0001)  MDS_READ_SEC_XZ: opening global file: OBSvice.seaice_obcs
(PID.TID 0000.0001)  MDS_READ_SEC_XZ: opening global file: OBSvice.seaice_obcs
(PID.TID 0000.0001)  MDS_READ_SEC_YZ: opening global file: OBEu.seaice_obcs
(PID.TID 0000.0001)  MDS_READ_SEC_YZ: opening global file: OBEu.seaice_obcs
(PID.TID 0000.0001)  MDS_READ_SEC_YZ: opening global file: OBEv.seaice_obcs
(PID.TID 0000.0001)  MDS_READ_SEC_YZ: opening global file: OBEv.seaice_obcs
(PID.TID 0000.0001)  MDS_READ_SEC_YZ: opening global file: OBEt.seaice_obcs
(PID.TID 0000.0001)  MDS_READ_SEC_YZ: opening global file: OBEt.seaice_obcs
(PID.TID 0000.0001)  MDS_READ_SEC_YZ: opening global file: OBEs.seaice_obcs
(PID.TID 0000.0001)  MDS_READ_SEC_YZ: opening global file: OBEs.seaice_obcs
(PID.TID 0000.0001)  MDS_READ_SEC_YZ: opening global file: OBEa.seaice_obcs
(PID.TID 0000.0001)  MDS_READ_SEC_YZ: opening global file: OBEa.seaice_obcs
(PID.TID 0000.0001)  MDS_READ_SEC_YZ: opening global file: OBEh.seaice_obcs
(PID.TID 0000.0001)  MDS_READ_SEC_YZ: opening global file: OBEh.seaice_obcs
(PID.TID 0000.0001)  MDS_READ_SEC_YZ: opening global file: OBEsl.seaice_obcs
(PID.TID 0000.0001)  MDS_READ_SEC_YZ: opening global file: OBEsl.seaice_obcs
(PID.TID 0000.0001)  MDS_READ_SEC_YZ: opening global file: OBEsn.seaice_obcs
(PID.TID 0000.0001)  MDS_READ_SEC_YZ: opening global file: OBEsn.seaice_obcs
(PID.TID 0000.0001)  MDS_READ_SEC_YZ: opening global file: OBEuice.seaice_obcs
(PID.TID 0000.0001)  MDS_READ_SEC_YZ: opening global file: OBEuice.seaice_obcs
(PID.TID 0000.0001)  MDS_READ_SEC_YZ: opening global file: OBEvice.seaice_obcs
(PID.TID 0000.0001)  MDS_READ_SEC_YZ: opening global file: OBEvice.seaice_obcs
(PID.TID 0000.0001)  MDS_READ_SEC_YZ: opening global file: OBWu.seaice_obcs
(PID.TID 0000.0001)  MDS_READ_SEC_YZ: opening global file: OBWu.seaice_obcs
(PID.TID 0000.0001)  MDS_READ_SEC_YZ: opening global file: OBWv.seaice_obcs
(PID.TID 0000.0001)  MDS_READ_SEC_YZ: opening global file: OBWv.seaice_obcs
(PID.TID 0000.0001)  MDS_READ_SEC_YZ: opening global file: OBWt.seaice_obcs
(PID.TID 0000.0001)  MDS_READ_SEC_YZ: opening global file: OBWt.seaice_obcs
(PID.TID 0000.0001)  MDS_READ_SEC_YZ: opening global file: OBWs.seaice_obcs
(PID.TID 0000.0001)  MDS_READ_SEC_YZ: opening global file: OBWs.seaice_obcs
(PID.TID 0000.0001)  MDS_READ_SEC_YZ: opening global file: OBWa.seaice_obcs
(PID.TID 0000.0001)  MDS_READ_SEC_YZ: opening global file: OBWa.seaice_obcs
(PID.TID 0000.0001)  MDS_READ_SEC_YZ: opening global file: OBWh.seaice_obcs
(PID.TID 0000.0001)  MDS_READ_SEC_YZ: opening global file: OBWh.seaice_obcs
(PID.TID 0000.0001)  MDS_READ_SEC_YZ: opening global file: OBWsl.seaice_obcs
(PID.TID 0000.0001)  MDS_READ_SEC_YZ: opening global file: OBWsl.seaice_obcs
(PID.TID 0000.0001)  MDS_READ_SEC_YZ: opening global file: OBWsn.seaice_obcs
(PID.TID 0000.0001)  MDS_READ_SEC_YZ: opening global file: OBWsn.seaice_obcs
(PID.TID 0000.0001)  MDS_READ_SEC_YZ: opening global file: OBWuice.seaice_obcs
(PID.TID 0000.0001)  MDS_READ_SEC_YZ: opening global file: OBWuice.seaice_obcs
(PID.TID 0000.0001)  MDS_READ_SEC_YZ: opening global file: OBWvice.seaice_obcs
(PID.TID 0000.0001)  MDS_READ_SEC_YZ: opening global file: OBWvice.seaice_obcs
(PID.TID 0000.0001) // =======================================================
(PID.TID 0000.0001) // Model current state
(PID.TID 0000.0001) // =======================================================
(PID.TID 0000.0001) 
(PID.TID 0000.0001) // =======================================================
(PID.TID 0000.0001) // Begin MONITOR dynamic field statistics
(PID.TID 0000.0001) // =======================================================
(PID.TID 0000.0001) %MON time_tsnumber                =                     1
(PID.TID 0000.0001) %MON time_secondsf                =   3.6000000000000E+03
(PID.TID 0000.0001) %MON dynstat_eta_max              =   1.2148896464948E-01
(PID.TID 0000.0001) %MON dynstat_eta_min              =  -1.2294072390931E-01
(PID.TID 0000.0001) %MON dynstat_eta_mean             =  -4.0879193119835E-02
(PID.TID 0000.0001) %MON dynstat_eta_sd               =   5.5742455093350E-02
(PID.TID 0000.0001) %MON dynstat_eta_del2             =   7.2695686705960E-03
(PID.TID 0000.0001) %MON dynstat_uvel_max             =   2.2009639999218E-02
(PID.TID 0000.0001) %MON dynstat_uvel_min             =  -3.2116802195889E-02
(PID.TID 0000.0001) %MON dynstat_uvel_mean            =  -9.1185285022315E-05
(PID.TID 0000.0001) %MON dynstat_uvel_sd              =   3.4976244593631E-03
(PID.TID 0000.0001) %MON dynstat_uvel_del2            =   2.9167384814974E-04
(PID.TID 0000.0001) %MON dynstat_vvel_max             =   3.0230752565413E-02
(PID.TID 0000.0001) %MON dynstat_vvel_min             =  -7.2915596643288E-02
(PID.TID 0000.0001) %MON dynstat_vvel_mean            =  -6.4339951121684E-04
(PID.TID 0000.0001) %MON dynstat_vvel_sd              =   5.8216672818233E-03
(PID.TID 0000.0001) %MON dynstat_vvel_del2            =   3.8104852203407E-04
(PID.TID 0000.0001) %MON dynstat_wvel_max             =   7.8665957443216E-06
(PID.TID 0000.0001) %MON dynstat_wvel_min             =  -1.1229500461274E-05
(PID.TID 0000.0001) %MON dynstat_wvel_mean            =  -1.3881689619331E-06
(PID.TID 0000.0001) %MON dynstat_wvel_sd              =   3.2166084559292E-06
(PID.TID 0000.0001) %MON dynstat_wvel_del2            =   2.4442365591657E-07
(PID.TID 0000.0001) %MON dynstat_theta_max            =   6.0153181285526E+00
(PID.TID 0000.0001) %MON dynstat_theta_min            =  -1.8174415658729E+00
(PID.TID 0000.0001) %MON dynstat_theta_mean           =   3.1873608367779E+00
(PID.TID 0000.0001) %MON dynstat_theta_sd             =   7.9838030400804E-01
(PID.TID 0000.0001) %MON dynstat_theta_del2           =   4.3246801571569E-02
(PID.TID 0000.0001) %MON dynstat_salt_max             =   3.4939863335716E+01
(PID.TID 0000.0001) %MON dynstat_salt_min             =   3.2483378437535E+01
(PID.TID 0000.0001) %MON dynstat_salt_mean            =   3.4812208901733E+01
(PID.TID 0000.0001) %MON dynstat_salt_sd              =   3.1542158662177E-01
(PID.TID 0000.0001) %MON dynstat_salt_del2            =   9.5634326230734E-03
(PID.TID 0000.0001) %MON forcing_qnet_max             =   0.0000000000000E+00
(PID.TID 0000.0001) %MON forcing_qnet_min             =   0.0000000000000E+00
(PID.TID 0000.0001) %MON forcing_qnet_mean            =   0.0000000000000E+00
(PID.TID 0000.0001) %MON forcing_qnet_sd              =   0.0000000000000E+00
(PID.TID 0000.0001) %MON forcing_qnet_del2            =   0.0000000000000E+00
(PID.TID 0000.0001) %MON forcing_qsw_max              =   0.0000000000000E+00
(PID.TID 0000.0001) %MON forcing_qsw_min              =   0.0000000000000E+00
(PID.TID 0000.0001) %MON forcing_qsw_mean             =   0.0000000000000E+00
(PID.TID 0000.0001) %MON forcing_qsw_sd               =   0.0000000000000E+00
(PID.TID 0000.0001) %MON forcing_qsw_del2             =   0.0000000000000E+00
(PID.TID 0000.0001) %MON forcing_empmr_max            =   0.0000000000000E+00
(PID.TID 0000.0001) %MON forcing_empmr_min            =   0.0000000000000E+00
(PID.TID 0000.0001) %MON forcing_empmr_mean           =   0.0000000000000E+00
(PID.TID 0000.0001) %MON forcing_empmr_sd             =   0.0000000000000E+00
(PID.TID 0000.0001) %MON forcing_empmr_del2           =   0.0000000000000E+00
(PID.TID 0000.0001) %MON forcing_fu_max               =   0.0000000000000E+00
(PID.TID 0000.0001) %MON forcing_fu_min               =   0.0000000000000E+00
(PID.TID 0000.0001) %MON forcing_fu_mean              =   0.0000000000000E+00
(PID.TID 0000.0001) %MON forcing_fu_sd                =   0.0000000000000E+00
(PID.TID 0000.0001) %MON forcing_fu_del2              =   0.0000000000000E+00
(PID.TID 0000.0001) %MON forcing_fv_max               =   0.0000000000000E+00
(PID.TID 0000.0001) %MON forcing_fv_min               =   0.0000000000000E+00
(PID.TID 0000.0001) %MON forcing_fv_mean              =   0.0000000000000E+00
(PID.TID 0000.0001) %MON forcing_fv_sd                =   0.0000000000000E+00
(PID.TID 0000.0001) %MON forcing_fv_del2              =   0.0000000000000E+00
(PID.TID 0000.0001) %MON trAdv_CFL_u_max              =   0.0000000000000E+00
(PID.TID 0000.0001) %MON trAdv_CFL_v_max              =   0.0000000000000E+00
(PID.TID 0000.0001) %MON trAdv_CFL_w_max              =   0.0000000000000E+00
(PID.TID 0000.0001) %MON advcfl_uvel_max              =   9.5457721697401E-04
(PID.TID 0000.0001) %MON advcfl_vvel_max              =   1.1803422864558E-03
(PID.TID 0000.0001) %MON advcfl_wvel_max              =   4.4762225102375E-03
(PID.TID 0000.0001) %MON advcfl_W_hf_max              =   2.1797518062028E-03
(PID.TID 0000.0001) %MON pe_b_mean                    =   1.3734780738211E-05
(PID.TID 0000.0001) %MON ke_max                       =   2.6767791989545E-03
(PID.TID 0000.0001) %MON ke_mean                      =   1.8753922645156E-05
(PID.TID 0000.0001) %MON ke_vol                       =   2.0812333426156E+15
(PID.TID 0000.0001) %MON vort_r_min                   =  -5.8929501924827E-07
(PID.TID 0000.0001) %MON vort_r_max                   =   2.7119962230354E-07
(PID.TID 0000.0001) %MON vort_a_mean                  =   1.1459506466757E-04
(PID.TID 0000.0001) %MON vort_a_sd                    =   5.2713275139946E-06
(PID.TID 0000.0001) %MON vort_p_mean                  =   1.7066120158470E-04
(PID.TID 0000.0001) %MON vort_p_sd                    =   1.1051719579054E-04
(PID.TID 0000.0001) %MON surfExpan_theta_mean         =  -2.1257986902296E-06
(PID.TID 0000.0001) %MON surfExpan_salt_mean          =  -4.4770994678265E-06
(PID.TID 0000.0001) // =======================================================
(PID.TID 0000.0001) // End MONITOR dynamic field statistics
(PID.TID 0000.0001) // =======================================================
(PID.TID 0000.0001) // =======================================================
(PID.TID 0000.0001) // Begin OBCS MONITOR field statistics
(PID.TID 0000.0001) // =======================================================
(PID.TID 0000.0001) %MON obc_E_uVel_max               =   1.4242653050871E-02
(PID.TID 0000.0001) %MON obc_E_uVel_min               =  -1.9194674273765E-02
(PID.TID 0000.0001) %MON obc_E_uVel_mean              =  -4.9638201602628E-04
(PID.TID 0000.0001) %MON obc_E_uVel_sd                =   3.2297495133493E-03
(PID.TID 0000.0001) %MON obc_E_uVel_Int               =  -1.0249741557350E+06
(PID.TID 0000.0001) %MON obc_W_uVel_max               =   9.2070222731099E-03
(PID.TID 0000.0001) %MON obc_W_uVel_min               =  -9.4567048049434E-03
(PID.TID 0000.0001) %MON obc_W_uVel_mean              =   2.4843306482436E-06
(PID.TID 0000.0001) %MON obc_W_uVel_sd                =   3.3213373892182E-03
(PID.TID 0000.0001) %MON obc_W_uVel_Int               =   2.8729476275997E+02
(PID.TID 0000.0001) %MON obc_N_vVel_max               =   9.4107913849022E-03
(PID.TID 0000.0001) %MON obc_N_vVel_min               =  -3.4397775301259E-02
(PID.TID 0000.0001) %MON obc_N_vVel_mean              =   8.5814502424306E-06
(PID.TID 0000.0001) %MON obc_N_vVel_sd                =   8.2083963961428E-03
(PID.TID 0000.0001) %MON obc_N_vVel_Int               =   1.1259722016490E+03
(PID.TID 0000.0001) %MON obc_S_vVel_max               =   3.6520769995882E-03
(PID.TID 0000.0001) %MON obc_S_vVel_min               =  -4.6883787666845E-02
(PID.TID 0000.0001) %MON obc_S_vVel_mean              =  -1.3399915045992E-03
(PID.TID 0000.0001) %MON obc_S_vVel_sd                =   4.9499815188988E-03
(PID.TID 0000.0001) %MON obc_S_vVel_Int               =  -1.1655003922066E+06
(PID.TID 0000.0001) // =======================================================
(PID.TID 0000.0001) // End OBCS MONITOR field statistics
(PID.TID 0000.0001) // =======================================================
(PID.TID 0000.0001) // =======================================================
(PID.TID 0000.0001) // Begin MONITOR SEAICE statistics
(PID.TID 0000.0001) // =======================================================
(PID.TID 0000.0001) %MON seaice_tsnumber              =                     1
(PID.TID 0000.0001) %MON seaice_time_sec              =   3.6000000000000E+03
(PID.TID 0000.0001) %MON seaice_uice_max              =   1.4568452533446E-01
(PID.TID 0000.0001) %MON seaice_uice_min              =  -1.0756200511604E-01
(PID.TID 0000.0001) %MON seaice_uice_mean             =   4.8585159172492E-02
(PID.TID 0000.0001) %MON seaice_uice_sd               =   6.6090805174384E-02
(PID.TID 0000.0001) %MON seaice_uice_del2             =   4.2844099468594E-03
(PID.TID 0000.0001) %MON seaice_vice_max              =   6.6723729113493E-02
(PID.TID 0000.0001) %MON seaice_vice_min              =  -1.5313531754626E-01
(PID.TID 0000.0001) %MON seaice_vice_mean             =  -7.4694814381824E-02
(PID.TID 0000.0001) %MON seaice_vice_sd               =   5.5457098956354E-02
(PID.TID 0000.0001) %MON seaice_vice_del2             =   3.6329843897423E-03
(PID.TID 0000.0001) %MON seaice_area_max              =   1.0000000000000E+00
(PID.TID 0000.0001) %MON seaice_area_min              =   0.0000000000000E+00
(PID.TID 0000.0001) %MON seaice_area_mean             =   3.3456698460908E-01
(PID.TID 0000.0001) %MON seaice_area_sd               =   4.1347224280415E-01
(PID.TID 0000.0001) %MON seaice_area_del2             =   7.1860770429023E-02
(PID.TID 0000.0001) %MON seaice_heff_max              =   4.6387455454928E-01
(PID.TID 0000.0001) %MON seaice_heff_min              =   0.0000000000000E+00
(PID.TID 0000.0001) %MON seaice_heff_mean             =   7.7767294476537E-02
(PID.TID 0000.0001) %MON seaice_heff_sd               =   1.1759237506287E-01
(PID.TID 0000.0001) %MON seaice_heff_del2             =   1.4149876013564E-02
(PID.TID 0000.0001) %MON seaice_hsnow_max             =   8.1462875154471E-02
(PID.TID 0000.0001) %MON seaice_hsnow_min             =   0.0000000000000E+00
(PID.TID 0000.0001) %MON seaice_hsnow_mean            =   1.6890355006286E-02
(PID.TID 0000.0001) %MON seaice_hsnow_sd              =   2.4480004555514E-02
(PID.TID 0000.0001) %MON seaice_hsnow_del2            =   4.1995111454288E-03
(PID.TID 0000.0001) %MON seaice_hsalt_max             =   0.0000000000000E+00
(PID.TID 0000.0001) %MON seaice_hsalt_min             =   0.0000000000000E+00
(PID.TID 0000.0001) %MON seaice_hsalt_mean            =   0.0000000000000E+00
(PID.TID 0000.0001) %MON seaice_hsalt_sd              =   0.0000000000000E+00
(PID.TID 0000.0001) %MON seaice_hsalt_del2            =   0.0000000000000E+00
(PID.TID 0000.0001) // =======================================================
(PID.TID 0000.0001) // End MONITOR SEAICE statistics
(PID.TID 0000.0001) // =======================================================
(PID.TID 0000.0001)  MDS_READ_FIELD: opening global file: SSS_monthly.labsea1979
(PID.TID 0000.0001)  MDS_READ_FIELD: opening global file: SSS_monthly.labsea1979
(PID.TID 0000.0001)  MDS_READ_FIELD: opening global file: u10m.labsea1979
(PID.TID 0000.0001)  MDS_READ_FIELD: opening global file: u10m.labsea1979
(PID.TID 0000.0001)  MDS_READ_FIELD: opening global file: v10m.labsea1979
(PID.TID 0000.0001)  MDS_READ_FIELD: opening global file: v10m.labsea1979
(PID.TID 0000.0001)  MDS_READ_FIELD: opening global file: tair.labsea1979
(PID.TID 0000.0001)  MDS_READ_FIELD: opening global file: tair.labsea1979
(PID.TID 0000.0001)  MDS_READ_FIELD: opening global file: qa.labsea1979
(PID.TID 0000.0001)  MDS_READ_FIELD: opening global file: qa.labsea1979
(PID.TID 0000.0001)  MDS_READ_FIELD: opening global file: prate.labsea1979
(PID.TID 0000.0001)  MDS_READ_FIELD: opening global file: prate.labsea1979
(PID.TID 0000.0001)  MDS_READ_FIELD: opening global file: fsh.labsea1979
(PID.TID 0000.0001)  MDS_READ_FIELD: opening global file: fsh.labsea1979
(PID.TID 0000.0001)  MDS_READ_FIELD: opening global file: flo.labsea1979
(PID.TID 0000.0001)  MDS_READ_FIELD: opening global file: flo.labsea1979
(PID.TID 0000.0001) // =======================================================
(PID.TID 0000.0001) // Begin MONITOR EXF statistics
(PID.TID 0000.0001) // =======================================================
(PID.TID 0000.0001) %MON exf_tsnumber                 =                     1
(PID.TID 0000.0001) %MON exf_time_sec                 =   3.6000000000000E+03
(PID.TID 0000.0001) %MON exf_ustress_max              =   3.4554588519574E-02
(PID.TID 0000.0001) %MON exf_ustress_min              =   3.8356800698698E-03
(PID.TID 0000.0001) %MON exf_ustress_mean             =   1.8072313652040E-02
(PID.TID 0000.0001) %MON exf_ustress_sd               =   9.7531065507103E-03
(PID.TID 0000.0001) %MON exf_ustress_del2             =   3.7734351715846E-03
(PID.TID 0000.0001) %MON exf_vstress_max              =   6.9121459928481E-03
(PID.TID 0000.0001) %MON exf_vstress_min              =  -1.4660780016780E-02
(PID.TID 0000.0001) %MON exf_vstress_mean             =  -1.4432818808114E-03
(PID.TID 0000.0001) %MON exf_vstress_sd               =   5.4528050992260E-03
(PID.TID 0000.0001) %MON exf_vstress_del2             =   2.5561955466816E-03
(PID.TID 0000.0001) %MON exf_hflux_max                =   3.0362646171636E+02
(PID.TID 0000.0001) %MON exf_hflux_min                =   1.3268131574981E+00
(PID.TID 0000.0001) %MON exf_hflux_mean               =   1.3229950725007E+02
(PID.TID 0000.0001) %MON exf_hflux_sd                 =   1.0762700753292E+02
(PID.TID 0000.0001) %MON exf_hflux_del2               =   5.2152892413246E+01
(PID.TID 0000.0001) %MON exf_sflux_max                =   8.7747402288381E-09
(PID.TID 0000.0001) %MON exf_sflux_min                =  -5.9136159436657E-08
(PID.TID 0000.0001) %MON exf_sflux_mean               =  -2.1077571397702E-08
(PID.TID 0000.0001) %MON exf_sflux_sd                 =   2.1978423436831E-08
(PID.TID 0000.0001) %MON exf_sflux_del2               =   1.0219271644562E-08
(PID.TID 0000.0001) %MON exf_uwind_max                =   5.3640566334698E+00
(PID.TID 0000.0001) %MON exf_uwind_min                =   6.3865461579112E-01
(PID.TID 0000.0001) %MON exf_uwind_mean               =   3.0593522879030E+00
(PID.TID 0000.0001) %MON exf_uwind_sd                 =   1.4744357247427E+00
(PID.TID 0000.0001) %MON exf_uwind_del2               =   6.6854863735304E-01
(PID.TID 0000.0001) %MON exf_vwind_max                =   1.1557415265366E+00
(PID.TID 0000.0001) %MON exf_vwind_min                =  -2.2527607663896E+00
(PID.TID 0000.0001) %MON exf_vwind_mean               =  -2.5890197254668E-01
(PID.TID 0000.0001) %MON exf_vwind_sd                 =   8.9221997055781E-01
(PID.TID 0000.0001) %MON exf_vwind_del2               =   4.2226318477784E-01
(PID.TID 0000.0001) %MON exf_wspeed_max               =   5.3997777055552E+00
(PID.TID 0000.0001) %MON exf_wspeed_min               =   1.2176369740234E+00
(PID.TID 0000.0001) %MON exf_wspeed_mean              =   3.2204871040818E+00
(PID.TID 0000.0001) %MON exf_wspeed_sd                =   1.4230764728530E+00
(PID.TID 0000.0001) %MON exf_wspeed_del2              =   6.6592933088780E-01
(PID.TID 0000.0001) %MON exf_atemp_max                =   2.7815616290817E+02
(PID.TID 0000.0001) %MON exf_atemp_min                =   2.5102028856121E+02
(PID.TID 0000.0001) %MON exf_atemp_mean               =   2.6468954453896E+02
(PID.TID 0000.0001) %MON exf_atemp_sd                 =   9.4965604037859E+00
(PID.TID 0000.0001) %MON exf_atemp_del2               =   4.4705204619532E+00
(PID.TID 0000.0001) %MON exf_aqh_max                  =   4.9654881163281E-03
(PID.TID 0000.0001) %MON exf_aqh_min                  =   8.9437011651608E-04
(PID.TID 0000.0001) %MON exf_aqh_mean                 =   2.4683072174559E-03
(PID.TID 0000.0001) %MON exf_aqh_sd                   =   1.2817638144819E-03
(PID.TID 0000.0001) %MON exf_aqh_del2                 =   6.0168649038606E-04
(PID.TID 0000.0001) %MON exf_lwflux_max               =   1.3449471393860E+02
(PID.TID 0000.0001) %MON exf_lwflux_min               =   4.4271987066288E+01
(PID.TID 0000.0001) %MON exf_lwflux_mean              =   8.5110398692790E+01
(PID.TID 0000.0001) %MON exf_lwflux_sd                =   3.4375095691549E+01
(PID.TID 0000.0001) %MON exf_lwflux_del2              =   1.8013279766566E+01
(PID.TID 0000.0001) %MON exf_evap_max                 =   2.7552449701852E-08
(PID.TID 0000.0001) %MON exf_evap_min                 =  -1.6584688021880E-09
(PID.TID 0000.0001) %MON exf_evap_mean                =   1.0965046292413E-08
(PID.TID 0000.0001) %MON exf_evap_sd                  =   8.4900346745238E-09
(PID.TID 0000.0001) %MON exf_evap_del2                =   3.8913360557134E-09
(PID.TID 0000.0001) %MON exf_precip_max               =   5.9505298888682E-08
(PID.TID 0000.0001) %MON exf_precip_min               =   7.5144464615546E-09
(PID.TID 0000.0001) %MON exf_precip_mean              =   3.2042617690116E-08
(PID.TID 0000.0001) %MON exf_precip_sd                =   1.5074039568965E-08
(PID.TID 0000.0001) %MON exf_precip_del2              =   6.8495776502888E-09
(PID.TID 0000.0001) %MON exf_swflux_max               =  -2.6185689464163E+01
(PID.TID 0000.0001) %MON exf_swflux_min               =  -4.3130298511318E+01
(PID.TID 0000.0001) %MON exf_swflux_mean              =  -3.4027948904558E+01
(PID.TID 0000.0001) %MON exf_swflux_sd                =   5.3576873070070E+00
(PID.TID 0000.0001) %MON exf_swflux_del2              =   3.0946535536001E+00
(PID.TID 0000.0001) %MON exf_swdown_max               =   4.7922553901464E+01
(PID.TID 0000.0001) %MON exf_swdown_min               =   2.9095210515736E+01
(PID.TID 0000.0001) %MON exf_swdown_mean              =   3.7808832116175E+01
(PID.TID 0000.0001) %MON exf_swdown_sd                =   5.9529858966744E+00
(PID.TID 0000.0001) %MON exf_swdown_del2              =   3.4385039484445E+00
(PID.TID 0000.0001) %MON exf_lwdown_max               =   2.8604370784238E+02
(PID.TID 0000.0001) %MON exf_lwdown_min               =   1.7405251877165E+02
(PID.TID 0000.0001) %MON exf_lwdown_mean              =   2.2899297247569E+02
(PID.TID 0000.0001) %MON exf_lwdown_sd                =   3.6582083444799E+01
(PID.TID 0000.0001) %MON exf_lwdown_del2              =   2.5135762164677E+01
(PID.TID 0000.0001) %MON exf_climsss_max              =   3.4649188078166E+01
(PID.TID 0000.0001) %MON exf_climsss_min              =   2.5629877580320E+01
(PID.TID 0000.0001) %MON exf_climsss_mean             =   3.1807854529883E+01
(PID.TID 0000.0001) %MON exf_climsss_sd               =   2.3421795715802E+00
(PID.TID 0000.0001) %MON exf_climsss_del2             =   9.6893040172876E-01
(PID.TID 0000.0001) // =======================================================
(PID.TID 0000.0001) // End MONITOR EXF statistics
(PID.TID 0000.0001) // =======================================================
(PID.TID 0000.0001)  MDS_READ_SEC_XZ: opening global file: OBNu.seaice_obcs
(PID.TID 0000.0001)  MDS_READ_SEC_XZ: opening global file: OBNv.seaice_obcs
(PID.TID 0000.0001)  MDS_READ_SEC_XZ: opening global file: OBNt.seaice_obcs
(PID.TID 0000.0001)  MDS_READ_SEC_XZ: opening global file: OBNs.seaice_obcs
(PID.TID 0000.0001)  MDS_READ_SEC_XZ: opening global file: OBNa.seaice_obcs
(PID.TID 0000.0001)  MDS_READ_SEC_XZ: opening global file: OBNh.seaice_obcs
(PID.TID 0000.0001)  MDS_READ_SEC_XZ: opening global file: OBNsl.seaice_obcs
(PID.TID 0000.0001)  MDS_READ_SEC_XZ: opening global file: OBNsn.seaice_obcs
(PID.TID 0000.0001)  MDS_READ_SEC_XZ: opening global file: OBNuice.seaice_obcs
(PID.TID 0000.0001)  MDS_READ_SEC_XZ: opening global file: OBNvice.seaice_obcs
(PID.TID 0000.0001)  MDS_READ_SEC_XZ: opening global file: OBSu.seaice_obcs
(PID.TID 0000.0001)  MDS_READ_SEC_XZ: opening global file: OBSv.seaice_obcs
(PID.TID 0000.0001)  MDS_READ_SEC_XZ: opening global file: OBSt.seaice_obcs
(PID.TID 0000.0001)  MDS_READ_SEC_XZ: opening global file: OBSs.seaice_obcs
(PID.TID 0000.0001)  MDS_READ_SEC_XZ: opening global file: OBSa.seaice_obcs
(PID.TID 0000.0001)  MDS_READ_SEC_XZ: opening global file: OBSh.seaice_obcs
(PID.TID 0000.0001)  MDS_READ_SEC_XZ: opening global file: OBSsl.seaice_obcs
(PID.TID 0000.0001)  MDS_READ_SEC_XZ: opening global file: OBSsn.seaice_obcs
(PID.TID 0000.0001)  MDS_READ_SEC_XZ: opening global file: OBSuice.seaice_obcs
(PID.TID 0000.0001)  MDS_READ_SEC_XZ: opening global file: OBSvice.seaice_obcs
(PID.TID 0000.0001)  MDS_READ_SEC_YZ: opening global file: OBEu.seaice_obcs
(PID.TID 0000.0001)  MDS_READ_SEC_YZ: opening global file: OBEv.seaice_obcs
(PID.TID 0000.0001)  MDS_READ_SEC_YZ: opening global file: OBEt.seaice_obcs
(PID.TID 0000.0001)  MDS_READ_SEC_YZ: opening global file: OBEs.seaice_obcs
(PID.TID 0000.0001)  MDS_READ_SEC_YZ: opening global file: OBEa.seaice_obcs
(PID.TID 0000.0001)  MDS_READ_SEC_YZ: opening global file: OBEh.seaice_obcs
(PID.TID 0000.0001)  MDS_READ_SEC_YZ: opening global file: OBEsl.seaice_obcs
(PID.TID 0000.0001)  MDS_READ_SEC_YZ: opening global file: OBEsn.seaice_obcs
(PID.TID 0000.0001)  MDS_READ_SEC_YZ: opening global file: OBEuice.seaice_obcs
(PID.TID 0000.0001)  MDS_READ_SEC_YZ: opening global file: OBEvice.seaice_obcs
(PID.TID 0000.0001)  MDS_READ_SEC_YZ: opening global file: OBWu.seaice_obcs
(PID.TID 0000.0001)  MDS_READ_SEC_YZ: opening global file: OBWv.seaice_obcs
(PID.TID 0000.0001)  MDS_READ_SEC_YZ: opening global file: OBWt.seaice_obcs
(PID.TID 0000.0001)  MDS_READ_SEC_YZ: opening global file: OBWs.seaice_obcs
(PID.TID 0000.0001)  MDS_READ_SEC_YZ: opening global file: OBWa.seaice_obcs
(PID.TID 0000.0001)  MDS_READ_SEC_YZ: opening global file: OBWh.seaice_obcs
(PID.TID 0000.0001)  MDS_READ_SEC_YZ: opening global file: OBWsl.seaice_obcs
(PID.TID 0000.0001)  MDS_READ_SEC_YZ: opening global file: OBWsn.seaice_obcs
(PID.TID 0000.0001)  MDS_READ_SEC_YZ: opening global file: OBWuice.seaice_obcs
(PID.TID 0000.0001)  MDS_READ_SEC_YZ: opening global file: OBWvice.seaice_obcs
 SEAICE_LSR: Residual Initial ipass,Uice,Vice=         1  3.18030483E-02  2.74113300E-02
 SEAICE_LSR: Residual FrDrift U_fd,V_fd=  1.56175702E-02  4.57426643E-03
 SEAICE_LSR (ipass=        1) iters,dU,Resid=       24  1.16628929E-13  1.34950564E-14
 SEAICE_LSR (ipass=        1) iters,dV,Resid=       18  1.29993238E-13  1.89355318E-14
 SEAICE_LSR: Residual Initial ipass,Uice,Vice=         2  1.12828270E-02  1.07635117E-02
 SEAICE_LSR: Residual FrDrift U_fd,V_fd=  1.79936972E-02  9.00318232E-03
 SEAICE_LSR (ipass=        2) iters,dU,Resid=       26  1.69166764E-13  2.11794301E-14
 SEAICE_LSR (ipass=        2) iters,dV,Resid=       18  4.59868255E-13  8.61026077E-14
(PID.TID 0000.0001) SOLVE_FOR_PRESSURE: putPmEinXvector =    F
 cg2d: Sum(rhs),rhsMax =  -1.63439784224242E+00  3.03949509463576E+00
(PID.TID 0000.0001)      cg2d_init_res =   1.25155774660617E+00
(PID.TID 0000.0001)      cg2d_iters(min,last) =      -1      25
(PID.TID 0000.0001)      cg2d_last_res =   1.60813123952861E-13
(PID.TID 0000.0001) // =======================================================
(PID.TID 0000.0001) // Begin MONITOR dynamic field statistics
(PID.TID 0000.0001) // =======================================================
(PID.TID 0000.0001) %MON time_tsnumber                =                     2
(PID.TID 0000.0001) %MON time_secondsf                =   7.2000000000000E+03
(PID.TID 0000.0001) %MON dynstat_eta_max              =   1.0614581081035E+00
(PID.TID 0000.0001) %MON dynstat_eta_min              =  -3.7172293561003E-01
(PID.TID 0000.0001) %MON dynstat_eta_mean             =   2.8084820192451E-01
(PID.TID 0000.0001) %MON dynstat_eta_sd               =   3.0856874858435E-01
(PID.TID 0000.0001) %MON dynstat_eta_del2             =   1.3968195548700E-02
(PID.TID 0000.0001) %MON dynstat_uvel_max             =   2.0965545727415E-02
(PID.TID 0000.0001) %MON dynstat_uvel_min             =  -1.1382320447848E-01
(PID.TID 0000.0001) %MON dynstat_uvel_mean            =  -2.8640312335547E-02
(PID.TID 0000.0001) %MON dynstat_uvel_sd              =   1.2853344640512E-02
(PID.TID 0000.0001) %MON dynstat_uvel_del2            =   9.4907292922978E-04
(PID.TID 0000.0001) %MON dynstat_vvel_max             =   1.1324475944236E-01
(PID.TID 0000.0001) %MON dynstat_vvel_min             =  -6.7689232368576E-02
(PID.TID 0000.0001) %MON dynstat_vvel_mean            =   2.6220213694195E-02
(PID.TID 0000.0001) %MON dynstat_vvel_sd              =   1.8553304415935E-02
(PID.TID 0000.0001) %MON dynstat_vvel_del2            =   1.1573164570761E-03
(PID.TID 0000.0001) %MON dynstat_wvel_max             =   3.2070866741279E-04
(PID.TID 0000.0001) %MON dynstat_wvel_min             =  -1.0409224432295E-04
(PID.TID 0000.0001) %MON dynstat_wvel_mean            =   1.0003730969349E-04
(PID.TID 0000.0001) %MON dynstat_wvel_sd              =   6.5373117296519E-05
(PID.TID 0000.0001) %MON dynstat_wvel_del2            =   5.5455334527226E-06
(PID.TID 0000.0001) %MON dynstat_theta_max            =   6.0040259625910E+00
(PID.TID 0000.0001) %MON dynstat_theta_min            =  -1.8173544493699E+00
(PID.TID 0000.0001) %MON dynstat_theta_mean           =   3.1876498779102E+00
(PID.TID 0000.0001) %MON dynstat_theta_sd             =   7.9742596937266E-01
(PID.TID 0000.0001) %MON dynstat_theta_del2           =   4.3004669127795E-02
(PID.TID 0000.0001) %MON dynstat_salt_max             =   3.4939863090982E+01
(PID.TID 0000.0001) %MON dynstat_salt_min             =   3.2482934412657E+01
(PID.TID 0000.0001) %MON dynstat_salt_mean            =   3.4812453033327E+01
(PID.TID 0000.0001) %MON dynstat_salt_sd              =   3.1496525189312E-01
(PID.TID 0000.0001) %MON dynstat_salt_del2            =   9.5351947641465E-03
(PID.TID 0000.0001) %MON forcing_qnet_max             =   3.0362527598157E+02
(PID.TID 0000.0001) %MON forcing_qnet_min             =   1.3268131574981E+00
(PID.TID 0000.0001) %MON forcing_qnet_mean            =   8.3293629281018E+01
(PID.TID 0000.0001) %MON forcing_qnet_sd              =   1.0018675007779E+02
(PID.TID 0000.0001) %MON forcing_qnet_del2            =   4.0759109985352E+01
(PID.TID 0000.0001) %MON forcing_qsw_max              =  -2.1840537000895E-03
(PID.TID 0000.0001) %MON forcing_qsw_min              =  -4.3130298511318E+01
(PID.TID 0000.0001) %MON forcing_qsw_mean             =  -2.3851313322276E+01
(PID.TID 0000.0001) %MON forcing_qsw_sd               =   1.5659639027852E+01
(PID.TID 0000.0001) %MON forcing_qsw_del2             =   2.4958504556944E+00
(PID.TID 0000.0001) %MON forcing_empmr_max            =   5.5808108895611E-04
(PID.TID 0000.0001) %MON forcing_empmr_min            =  -9.3703732247181E-05
(PID.TID 0000.0001) %MON forcing_empmr_mean           =   2.5391727063317E-05
(PID.TID 0000.0001) %MON forcing_empmr_sd             =   1.2494745178884E-04
(PID.TID 0000.0001) %MON forcing_empmr_del2           =   6.1079712606029E-05
(PID.TID 0000.0001) %MON forcing_fu_max               =   3.7144953292941E-02
(PID.TID 0000.0001) %MON forcing_fu_min               =   6.5246060242657E-03
(PID.TID 0000.0001) %MON forcing_fu_mean              =   2.1338351143926E-02
(PID.TID 0000.0001) %MON forcing_fu_sd                =   8.9958749161909E-03
(PID.TID 0000.0001) %MON forcing_fu_del2              =   3.5726898855128E-03
(PID.TID 0000.0001) %MON forcing_fv_max               =   6.2015324782159E-04
(PID.TID 0000.0001) %MON forcing_fv_min               =  -3.8222664031567E-02
(PID.TID 0000.0001) %MON forcing_fv_mean              =  -7.7820704796873E-03
(PID.TID 0000.0001) %MON forcing_fv_sd                =   1.1021220176216E-02
(PID.TID 0000.0001) %MON forcing_fv_del2              =   9.1673680505218E-04
(PID.TID 0000.0001) %MON trAdv_CFL_u_max              =   3.4813754909450E-03
(PID.TID 0000.0001) %MON trAdv_CFL_v_max              =   1.7797473848194E-03
(PID.TID 0000.0001) %MON trAdv_CFL_w_max              =   1.1545512026860E-01
(PID.TID 0000.0001) %MON advcfl_uvel_max              =   3.4811987457004E-03
(PID.TID 0000.0001) %MON advcfl_vvel_max              =   1.8331822606245E-03
(PID.TID 0000.0001) %MON advcfl_wvel_max              =   2.3091024053721E-01
(PID.TID 0000.0001) %MON advcfl_W_hf_max              =   1.1539288417643E-01
(PID.TID 0000.0001) %MON pe_b_mean                    =   5.0040357268742E-04
(PID.TID 0000.0001) %MON ke_max                       =   5.8720743953184E-03
(PID.TID 0000.0001) %MON ke_mean                      =   7.0802648884580E-04
(PID.TID 0000.0001) %MON ke_vol                       =   2.0812333426156E+15
(PID.TID 0000.0001) %MON vort_r_min                   =  -1.1377577032136E-06
(PID.TID 0000.0001) %MON vort_r_max                   =   9.1930035580725E-07
(PID.TID 0000.0001) %MON vort_a_mean                  =   1.1459483391254E-04
(PID.TID 0000.0001) %MON vort_a_sd                    =   5.2243965734657E-06
(PID.TID 0000.0001) %MON vort_p_mean                  =   1.7066085793175E-04
(PID.TID 0000.0001) %MON vort_p_sd                    =   1.1050682545382E-04
(PID.TID 0000.0001) %MON surfExpan_theta_mean         =   1.9201756405689E-04
(PID.TID 0000.0001) %MON surfExpan_salt_mean          =   3.0184403197754E-03
(PID.TID 0000.0001) // =======================================================
(PID.TID 0000.0001) // End MONITOR dynamic field statistics
(PID.TID 0000.0001) // =======================================================
(PID.TID 0000.0001) // =======================================================
(PID.TID 0000.0001) // Begin OBCS MONITOR field statistics
(PID.TID 0000.0001) // =======================================================
(PID.TID 0000.0001) %MON obc_E_uVel_max               =  -2.8916874076474E-02
(PID.TID 0000.0001) %MON obc_E_uVel_min               =  -5.2402525948823E-02
(PID.TID 0000.0001) %MON obc_E_uVel_mean              =  -4.2508811156110E-02
(PID.TID 0000.0001) %MON obc_E_uVel_sd                =   2.5937119443455E-03
(PID.TID 0000.0001) %MON obc_E_uVel_Int               =  -8.7776010047322E+07
(PID.TID 0000.0001) %MON obc_W_uVel_max               =  -9.3814868259777E-02
(PID.TID 0000.0001) %MON obc_W_uVel_min               =  -1.1382320447848E-01
(PID.TID 0000.0001) %MON obc_W_uVel_mean              =  -9.9178555479672E-02
(PID.TID 0000.0001) %MON obc_W_uVel_sd                =   3.6273727758365E-03
(PID.TID 0000.0001) %MON obc_W_uVel_Int               =  -1.1469278289326E+07
(PID.TID 0000.0001) %MON obc_N_vVel_max               =   1.1324475944236E-01
(PID.TID 0000.0001) %MON obc_N_vVel_min               =   6.5922364321926E-02
(PID.TID 0000.0001) %MON obc_N_vVel_mean              =   9.9103985924673E-02
(PID.TID 0000.0001) %MON obc_N_vVel_sd                =   9.4080342398520E-03
(PID.TID 0000.0001) %MON obc_N_vVel_Int               =   1.3003435325191E+07
(PID.TID 0000.0001) %MON obc_S_vVel_max               =   5.7234065879888E-02
(PID.TID 0000.0001) %MON obc_S_vVel_min               =  -4.7360719686003E-04
(PID.TID 0000.0001) %MON obc_S_vVel_mean              =   5.2462703380910E-02
(PID.TID 0000.0001) %MON obc_S_vVel_sd                =   6.1781615450790E-03
(PID.TID 0000.0001) %MON obc_S_vVel_Int               =   4.5631111209888E+07
(PID.TID 0000.0001) // =======================================================
(PID.TID 0000.0001) // End OBCS MONITOR field statistics
(PID.TID 0000.0001) // =======================================================
(PID.TID 0000.0001) // =======================================================
(PID.TID 0000.0001) // Begin MONITOR SEAICE statistics
(PID.TID 0000.0001) // =======================================================
(PID.TID 0000.0001) %MON seaice_tsnumber              =                     2
(PID.TID 0000.0001) %MON seaice_time_sec              =   7.2000000000000E+03
(PID.TID 0000.0001) %MON seaice_uice_max              =   1.3359228957787E-01
(PID.TID 0000.0001) %MON seaice_uice_min              =  -7.3754148227982E-02
(PID.TID 0000.0001) %MON seaice_uice_mean             =   5.6744016519506E-02
(PID.TID 0000.0001) %MON seaice_uice_sd               =   4.3387736303779E-02
(PID.TID 0000.0001) %MON seaice_uice_del2             =   1.2408991868270E-02
(PID.TID 0000.0001) %MON seaice_vice_max              =   1.8422816696306E-02
(PID.TID 0000.0001) %MON seaice_vice_min              =  -1.2560403565466E-01
(PID.TID 0000.0001) %MON seaice_vice_mean             =  -4.9776264889019E-02
(PID.TID 0000.0001) %MON seaice_vice_sd               =   4.3163863047320E-02
(PID.TID 0000.0001) %MON seaice_vice_del2             =   3.3658545692615E-03
(PID.TID 0000.0001) %MON seaice_area_max              =   9.9925803892193E-01
(PID.TID 0000.0001) %MON seaice_area_min              =   0.0000000000000E+00
(PID.TID 0000.0001) %MON seaice_area_mean             =   3.3471591174355E-01
(PID.TID 0000.0001) %MON seaice_area_sd               =   4.1328992420255E-01
(PID.TID 0000.0001) %MON seaice_area_del2             =   7.1615582584719E-02
(PID.TID 0000.0001) %MON seaice_heff_max              =   4.6435795567864E-01
(PID.TID 0000.0001) %MON seaice_heff_min              =   0.0000000000000E+00
(PID.TID 0000.0001) %MON seaice_heff_mean             =   7.8015669386648E-02
(PID.TID 0000.0001) %MON seaice_heff_sd               =   1.1775421904371E-01
(PID.TID 0000.0001) %MON seaice_heff_del2             =   1.4092059301239E-02
(PID.TID 0000.0001) %MON seaice_hsnow_max             =   8.1495652182315E-02
(PID.TID 0000.0001) %MON seaice_hsnow_min             =   0.0000000000000E+00
(PID.TID 0000.0001) %MON seaice_hsnow_mean            =   1.6993194090037E-02
(PID.TID 0000.0001) %MON seaice_hsnow_sd              =   2.4573454382259E-02
(PID.TID 0000.0001) %MON seaice_hsnow_del2            =   4.2178435798815E-03
(PID.TID 0000.0001) %MON seaice_hsalt_max             =   1.9985079243879E+01
(PID.TID 0000.0001) %MON seaice_hsalt_min             =   0.0000000000000E+00
(PID.TID 0000.0001) %MON seaice_hsalt_mean            =   1.8003976609848E+00
(PID.TID 0000.0001) %MON seaice_hsalt_sd              =   3.9686082255468E+00
(PID.TID 0000.0001) %MON seaice_hsalt_del2            =   1.9082708763625E+00
(PID.TID 0000.0001) // =======================================================
(PID.TID 0000.0001) // End MONITOR SEAICE statistics
(PID.TID 0000.0001) // =======================================================
(PID.TID 0000.0001) // =======================================================
(PID.TID 0000.0001) // Begin MONITOR EXF statistics
(PID.TID 0000.0001) // =======================================================
(PID.TID 0000.0001) %MON exf_tsnumber                 =                     2
(PID.TID 0000.0001) %MON exf_time_sec                 =   7.2000000000000E+03
(PID.TID 0000.0001) %MON exf_ustress_max              =   3.4510808892745E-02
(PID.TID 0000.0001) %MON exf_ustress_min              =   3.8374713927818E-03
(PID.TID 0000.0001) %MON exf_ustress_mean             =   1.8068953241787E-02
(PID.TID 0000.0001) %MON exf_ustress_sd               =   9.7437351130734E-03
(PID.TID 0000.0001) %MON exf_ustress_del2             =   3.7669321779804E-03
(PID.TID 0000.0001) %MON exf_vstress_max              =   6.9085098650802E-03
(PID.TID 0000.0001) %MON exf_vstress_min              =  -1.4695956403051E-02
(PID.TID 0000.0001) %MON exf_vstress_mean             =  -1.4516101423650E-03
(PID.TID 0000.0001) %MON exf_vstress_sd               =   5.4597527335171E-03
(PID.TID 0000.0001) %MON exf_vstress_del2             =   2.5590913839474E-03
(PID.TID 0000.0001) %MON exf_hflux_max                =   3.0376552968050E+02
(PID.TID 0000.0001) %MON exf_hflux_min                =   1.4861371324943E+00
(PID.TID 0000.0001) %MON exf_hflux_mean               =   1.3238864682418E+02
(PID.TID 0000.0001) %MON exf_hflux_sd                 =   1.0763327426696E+02
(PID.TID 0000.0001) %MON exf_hflux_del2               =   5.2152484952588E+01
(PID.TID 0000.0001) %MON exf_sflux_max                =   8.7995049638978E-09
(PID.TID 0000.0001) %MON exf_sflux_min                =  -5.9108323213909E-08
(PID.TID 0000.0001) %MON exf_sflux_mean               =  -2.1069742376890E-08
(PID.TID 0000.0001) %MON exf_sflux_sd                 =   2.1982970013546E-08
(PID.TID 0000.0001) %MON exf_sflux_del2               =   1.0222228214819E-08
(PID.TID 0000.0001) %MON exf_uwind_max                =   5.3615644903131E+00
(PID.TID 0000.0001) %MON exf_uwind_min                =   6.3893064123685E-01
(PID.TID 0000.0001) %MON exf_uwind_mean               =   3.0586159036305E+00
(PID.TID 0000.0001) %MON exf_uwind_sd                 =   1.4730978258026E+00
(PID.TID 0000.0001) %MON exf_uwind_del2               =   6.1114036230914E-01
(PID.TID 0000.0001) %MON exf_vwind_max                =   1.1549970484822E+00
(PID.TID 0000.0001) %MON exf_vwind_min                =  -2.2573392062239E+00
(PID.TID 0000.0001) %MON exf_vwind_mean               =  -2.6028857469217E-01
(PID.TID 0000.0001) %MON exf_vwind_sd                 =   8.9327979366818E-01
(PID.TID 0000.0001) %MON exf_vwind_del2               =   4.2083017831403E-01
(PID.TID 0000.0001) %MON exf_wspeed_max               =   5.3971606819623E+00
(PID.TID 0000.0001) %MON exf_wspeed_min               =   1.2178056508362E+00
(PID.TID 0000.0001) %MON exf_wspeed_mean              =   3.2200724643846E+00
(PID.TID 0000.0001) %MON exf_wspeed_sd                =   1.4219636796798E+00
(PID.TID 0000.0001) %MON exf_wspeed_del2              =   6.6518589258455E-01
(PID.TID 0000.0001) %MON exf_atemp_max                =   2.7814940772552E+02
(PID.TID 0000.0001) %MON exf_atemp_min                =   2.5101112765953E+02
(PID.TID 0000.0001) %MON exf_atemp_mean               =   2.6468499484741E+02
(PID.TID 0000.0001) %MON exf_atemp_sd                 =   9.4989407989185E+00
(PID.TID 0000.0001) %MON exf_atemp_del2               =   4.4721497673665E+00
(PID.TID 0000.0001) %MON exf_aqh_max                  =   4.9631067404086E-03
(PID.TID 0000.0001) %MON exf_aqh_min                  =   8.9372847040942E-04
(PID.TID 0000.0001) %MON exf_aqh_mean                 =   2.4676404033270E-03
(PID.TID 0000.0001) %MON exf_aqh_sd                   =   1.2816313122703E-03
(PID.TID 0000.0001) %MON exf_aqh_del2                 =   6.0172866595941E-04
(PID.TID 0000.0001) %MON exf_lwflux_max               =   1.3449199697401E+02
(PID.TID 0000.0001) %MON exf_lwflux_min               =   4.4284846924702E+01
(PID.TID 0000.0001) %MON exf_lwflux_mean              =   8.5125120373975E+01
(PID.TID 0000.0001) %MON exf_lwflux_sd                =   3.4362139800056E+01
(PID.TID 0000.0001) %MON exf_lwflux_del2              =   1.8005551299949E+01
(PID.TID 0000.0001) %MON exf_evap_max                 =   2.7573495733098E-08
(PID.TID 0000.0001) %MON exf_evap_min                 =  -1.6481873767941E-09
(PID.TID 0000.0001) %MON exf_evap_mean                =   1.0968140919940E-08
(PID.TID 0000.0001) %MON exf_evap_sd                  =   8.4874519256141E-09
(PID.TID 0000.0001) %MON exf_evap_del2                =   3.8898892923056E-09
(PID.TID 0000.0001) %MON exf_precip_max               =   5.9498460337099E-08
(PID.TID 0000.0001) %MON exf_precip_min               =   7.5018961194897E-09
(PID.TID 0000.0001) %MON exf_precip_mean              =   3.2037883296831E-08
(PID.TID 0000.0001) %MON exf_precip_sd                =   1.5080499849368E-08
(PID.TID 0000.0001) %MON exf_precip_del2              =   6.8532700849896E-09
(PID.TID 0000.0001) %MON exf_swflux_max               =  -2.6155839663646E+01
(PID.TID 0000.0001) %MON exf_swflux_min               =  -4.3085196097952E+01
(PID.TID 0000.0001) %MON exf_swflux_mean              =  -3.3990532156621E+01
(PID.TID 0000.0001) %MON exf_swflux_sd                =   5.3553284830339E+00
(PID.TID 0000.0001) %MON exf_swflux_del2              =   3.0909436178235E+00
(PID.TID 0000.0001) %MON exf_swdown_max               =   4.7872440108836E+01
(PID.TID 0000.0001) %MON exf_swdown_min               =   2.9062044070718E+01
(PID.TID 0000.0001) %MON exf_swdown_mean              =   3.7767257951801E+01
(PID.TID 0000.0001) %MON exf_swdown_sd                =   5.9503649811487E+00
(PID.TID 0000.0001) %MON exf_swdown_del2              =   3.4343817975816E+00
(PID.TID 0000.0001) %MON exf_lwdown_max               =   2.8600321768672E+02
(PID.TID 0000.0001) %MON exf_lwdown_min               =   1.7400586304378E+02
(PID.TID 0000.0001) %MON exf_lwdown_mean              =   2.2897080402310E+02
(PID.TID 0000.0001) %MON exf_lwdown_sd                =   3.6582950086733E+01
(PID.TID 0000.0001) %MON exf_lwdown_del2              =   2.5135483095814E+01
(PID.TID 0000.0001) %MON exf_climsss_max              =   3.4649732662680E+01
(PID.TID 0000.0001) %MON exf_climsss_min              =   2.5633690860102E+01
(PID.TID 0000.0001) %MON exf_climsss_mean             =   3.1809148227269E+01
(PID.TID 0000.0001) %MON exf_climsss_sd               =   2.3421186631058E+00
(PID.TID 0000.0001) %MON exf_climsss_del2             =   9.6911334031996E-01
(PID.TID 0000.0001) // =======================================================
(PID.TID 0000.0001) // End MONITOR EXF statistics
(PID.TID 0000.0001) // =======================================================
(PID.TID 0000.0001)  MDS_READ_SEC_XZ: opening global file: OBNu.seaice_obcs
(PID.TID 0000.0001)  MDS_READ_SEC_XZ: opening global file: OBNv.seaice_obcs
(PID.TID 0000.0001)  MDS_READ_SEC_XZ: opening global file: OBNt.seaice_obcs
(PID.TID 0000.0001)  MDS_READ_SEC_XZ: opening global file: OBNs.seaice_obcs
(PID.TID 0000.0001)  MDS_READ_SEC_XZ: opening global file: OBNa.seaice_obcs
(PID.TID 0000.0001)  MDS_READ_SEC_XZ: opening global file: OBNh.seaice_obcs
(PID.TID 0000.0001)  MDS_READ_SEC_XZ: opening global file: OBNsl.seaice_obcs
(PID.TID 0000.0001)  MDS_READ_SEC_XZ: opening global file: OBNsn.seaice_obcs
(PID.TID 0000.0001)  MDS_READ_SEC_XZ: opening global file: OBNuice.seaice_obcs
(PID.TID 0000.0001)  MDS_READ_SEC_XZ: opening global file: OBNvice.seaice_obcs
(PID.TID 0000.0001)  MDS_READ_SEC_XZ: opening global file: OBSu.seaice_obcs
(PID.TID 0000.0001)  MDS_READ_SEC_XZ: opening global file: OBSv.seaice_obcs
(PID.TID 0000.0001)  MDS_READ_SEC_XZ: opening global file: OBSt.seaice_obcs
(PID.TID 0000.0001)  MDS_READ_SEC_XZ: opening global file: OBSs.seaice_obcs
(PID.TID 0000.0001)  MDS_READ_SEC_XZ: opening global file: OBSa.seaice_obcs
(PID.TID 0000.0001)  MDS_READ_SEC_XZ: opening global file: OBSh.seaice_obcs
(PID.TID 0000.0001)  MDS_READ_SEC_XZ: opening global file: OBSsl.seaice_obcs
(PID.TID 0000.0001)  MDS_READ_SEC_XZ: opening global file: OBSsn.seaice_obcs
(PID.TID 0000.0001)  MDS_READ_SEC_XZ: opening global file: OBSuice.seaice_obcs
(PID.TID 0000.0001)  MDS_READ_SEC_XZ: opening global file: OBSvice.seaice_obcs
(PID.TID 0000.0001)  MDS_READ_SEC_YZ: opening global file: OBEu.seaice_obcs
(PID.TID 0000.0001)  MDS_READ_SEC_YZ: opening global file: OBEv.seaice_obcs
(PID.TID 0000.0001)  MDS_READ_SEC_YZ: opening global file: OBEt.seaice_obcs
(PID.TID 0000.0001)  MDS_READ_SEC_YZ: opening global file: OBEs.seaice_obcs
(PID.TID 0000.0001)  MDS_READ_SEC_YZ: opening global file: OBEa.seaice_obcs
(PID.TID 0000.0001)  MDS_READ_SEC_YZ: opening global file: OBEh.seaice_obcs
(PID.TID 0000.0001)  MDS_READ_SEC_YZ: opening global file: OBEsl.seaice_obcs
(PID.TID 0000.0001)  MDS_READ_SEC_YZ: opening global file: OBEsn.seaice_obcs
(PID.TID 0000.0001)  MDS_READ_SEC_YZ: opening global file: OBEuice.seaice_obcs
(PID.TID 0000.0001)  MDS_READ_SEC_YZ: opening global file: OBEvice.seaice_obcs
(PID.TID 0000.0001)  MDS_READ_SEC_YZ: opening global file: OBWu.seaice_obcs
(PID.TID 0000.0001)  MDS_READ_SEC_YZ: opening global file: OBWv.seaice_obcs
(PID.TID 0000.0001)  MDS_READ_SEC_YZ: opening global file: OBWt.seaice_obcs
(PID.TID 0000.0001)  MDS_READ_SEC_YZ: opening global file: OBWs.seaice_obcs
(PID.TID 0000.0001)  MDS_READ_SEC_YZ: opening global file: OBWa.seaice_obcs
(PID.TID 0000.0001)  MDS_READ_SEC_YZ: opening global file: OBWh.seaice_obcs
(PID.TID 0000.0001)  MDS_READ_SEC_YZ: opening global file: OBWsl.seaice_obcs
(PID.TID 0000.0001)  MDS_READ_SEC_YZ: opening global file: OBWsn.seaice_obcs
(PID.TID 0000.0001)  MDS_READ_SEC_YZ: opening global file: OBWuice.seaice_obcs
(PID.TID 0000.0001)  MDS_READ_SEC_YZ: opening global file: OBWvice.seaice_obcs
 SEAICE_LSR: Residual Initial ipass,Uice,Vice=         1  4.17803831E-02  3.23986152E-02
 SEAICE_LSR: Residual FrDrift U_fd,V_fd=  6.29352810E-02  2.95574460E-02
 SEAICE_LSR (ipass=        1) iters,dU,Resid=       24  4.96522962E-13  7.64571379E-14
 SEAICE_LSR (ipass=        1) iters,dV,Resid=       18  7.69939668E-14  2.08984707E-14
 SEAICE_LSR: Residual Initial ipass,Uice,Vice=         2  1.52057485E-02  1.73596230E-02
 SEAICE_LSR: Residual FrDrift U_fd,V_fd=  2.16798556E-02  2.08799004E-02
 SEAICE_LSR (ipass=        2) iters,dU,Resid=       26  7.00207958E-13  9.71183046E-14
 SEAICE_LSR (ipass=        2) iters,dV,Resid=       18  6.01740879E-14  4.04875525E-15
 cg2d: Sum(rhs),rhsMax =  -5.87018569512031E+00  1.19879435938386E+00
(PID.TID 0000.0001)      cg2d_init_res =   3.19762810023802E+00
(PID.TID 0000.0001)      cg2d_iters(min,last) =      -1      25
(PID.TID 0000.0001)      cg2d_last_res =   4.53634981710872E-13
(PID.TID 0000.0001) // =======================================================
(PID.TID 0000.0001) // Begin MONITOR dynamic field statistics
(PID.TID 0000.0001) // =======================================================
(PID.TID 0000.0001) %MON time_tsnumber                =                     3
(PID.TID 0000.0001) %MON time_secondsf                =   1.0800000000000E+04
(PID.TID 0000.0001) %MON dynstat_eta_max              =   7.2129225898897E-01
(PID.TID 0000.0001) %MON dynstat_eta_min              =  -3.1522390399626E-01
(PID.TID 0000.0001) %MON dynstat_eta_mean             =   3.9784046261753E-01
(PID.TID 0000.0001) %MON dynstat_eta_sd               =   2.0230508817712E-01
(PID.TID 0000.0001) %MON dynstat_eta_del2             =   1.8011117690502E-02
(PID.TID 0000.0001) %MON dynstat_uvel_max             =   6.9499419207324E-02
(PID.TID 0000.0001) %MON dynstat_uvel_min             =  -1.0508782232935E-01
(PID.TID 0000.0001) %MON dynstat_uvel_mean            =  -1.9367409662563E-02
(PID.TID 0000.0001) %MON dynstat_uvel_sd              =   1.6485168286054E-02
(PID.TID 0000.0001) %MON dynstat_uvel_del2            =   1.1020943101444E-03
(PID.TID 0000.0001) %MON dynstat_vvel_max             =   1.3461913203449E-01
(PID.TID 0000.0001) %MON dynstat_vvel_min             =  -3.9975646058878E-02
(PID.TID 0000.0001) %MON dynstat_vvel_mean            =   4.5819673013522E-02
(PID.TID 0000.0001) %MON dynstat_vvel_sd              =   2.3666460211031E-02
(PID.TID 0000.0001) %MON dynstat_vvel_del2            =   1.8740641405857E-03
(PID.TID 0000.0001) %MON dynstat_wvel_max             =   3.2473873793962E-04
(PID.TID 0000.0001) %MON dynstat_wvel_min             =  -1.9693434337464E-04
(PID.TID 0000.0001) %MON dynstat_wvel_mean            =   3.9382652489514E-05
(PID.TID 0000.0001) %MON dynstat_wvel_sd              =   8.5840598342302E-05
(PID.TID 0000.0001) %MON dynstat_wvel_del2            =   4.1971620569106E-06
(PID.TID 0000.0001) %MON dynstat_theta_max            =   6.0022607253065E+00
(PID.TID 0000.0001) %MON dynstat_theta_min            =  -1.8166651332001E+00
(PID.TID 0000.0001) %MON dynstat_theta_mean           =   3.1880553790975E+00
(PID.TID 0000.0001) %MON dynstat_theta_sd             =   7.9596029177672E-01
(PID.TID 0000.0001) %MON dynstat_theta_del2           =   4.2742264515063E-02
(PID.TID 0000.0001) %MON dynstat_salt_max             =   3.4939862848144E+01
(PID.TID 0000.0001) %MON dynstat_salt_min             =   3.2482363923926E+01
(PID.TID 0000.0001) %MON dynstat_salt_mean            =   3.4812614709164E+01
(PID.TID 0000.0001) %MON dynstat_salt_sd              =   3.1451810809394E-01
(PID.TID 0000.0001) %MON dynstat_salt_del2            =   9.4992741432001E-03
(PID.TID 0000.0001) %MON forcing_qnet_max             =   3.0376552968050E+02
(PID.TID 0000.0001) %MON forcing_qnet_min             =   1.4861371324943E+00
(PID.TID 0000.0001) %MON forcing_qnet_mean            =   8.3002665432091E+01
(PID.TID 0000.0001) %MON forcing_qnet_sd              =   1.0027026805513E+02
(PID.TID 0000.0001) %MON forcing_qnet_del2            =   4.0597436428026E+01
(PID.TID 0000.0001) %MON forcing_qsw_max              =  -3.1288580116282E-02
(PID.TID 0000.0001) %MON forcing_qsw_min              =  -4.3085196097952E+01
(PID.TID 0000.0001) %MON forcing_qsw_mean             =  -2.3821974627756E+01
(PID.TID 0000.0001) %MON forcing_qsw_sd               =   1.5643202001587E+01
(PID.TID 0000.0001) %MON forcing_qsw_del2             =   2.4856341000386E+00
(PID.TID 0000.0001) %MON forcing_empmr_max            =   5.5556731500952E-04
(PID.TID 0000.0001) %MON forcing_empmr_min            =  -8.4478549103008E-05
(PID.TID 0000.0001) %MON forcing_empmr_mean           =   2.6213665484079E-05
(PID.TID 0000.0001) %MON forcing_empmr_sd             =   1.2353143620918E-04
(PID.TID 0000.0001) %MON forcing_empmr_del2           =   5.9288314116462E-05
(PID.TID 0000.0001) %MON forcing_fu_max               =   8.3355566546617E-02
(PID.TID 0000.0001) %MON forcing_fu_min               =   4.9727807576542E-03
(PID.TID 0000.0001) %MON forcing_fu_mean              =   2.7685238556832E-02
(PID.TID 0000.0001) %MON forcing_fu_sd                =   1.6985772961653E-02
(PID.TID 0000.0001) %MON forcing_fu_del2              =   3.9333914855553E-03
(PID.TID 0000.0001) %MON forcing_fv_max               =   6.1606866107345E-04
(PID.TID 0000.0001) %MON forcing_fv_min               =  -1.1359929425208E-01
(PID.TID 0000.0001) %MON forcing_fv_mean              =  -1.5503315726742E-02
(PID.TID 0000.0001) %MON forcing_fv_sd                =   2.9041880950608E-02
(PID.TID 0000.0001) %MON forcing_fv_del2              =   2.3885327926996E-03
(PID.TID 0000.0001) %MON trAdv_CFL_u_max              =   3.1235841435012E-03
(PID.TID 0000.0001) %MON trAdv_CFL_v_max              =   2.1203976335674E-03
(PID.TID 0000.0001) %MON trAdv_CFL_w_max              =   5.2135320019703E-02
(PID.TID 0000.0001) %MON advcfl_uvel_max              =   3.1234255628928E-03
(PID.TID 0000.0001) %MON advcfl_vvel_max              =   2.1791860921556E-03
(PID.TID 0000.0001) %MON advcfl_wvel_max              =   1.0494839205051E-01
(PID.TID 0000.0001) %MON advcfl_W_hf_max              =   5.2135320019703E-02
(PID.TID 0000.0001) %MON pe_b_mean                    =   5.7259098240370E-04
(PID.TID 0000.0001) %MON ke_max                       =   1.0129207014653E-02
(PID.TID 0000.0001) %MON ke_mean                      =   1.1889833821946E-03
(PID.TID 0000.0001) %MON ke_vol                       =   2.0812333426156E+15
(PID.TID 0000.0001) %MON vort_r_min                   =  -8.9426764060199E-07
(PID.TID 0000.0001) %MON vort_r_max                   =   1.4049381254477E-06
(PID.TID 0000.0001) %MON vort_a_mean                  =   1.1459528087956E-04
(PID.TID 0000.0001) %MON vort_a_sd                    =   5.2477486087257E-06
(PID.TID 0000.0001) %MON vort_p_mean                  =   1.7066152357934E-04
(PID.TID 0000.0001) %MON vort_p_sd                    =   1.1048719084803E-04
(PID.TID 0000.0001) %MON surfExpan_theta_mean         =  -6.6751238241548E-05
(PID.TID 0000.0001) %MON surfExpan_salt_mean          =   1.0689128171304E-03
(PID.TID 0000.0001) // =======================================================
(PID.TID 0000.0001) // End MONITOR dynamic field statistics
(PID.TID 0000.0001) // =======================================================
(PID.TID 0000.0001) // =======================================================
(PID.TID 0000.0001) // Begin OBCS MONITOR field statistics
(PID.TID 0000.0001) // =======================================================
(PID.TID 0000.0001) %MON obc_E_uVel_max               =   2.0722654828388E-02
(PID.TID 0000.0001) %MON obc_E_uVel_min               =  -6.1554653521533E-03
(PID.TID 0000.0001) %MON obc_E_uVel_mean              =   7.0179374084486E-03
(PID.TID 0000.0001) %MON obc_E_uVel_sd                =   2.9899106168938E-03
(PID.TID 0000.0001) %MON obc_E_uVel_Int               =   1.4491267286051E+07
(PID.TID 0000.0001) %MON obc_W_uVel_max               =  -8.2592594745984E-02
(PID.TID 0000.0001) %MON obc_W_uVel_min               =  -1.0508782232935E-01
(PID.TID 0000.0001) %MON obc_W_uVel_mean              =  -8.8223621167847E-02
(PID.TID 0000.0001) %MON obc_W_uVel_sd                =   4.0877776407421E-03
(PID.TID 0000.0001) %MON obc_W_uVel_Int               =  -1.0202419847439E+07
(PID.TID 0000.0001) %MON obc_N_vVel_max               =   1.0326816410641E-01
(PID.TID 0000.0001) %MON obc_N_vVel_min               =   5.4460706333924E-02
(PID.TID 0000.0001) %MON obc_N_vVel_mean              =   8.7623094558947E-02
(PID.TID 0000.0001) %MON obc_N_vVel_sd                =   9.2430075284801E-03
(PID.TID 0000.0001) %MON obc_N_vVel_Int               =   1.1497027414785E+07
(PID.TID 0000.0001) %MON obc_S_vVel_max               =   9.0933716781769E-02
(PID.TID 0000.0001) %MON obc_S_vVel_min               =   4.2445422230556E-02
(PID.TID 0000.0001) %MON obc_S_vVel_mean              =   8.7152177887948E-02
(PID.TID 0000.0001) %MON obc_S_vVel_sd                =   5.5149327130856E-03
(PID.TID 0000.0001) %MON obc_S_vVel_Int               =   7.5803389171821E+07
(PID.TID 0000.0001) // =======================================================
(PID.TID 0000.0001) // End OBCS MONITOR field statistics
(PID.TID 0000.0001) // =======================================================
(PID.TID 0000.0001) // =======================================================
(PID.TID 0000.0001) // Begin MONITOR SEAICE statistics
(PID.TID 0000.0001) // =======================================================
(PID.TID 0000.0001) %MON seaice_tsnumber              =                     3
(PID.TID 0000.0001) %MON seaice_time_sec              =   1.0800000000000E+04
(PID.TID 0000.0001) %MON seaice_uice_max              =   1.3342714889502E-01
(PID.TID 0000.0001) %MON seaice_uice_min              =  -2.6686621832922E-02
(PID.TID 0000.0001) %MON seaice_uice_mean             =   3.1965993058159E-02
(PID.TID 0000.0001) %MON seaice_uice_sd               =   3.7454275545689E-02
(PID.TID 0000.0001) %MON seaice_uice_del2             =   1.2165679500667E-02
(PID.TID 0000.0001) %MON seaice_vice_max              =   6.2610398908892E-02
(PID.TID 0000.0001) %MON seaice_vice_min              =  -1.0261975010763E-01
(PID.TID 0000.0001) %MON seaice_vice_mean             =  -2.2675360829704E-02
(PID.TID 0000.0001) %MON seaice_vice_sd               =   4.6859031461311E-02
(PID.TID 0000.0001) %MON seaice_vice_del2             =   4.3583121183457E-03
(PID.TID 0000.0001) %MON seaice_area_max              =   9.9815677211036E-01
(PID.TID 0000.0001) %MON seaice_area_min              =   0.0000000000000E+00
(PID.TID 0000.0001) %MON seaice_area_mean             =   3.3485864545943E-01
(PID.TID 0000.0001) %MON seaice_area_sd               =   4.1324335360361E-01
(PID.TID 0000.0001) %MON seaice_area_del2             =   7.1359481798532E-02
(PID.TID 0000.0001) %MON seaice_heff_max              =   4.6541920415946E-01
(PID.TID 0000.0001) %MON seaice_heff_min              =   0.0000000000000E+00
(PID.TID 0000.0001) %MON seaice_heff_mean             =   7.8244951032931E-02
(PID.TID 0000.0001) %MON seaice_heff_sd               =   1.1794362699429E-01
(PID.TID 0000.0001) %MON seaice_heff_del2             =   1.4035650769590E-02
(PID.TID 0000.0001) %MON seaice_hsnow_max             =   8.1646123654276E-02
(PID.TID 0000.0001) %MON seaice_hsnow_min             =   0.0000000000000E+00
(PID.TID 0000.0001) %MON seaice_hsnow_mean            =   1.7097348573162E-02
(PID.TID 0000.0001) %MON seaice_hsnow_sd              =   2.4678629921685E-02
(PID.TID 0000.0001) %MON seaice_hsnow_del2            =   4.2340745646327E-03
(PID.TID 0000.0001) %MON seaice_hsalt_max             =   3.9854254819614E+01
(PID.TID 0000.0001) %MON seaice_hsalt_min             =   0.0000000000000E+00
(PID.TID 0000.0001) %MON seaice_hsalt_mean            =   3.5965357746781E+00
(PID.TID 0000.0001) %MON seaice_hsalt_sd              =   7.9112682712278E+00
(PID.TID 0000.0001) %MON seaice_hsalt_del2            =   3.8015773788605E+00
(PID.TID 0000.0001) // =======================================================
(PID.TID 0000.0001) // End MONITOR SEAICE statistics
(PID.TID 0000.0001) // =======================================================
(PID.TID 0000.0001) // =======================================================
(PID.TID 0000.0001) // Begin MONITOR EXF statistics
(PID.TID 0000.0001) // =======================================================
(PID.TID 0000.0001) %MON exf_tsnumber                 =                     3
(PID.TID 0000.0001) %MON exf_time_sec                 =   1.0800000000000E+04
(PID.TID 0000.0001) %MON exf_ustress_max              =   3.4467214051314E-02
(PID.TID 0000.0001) %MON exf_ustress_min              =   3.8392832609617E-03
(PID.TID 0000.0001) %MON exf_ustress_mean             =   1.8067287662204E-02
(PID.TID 0000.0001) %MON exf_ustress_sd               =   9.7336596790636E-03
(PID.TID 0000.0001) %MON exf_ustress_del2             =   3.7607727757436E-03
(PID.TID 0000.0001) %MON exf_vstress_max              =   6.9048843700435E-03
(PID.TID 0000.0001) %MON exf_vstress_min              =  -1.4731590529502E-02
(PID.TID 0000.0001) %MON exf_vstress_mean             =  -1.4603547332040E-03
(PID.TID 0000.0001) %MON exf_vstress_sd               =   5.4669111521653E-03
(PID.TID 0000.0001) %MON exf_vstress_del2             =   2.5621222656061E-03
(PID.TID 0000.0001) %MON exf_hflux_max                =   3.0391190118109E+02
(PID.TID 0000.0001) %MON exf_hflux_min                =   1.6249297676818E+00
(PID.TID 0000.0001) %MON exf_hflux_mean               =   1.3249483275356E+02
(PID.TID 0000.0001) %MON exf_hflux_sd                 =   1.0764249528783E+02
(PID.TID 0000.0001) %MON exf_hflux_del2               =   5.2151681859068E+01
(PID.TID 0000.0001) %MON exf_sflux_max                =   8.8273188448255E-09
(PID.TID 0000.0001) %MON exf_sflux_min                =  -5.9084158475650E-08
(PID.TID 0000.0001) %MON exf_sflux_mean               =  -2.1059841301026E-08
(PID.TID 0000.0001) %MON exf_sflux_sd                 =   2.1987780247614E-08
(PID.TID 0000.0001) %MON exf_sflux_del2               =   1.0224971812482E-08
(PID.TID 0000.0001) %MON exf_uwind_max                =   5.3590723471563E+00
(PID.TID 0000.0001) %MON exf_uwind_min                =   6.3920666668259E-01
(PID.TID 0000.0001) %MON exf_uwind_mean               =   3.0578795193580E+00
(PID.TID 0000.0001) %MON exf_uwind_sd                 =   1.4717641307970E+00
(PID.TID 0000.0001) %MON exf_uwind_del2               =   6.1021516169814E-01
(PID.TID 0000.0001) %MON exf_vwind_max                =   1.1542525704278E+00
(PID.TID 0000.0001) %MON exf_vwind_min                =  -2.2619176460583E+00
(PID.TID 0000.0001) %MON exf_vwind_mean               =  -2.6167517683765E-01
(PID.TID 0000.0001) %MON exf_vwind_sd                 =   8.9434199273265E-01
(PID.TID 0000.0001) %MON exf_vwind_del2               =   4.2132323784870E-01
(PID.TID 0000.0001) %MON exf_wspeed_max               =   5.3945438213498E+00
(PID.TID 0000.0001) %MON exf_wspeed_min               =   1.2179743674897E+00
(PID.TID 0000.0001) %MON exf_wspeed_mean              =   3.2196594534197E+00
(PID.TID 0000.0001) %MON exf_wspeed_sd                =   1.4208558384837E+00
(PID.TID 0000.0001) %MON exf_wspeed_del2              =   6.6444463630153E-01
(PID.TID 0000.0001) %MON exf_atemp_max                =   2.7814265254286E+02
(PID.TID 0000.0001) %MON exf_atemp_min                =   2.5100196675785E+02
(PID.TID 0000.0001) %MON exf_atemp_mean               =   2.6468044515586E+02
(PID.TID 0000.0001) %MON exf_atemp_sd                 =   9.5013224631643E+00
(PID.TID 0000.0001) %MON exf_atemp_del2               =   4.4737792582742E+00
(PID.TID 0000.0001) %MON exf_aqh_max                  =   4.9607253644890E-03
(PID.TID 0000.0001) %MON exf_aqh_min                  =   8.9308682430276E-04
(PID.TID 0000.0001) %MON exf_aqh_mean                 =   2.4669735891982E-03
(PID.TID 0000.0001) %MON exf_aqh_sd                   =   1.2814990509225E-03
(PID.TID 0000.0001) %MON exf_aqh_del2                 =   6.0177087695386E-04
(PID.TID 0000.0001) %MON exf_lwflux_max               =   1.3449109177436E+02
(PID.TID 0000.0001) %MON exf_lwflux_min               =   4.4299158210884E+01
(PID.TID 0000.0001) %MON exf_lwflux_mean              =   8.5145834721179E+01
(PID.TID 0000.0001) %MON exf_lwflux_sd                =   3.4348710256967E+01
(PID.TID 0000.0001) %MON exf_lwflux_del2              =   1.7997182885840E+01
(PID.TID 0000.0001) %MON exf_evap_max                 =   2.7589387737116E-08
(PID.TID 0000.0001) %MON exf_evap_min                 =  -1.6369304362447E-09
(PID.TID 0000.0001) %MON exf_evap_mean                =   1.0973307602520E-08
(PID.TID 0000.0001) %MON exf_evap_sd                  =   8.4847519972706E-09
(PID.TID 0000.0001) %MON exf_evap_del2                =   3.8883197632398E-09
(PID.TID 0000.0001) %MON exf_precip_max               =   5.9491621785516E-08
(PID.TID 0000.0001) %MON exf_precip_min               =   7.4893457774248E-09
(PID.TID 0000.0001) %MON exf_precip_mean              =   3.2033148903546E-08
(PID.TID 0000.0001) %MON exf_precip_sd                =   1.5086968075920E-08
(PID.TID 0000.0001) %MON exf_precip_del2              =   6.8569642463325E-09
(PID.TID 0000.0001) %MON exf_swflux_max               =  -2.6125989863130E+01
(PID.TID 0000.0001) %MON exf_swflux_min               =  -4.3040093684587E+01
(PID.TID 0000.0001) %MON exf_swflux_mean              =  -3.3953115408683E+01
(PID.TID 0000.0001) %MON exf_swflux_sd                =   5.3529725421105E+00
(PID.TID 0000.0001) %MON exf_swflux_del2              =   3.0872339958363E+00
(PID.TID 0000.0001) %MON exf_swdown_max               =   4.7822326316208E+01
(PID.TID 0000.0001) %MON exf_swdown_min               =   2.9028877625700E+01
(PID.TID 0000.0001) %MON exf_swdown_mean              =   3.7725683787426E+01
(PID.TID 0000.0001) %MON exf_swdown_sd                =   5.9477472690116E+00
(PID.TID 0000.0001) %MON exf_swdown_del2              =   3.4302599953736E+00
(PID.TID 0000.0001) %MON exf_lwdown_max               =   2.8596272753106E+02
(PID.TID 0000.0001) %MON exf_lwdown_min               =   1.7395920731591E+02
(PID.TID 0000.0001) %MON exf_lwdown_mean              =   2.2894863557051E+02
(PID.TID 0000.0001) %MON exf_lwdown_sd                =   3.6583823164761E+01
(PID.TID 0000.0001) %MON exf_lwdown_del2              =   2.5135205425235E+01
(PID.TID 0000.0001) %MON exf_climsss_max              =   3.4650277247194E+01
(PID.TID 0000.0001) %MON exf_climsss_min              =   2.5637504139885E+01
(PID.TID 0000.0001) %MON exf_climsss_mean             =   3.1810441924655E+01
(PID.TID 0000.0001) %MON exf_climsss_sd               =   2.3420589096563E+00
(PID.TID 0000.0001) %MON exf_climsss_del2             =   9.6929652021692E-01
(PID.TID 0000.0001) // =======================================================
(PID.TID 0000.0001) // End MONITOR EXF statistics
(PID.TID 0000.0001) // =======================================================
(PID.TID 0000.0001)  MDS_READ_SEC_XZ: opening global file: OBNu.seaice_obcs
(PID.TID 0000.0001)  MDS_READ_SEC_XZ: opening global file: OBNv.seaice_obcs
(PID.TID 0000.0001)  MDS_READ_SEC_XZ: opening global file: OBNt.seaice_obcs
(PID.TID 0000.0001)  MDS_READ_SEC_XZ: opening global file: OBNs.seaice_obcs
(PID.TID 0000.0001)  MDS_READ_SEC_XZ: opening global file: OBNa.seaice_obcs
(PID.TID 0000.0001)  MDS_READ_SEC_XZ: opening global file: OBNh.seaice_obcs
(PID.TID 0000.0001)  MDS_READ_SEC_XZ: opening global file: OBNsl.seaice_obcs
(PID.TID 0000.0001)  MDS_READ_SEC_XZ: opening global file: OBNsn.seaice_obcs
(PID.TID 0000.0001)  MDS_READ_SEC_XZ: opening global file: OBNuice.seaice_obcs
(PID.TID 0000.0001)  MDS_READ_SEC_XZ: opening global file: OBNvice.seaice_obcs
(PID.TID 0000.0001)  MDS_READ_SEC_XZ: opening global file: OBSu.seaice_obcs
(PID.TID 0000.0001)  MDS_READ_SEC_XZ: opening global file: OBSv.seaice_obcs
(PID.TID 0000.0001)  MDS_READ_SEC_XZ: opening global file: OBSt.seaice_obcs
(PID.TID 0000.0001)  MDS_READ_SEC_XZ: opening global file: OBSs.seaice_obcs
(PID.TID 0000.0001)  MDS_READ_SEC_XZ: opening global file: OBSa.seaice_obcs
(PID.TID 0000.0001)  MDS_READ_SEC_XZ: opening global file: OBSh.seaice_obcs
(PID.TID 0000.0001)  MDS_READ_SEC_XZ: opening global file: OBSsl.seaice_obcs
(PID.TID 0000.0001)  MDS_READ_SEC_XZ: opening global file: OBSsn.seaice_obcs
(PID.TID 0000.0001)  MDS_READ_SEC_XZ: opening global file: OBSuice.seaice_obcs
(PID.TID 0000.0001)  MDS_READ_SEC_XZ: opening global file: OBSvice.seaice_obcs
(PID.TID 0000.0001)  MDS_READ_SEC_YZ: opening global file: OBEu.seaice_obcs
(PID.TID 0000.0001)  MDS_READ_SEC_YZ: opening global file: OBEv.seaice_obcs
(PID.TID 0000.0001)  MDS_READ_SEC_YZ: opening global file: OBEt.seaice_obcs
(PID.TID 0000.0001)  MDS_READ_SEC_YZ: opening global file: OBEs.seaice_obcs
(PID.TID 0000.0001)  MDS_READ_SEC_YZ: opening global file: OBEa.seaice_obcs
(PID.TID 0000.0001)  MDS_READ_SEC_YZ: opening global file: OBEh.seaice_obcs
(PID.TID 0000.0001)  MDS_READ_SEC_YZ: opening global file: OBEsl.seaice_obcs
(PID.TID 0000.0001)  MDS_READ_SEC_YZ: opening global file: OBEsn.seaice_obcs
(PID.TID 0000.0001)  MDS_READ_SEC_YZ: opening global file: OBEuice.seaice_obcs
(PID.TID 0000.0001)  MDS_READ_SEC_YZ: opening global file: OBEvice.seaice_obcs
(PID.TID 0000.0001)  MDS_READ_SEC_YZ: opening global file: OBWu.seaice_obcs
(PID.TID 0000.0001)  MDS_READ_SEC_YZ: opening global file: OBWv.seaice_obcs
(PID.TID 0000.0001)  MDS_READ_SEC_YZ: opening global file: OBWt.seaice_obcs
(PID.TID 0000.0001)  MDS_READ_SEC_YZ: opening global file: OBWs.seaice_obcs
(PID.TID 0000.0001)  MDS_READ_SEC_YZ: opening global file: OBWa.seaice_obcs
(PID.TID 0000.0001)  MDS_READ_SEC_YZ: opening global file: OBWh.seaice_obcs
(PID.TID 0000.0001)  MDS_READ_SEC_YZ: opening global file: OBWsl.seaice_obcs
(PID.TID 0000.0001)  MDS_READ_SEC_YZ: opening global file: OBWsn.seaice_obcs
(PID.TID 0000.0001)  MDS_READ_SEC_YZ: opening global file: OBWuice.seaice_obcs
(PID.TID 0000.0001)  MDS_READ_SEC_YZ: opening global file: OBWvice.seaice_obcs
 SEAICE_LSR: Residual Initial ipass,Uice,Vice=         1  2.38186387E-02  4.22232868E-02
 SEAICE_LSR: Residual FrDrift U_fd,V_fd=  2.38982612E-02  1.41013637E-01
 SEAICE_LSR (ipass=        1) iters,dU,Resid=       28  1.75767387E-13  2.60543445E-14
 SEAICE_LSR (ipass=        1) iters,dV,Resid=       16  3.46382645E-13  5.01623574E-14
 SEAICE_LSR: Residual Initial ipass,Uice,Vice=         2  1.14381526E-02  2.72408924E-02
 SEAICE_LSR: Residual FrDrift U_fd,V_fd=  1.71204777E-02  4.31634642E-02
 SEAICE_LSR (ipass=        2) iters,dU,Resid=       32  4.02081146E-13  5.72162600E-14
 SEAICE_LSR (ipass=        2) iters,dV,Resid=       16  1.46431478E-13  9.86406575E-15
 cg2d: Sum(rhs),rhsMax =  -4.21937376468154E+00  1.19577640648469E+00
(PID.TID 0000.0001)      cg2d_init_res =   1.59268569463050E+00
(PID.TID 0000.0001)      cg2d_iters(min,last) =      -1      24
(PID.TID 0000.0001)      cg2d_last_res =   7.95171748429954E-13
(PID.TID 0000.0001) // =======================================================
(PID.TID 0000.0001) // Begin MONITOR dynamic field statistics
(PID.TID 0000.0001) // =======================================================
(PID.TID 0000.0001) %MON time_tsnumber                =                     4
(PID.TID 0000.0001) %MON time_secondsf                =   1.4400000000000E+04
(PID.TID 0000.0001) %MON dynstat_eta_max              =   6.8280937578783E-01
(PID.TID 0000.0001) %MON dynstat_eta_min              =  -1.9520402738070E-02
(PID.TID 0000.0001) %MON dynstat_eta_mean             =   2.8523998114211E-01
(PID.TID 0000.0001) %MON dynstat_eta_sd               =   1.8220897467416E-01
(PID.TID 0000.0001) %MON dynstat_eta_del2             =   1.5839026115485E-02
(PID.TID 0000.0001) %MON dynstat_uvel_max             =   7.5403039451501E-02
(PID.TID 0000.0001) %MON dynstat_uvel_min             =  -8.7441452158861E-02
(PID.TID 0000.0001) %MON dynstat_uvel_mean            =   5.4555184906687E-03
(PID.TID 0000.0001) %MON dynstat_uvel_sd              =   2.7193603407084E-02
(PID.TID 0000.0001) %MON dynstat_uvel_del2            =   1.3650265113766E-03
(PID.TID 0000.0001) %MON dynstat_vvel_max             =   1.8065325906028E-01
(PID.TID 0000.0001) %MON dynstat_vvel_min             =  -4.7919416053891E-03
(PID.TID 0000.0001) %MON dynstat_vvel_mean            =   3.8498938525744E-02
(PID.TID 0000.0001) %MON dynstat_vvel_sd              =   2.9616570213813E-02
(PID.TID 0000.0001) %MON dynstat_vvel_del2            =   2.4649076719411E-03
(PID.TID 0000.0001) %MON dynstat_wvel_max             =   3.2230736221906E-04
(PID.TID 0000.0001) %MON dynstat_wvel_min             =  -2.9696410660296E-04
(PID.TID 0000.0001) %MON dynstat_wvel_mean            =  -3.0577356514464E-05
(PID.TID 0000.0001) %MON dynstat_wvel_sd              =   9.9920260639703E-05
(PID.TID 0000.0001) %MON dynstat_wvel_del2            =   5.0182934718817E-06
(PID.TID 0000.0001) %MON dynstat_theta_max            =   5.9959888010501E+00
(PID.TID 0000.0001) %MON dynstat_theta_min            =  -1.8156841103084E+00
(PID.TID 0000.0001) %MON dynstat_theta_mean           =   3.1881501005530E+00
(PID.TID 0000.0001) %MON dynstat_theta_sd             =   7.9530070859563E-01
(PID.TID 0000.0001) %MON dynstat_theta_del2           =   4.2690756404666E-02
(PID.TID 0000.0001) %MON dynstat_salt_max             =   3.4939862633294E+01
(PID.TID 0000.0001) %MON dynstat_salt_min             =   3.2481518084847E+01
(PID.TID 0000.0001) %MON dynstat_salt_mean            =   3.4812587894577E+01
(PID.TID 0000.0001) %MON dynstat_salt_sd              =   3.1446110147074E-01
(PID.TID 0000.0001) %MON dynstat_salt_del2            =   9.4786602795556E-03
(PID.TID 0000.0001) %MON forcing_qnet_max             =   3.0391190118109E+02
(PID.TID 0000.0001) %MON forcing_qnet_min             =   1.6249297676818E+00
(PID.TID 0000.0001) %MON forcing_qnet_mean            =   8.2964444991800E+01
(PID.TID 0000.0001) %MON forcing_qnet_sd              =   1.0027013504604E+02
(PID.TID 0000.0001) %MON forcing_qnet_del2            =   4.0542076710954E+01
(PID.TID 0000.0001) %MON forcing_qsw_max              =  -7.2324708579603E-02
(PID.TID 0000.0001) %MON forcing_qsw_min              =  -4.3040093684587E+01
(PID.TID 0000.0001) %MON forcing_qsw_mean             =  -2.3795785792925E+01
(PID.TID 0000.0001) %MON forcing_qsw_sd               =   1.5623884231864E+01
(PID.TID 0000.0001) %MON forcing_qsw_del2             =   2.4737264483021E+00
(PID.TID 0000.0001) %MON forcing_empmr_max            =   5.5406272270438E-04
(PID.TID 0000.0001) %MON forcing_empmr_min            =  -8.8859965266097E-05
(PID.TID 0000.0001) %MON forcing_empmr_mean           =   2.6346448490187E-05
(PID.TID 0000.0001) %MON forcing_empmr_sd             =   1.2281169520231E-04
(PID.TID 0000.0001) %MON forcing_empmr_del2           =   5.8570904491541E-05
(PID.TID 0000.0001) %MON forcing_fu_max               =   6.8297192713799E-02
(PID.TID 0000.0001) %MON forcing_fu_min               =   4.5817520238692E-03
(PID.TID 0000.0001) %MON forcing_fu_mean              =   2.4954900011792E-02
(PID.TID 0000.0001) %MON forcing_fu_sd                =   1.3669830156805E-02
(PID.TID 0000.0001) %MON forcing_fu_del2              =   4.4265306212022E-03
(PID.TID 0000.0001) %MON forcing_fv_max               =   6.1197097869790E-04
(PID.TID 0000.0001) %MON forcing_fv_min               =  -1.0834145223327E-01
(PID.TID 0000.0001) %MON forcing_fv_mean              =  -1.2083744509862E-02
(PID.TID 0000.0001) %MON forcing_fv_sd                =   2.2844313844944E-02
(PID.TID 0000.0001) %MON forcing_fv_del2              =   2.9335680278846E-03
(PID.TID 0000.0001) %MON trAdv_CFL_u_max              =   2.5990712091467E-03
(PID.TID 0000.0001) %MON trAdv_CFL_v_max              =   2.8454851640962E-03
(PID.TID 0000.0001) %MON trAdv_CFL_w_max              =   5.6294424094377E-02
(PID.TID 0000.0001) %MON advcfl_uvel_max              =   2.5989392574288E-03
(PID.TID 0000.0001) %MON advcfl_vvel_max              =   2.9243768229459E-03
(PID.TID 0000.0001) %MON advcfl_wvel_max              =   1.1143746486386E-01
(PID.TID 0000.0001) %MON advcfl_W_hf_max              =   5.6294424094377E-02
(PID.TID 0000.0001) %MON pe_b_mean                    =   3.2929568558304E-04
(PID.TID 0000.0001) %MON ke_max                       =   1.4773890898254E-02
(PID.TID 0000.0001) %MON ke_mean                      =   9.9552401363145E-04
(PID.TID 0000.0001) %MON ke_vol                       =   2.0812333426156E+15
(PID.TID 0000.0001) %MON vort_r_min                   =  -7.6940891078440E-07
(PID.TID 0000.0001) %MON vort_r_max                   =   1.5876773863543E-06
(PID.TID 0000.0001) %MON vort_a_mean                  =   1.1459551596532E-04
(PID.TID 0000.0001) %MON vort_a_sd                    =   5.2921172715820E-06
(PID.TID 0000.0001) %MON vort_p_mean                  =   1.7066187368185E-04
(PID.TID 0000.0001) %MON vort_p_sd                    =   1.1047954488608E-04
(PID.TID 0000.0001) %MON surfExpan_theta_mean         =  -1.5214363227176E-04
(PID.TID 0000.0001) %MON surfExpan_salt_mean          =  -1.0745758933836E-03
(PID.TID 0000.0001) // =======================================================
(PID.TID 0000.0001) // End MONITOR dynamic field statistics
(PID.TID 0000.0001) // =======================================================
(PID.TID 0000.0001) // =======================================================
(PID.TID 0000.0001) // Begin OBCS MONITOR field statistics
(PID.TID 0000.0001) // =======================================================
(PID.TID 0000.0001) %MON obc_E_uVel_max               =   6.7896661303001E-02
(PID.TID 0000.0001) %MON obc_E_uVel_min               =   3.2814643331178E-02
(PID.TID 0000.0001) %MON obc_E_uVel_mean              =   5.3694574163151E-02
(PID.TID 0000.0001) %MON obc_E_uVel_sd                =   4.2632718643488E-03
(PID.TID 0000.0001) %MON obc_E_uVel_Int               =   1.1087337784919E+08
(PID.TID 0000.0001) %MON obc_W_uVel_max               =  -4.5908923363034E-02
(PID.TID 0000.0001) %MON obc_W_uVel_min               =  -7.3589856662395E-02
(PID.TID 0000.0001) %MON obc_W_uVel_mean              =  -5.3216231084988E-02
(PID.TID 0000.0001) %MON obc_W_uVel_sd                =   5.3634991339505E-03
(PID.TID 0000.0001) %MON obc_W_uVel_Int               =  -6.1540699082670E+06
(PID.TID 0000.0001) %MON obc_N_vVel_max               =   7.0927529812871E-02
(PID.TID 0000.0001) %MON obc_N_vVel_min               =   1.7795301998355E-02
(PID.TID 0000.0001) %MON obc_N_vVel_mean              =   5.4798631479793E-02
(PID.TID 0000.0001) %MON obc_N_vVel_sd                =   9.4372649864945E-03
(PID.TID 0000.0001) %MON obc_N_vVel_Int               =   7.1901291729890E+06
(PID.TID 0000.0001) %MON obc_S_vVel_max               =   1.0223774797621E-01
(PID.TID 0000.0001) %MON obc_S_vVel_min               =   5.2124130243183E-02
(PID.TID 0000.0001) %MON obc_S_vVel_mean              =   9.8981045905293E-02
(PID.TID 0000.0001) %MON obc_S_vVel_sd                =   5.0777866084477E-03
(PID.TID 0000.0001) %MON obc_S_vVel_Int               =   8.6091924782872E+07
(PID.TID 0000.0001) // =======================================================
(PID.TID 0000.0001) // End OBCS MONITOR field statistics
(PID.TID 0000.0001) // =======================================================
(PID.TID 0000.0001) // =======================================================
(PID.TID 0000.0001) // Begin MONITOR SEAICE statistics
(PID.TID 0000.0001) // =======================================================
(PID.TID 0000.0001) %MON seaice_tsnumber              =                     4
(PID.TID 0000.0001) %MON seaice_time_sec              =   1.4400000000000E+04
(PID.TID 0000.0001) %MON seaice_uice_max              =   1.4821492716962E-01
(PID.TID 0000.0001) %MON seaice_uice_min              =  -6.0426959628943E-02
(PID.TID 0000.0001) %MON seaice_uice_mean             =   3.0237561085384E-02
(PID.TID 0000.0001) %MON seaice_uice_sd               =   4.7972764768865E-02
(PID.TID 0000.0001) %MON seaice_uice_del2             =   1.3727931664989E-02
(PID.TID 0000.0001) %MON seaice_vice_max              =   8.9919612361343E-02
(PID.TID 0000.0001) %MON seaice_vice_min              =  -7.3710479463076E-02
(PID.TID 0000.0001) %MON seaice_vice_mean             =   1.1001745537163E-02
(PID.TID 0000.0001) %MON seaice_vice_sd               =   3.9313138060906E-02
(PID.TID 0000.0001) %MON seaice_vice_del2             =   5.2392482380015E-03
(PID.TID 0000.0001) %MON seaice_area_max              =   9.9658681562079E-01
(PID.TID 0000.0001) %MON seaice_area_min              =   0.0000000000000E+00
(PID.TID 0000.0001) %MON seaice_area_mean             =   3.3488013064227E-01
(PID.TID 0000.0001) %MON seaice_area_sd               =   4.1311029435589E-01
(PID.TID 0000.0001) %MON seaice_area_del2             =   7.1056322489985E-02
(PID.TID 0000.0001) %MON seaice_heff_max              =   4.6650738001102E-01
(PID.TID 0000.0001) %MON seaice_heff_min              =   0.0000000000000E+00
(PID.TID 0000.0001) %MON seaice_heff_mean             =   7.8431566725725E-02
(PID.TID 0000.0001) %MON seaice_heff_sd               =   1.1809518044948E-01
(PID.TID 0000.0001) %MON seaice_heff_del2             =   1.3978370060937E-02
(PID.TID 0000.0001) %MON seaice_hsnow_max             =   8.1777509817397E-02
(PID.TID 0000.0001) %MON seaice_hsnow_min             =   0.0000000000000E+00
(PID.TID 0000.0001) %MON seaice_hsnow_mean            =   1.7194229762396E-02
(PID.TID 0000.0001) %MON seaice_hsnow_sd              =   2.4776352492396E-02
(PID.TID 0000.0001) %MON seaice_hsnow_del2            =   4.2475969674929E-03
(PID.TID 0000.0001) %MON seaice_hsalt_max             =   5.9641296923617E+01
(PID.TID 0000.0001) %MON seaice_hsalt_min             =   0.0000000000000E+00
(PID.TID 0000.0001) %MON seaice_hsalt_mean            =   5.3836012695791E+00
(PID.TID 0000.0001) %MON seaice_hsalt_sd              =   1.1827098328773E+01
(PID.TID 0000.0001) %MON seaice_hsalt_del2            =   5.6820337089019E+00
(PID.TID 0000.0001) // =======================================================
(PID.TID 0000.0001) // End MONITOR SEAICE statistics
(PID.TID 0000.0001) // =======================================================
(PID.TID 0000.0001) // =======================================================
(PID.TID 0000.0001) // Begin MONITOR EXF statistics
(PID.TID 0000.0001) // =======================================================
(PID.TID 0000.0001) %MON exf_tsnumber                 =                     4
(PID.TID 0000.0001) %MON exf_time_sec                 =   1.4400000000000E+04
(PID.TID 0000.0001) %MON exf_ustress_max              =   3.4424047627412E-02
(PID.TID 0000.0001) %MON exf_ustress_min              =   3.8411158340334E-03
(PID.TID 0000.0001) %MON exf_ustress_mean             =   1.8062817119753E-02
(PID.TID 0000.0001) %MON exf_ustress_sd               =   9.7246121675917E-03
(PID.TID 0000.0001) %MON exf_ustress_del2             =   3.7542517962670E-03
(PID.TID 0000.0001) %MON exf_vstress_max              =   6.9013571000442E-03
(PID.TID 0000.0001) %MON exf_vstress_min              =  -1.4767833766912E-02
(PID.TID 0000.0001) %MON exf_vstress_mean             =  -1.4685462336987E-03
(PID.TID 0000.0001) %MON exf_vstress_sd               =   5.4739319565841E-03
(PID.TID 0000.0001) %MON exf_vstress_del2             =   2.5650679042911E-03
(PID.TID 0000.0001) %MON exf_hflux_max                =   3.0403699107796E+02
(PID.TID 0000.0001) %MON exf_hflux_min                =   1.7482099531307E+00
(PID.TID 0000.0001) %MON exf_hflux_mean               =   1.3257447666704E+02
(PID.TID 0000.0001) %MON exf_hflux_sd                 =   1.0764709894088E+02
(PID.TID 0000.0001) %MON exf_hflux_del2               =   5.2149176289915E+01
(PID.TID 0000.0001) %MON exf_sflux_max                =   8.8517889909154E-09
(PID.TID 0000.0001) %MON exf_sflux_min                =  -5.9062768593427E-08
(PID.TID 0000.0001) %MON exf_sflux_mean               =  -2.1053493619170E-08
(PID.TID 0000.0001) %MON exf_sflux_sd                 =   2.1992754293897E-08
(PID.TID 0000.0001) %MON exf_sflux_del2               =   1.0227579727403E-08
(PID.TID 0000.0001) %MON exf_uwind_max                =   5.3565802039996E+00
(PID.TID 0000.0001) %MON exf_uwind_min                =   6.3948269212832E-01
(PID.TID 0000.0001) %MON exf_uwind_mean               =   3.0571431350855E+00
(PID.TID 0000.0001) %MON exf_uwind_sd                 =   1.4704346511650E+00
(PID.TID 0000.0001) %MON exf_uwind_del2               =   6.0929151542209E-01
(PID.TID 0000.0001) %MON exf_vwind_max                =   1.1535080923734E+00
(PID.TID 0000.0001) %MON exf_vwind_min                =  -2.2664960858926E+00
(PID.TID 0000.0001) %MON exf_vwind_mean               =  -2.6306177898313E-01
(PID.TID 0000.0001) %MON exf_vwind_sd                 =   8.9540655929560E-01
(PID.TID 0000.0001) %MON exf_vwind_del2               =   4.2181725841542E-01
(PID.TID 0000.0001) %MON exf_wspeed_max               =   5.3919271239551E+00
(PID.TID 0000.0001) %MON exf_wspeed_min               =   1.2181431239673E+00
(PID.TID 0000.0001) %MON exf_wspeed_mean              =   3.2192480735527E+00
(PID.TID 0000.0001) %MON exf_wspeed_sd                =   1.4197529569138E+00
(PID.TID 0000.0001) %MON exf_wspeed_del2              =   6.6370556836059E-01
(PID.TID 0000.0001) %MON exf_atemp_max                =   2.7813589736021E+02
(PID.TID 0000.0001) %MON exf_atemp_min                =   2.5099280585617E+02
(PID.TID 0000.0001) %MON exf_atemp_mean               =   2.6467589546430E+02
(PID.TID 0000.0001) %MON exf_atemp_sd                 =   9.5037053955692E+00
(PID.TID 0000.0001) %MON exf_atemp_del2               =   4.4754089344737E+00
(PID.TID 0000.0001) %MON exf_aqh_max                  =   4.9583439885695E-03
(PID.TID 0000.0001) %MON exf_aqh_min                  =   8.9244517819610E-04
(PID.TID 0000.0001) %MON exf_aqh_mean                 =   2.4663067750694E-03
(PID.TID 0000.0001) %MON exf_aqh_sd                   =   1.2813670305131E-03
(PID.TID 0000.0001) %MON exf_aqh_del2                 =   6.0181312336198E-04
(PID.TID 0000.0001) %MON exf_lwflux_max               =   1.3448488309213E+02
(PID.TID 0000.0001) %MON exf_lwflux_min               =   4.4309538688850E+01
(PID.TID 0000.0001) %MON exf_lwflux_mean              =   8.5157496993429E+01
(PID.TID 0000.0001) %MON exf_lwflux_sd                =   3.4337022743854E+01
(PID.TID 0000.0001) %MON exf_lwflux_del2              =   1.7989563932824E+01
(PID.TID 0000.0001) %MON exf_evap_max                 =   2.7603653487656E-08
(PID.TID 0000.0001) %MON exf_evap_min                 =  -1.6268807679930E-09
(PID.TID 0000.0001) %MON exf_evap_mean                =   1.0974920891091E-08
(PID.TID 0000.0001) %MON exf_evap_sd                  =   8.4810894637884E-09
(PID.TID 0000.0001) %MON exf_evap_del2                =   3.8865521213223E-09
(PID.TID 0000.0001) %MON exf_precip_max               =   5.9484783233933E-08
(PID.TID 0000.0001) %MON exf_precip_min               =   7.4767954353598E-09
(PID.TID 0000.0001) %MON exf_precip_mean              =   3.2028414510261E-08
(PID.TID 0000.0001) %MON exf_precip_sd                =   1.5093444238404E-08
(PID.TID 0000.0001) %MON exf_precip_del2              =   6.8606601315283E-09
(PID.TID 0000.0001) %MON exf_swflux_max               =  -2.6096140062614E+01
(PID.TID 0000.0001) %MON exf_swflux_min               =  -4.2994991271222E+01
(PID.TID 0000.0001) %MON exf_swflux_mean              =  -3.3915698660746E+01
(PID.TID 0000.0001) %MON exf_swflux_sd                =   5.3506194880451E+00
(PID.TID 0000.0001) %MON exf_swflux_del2              =   3.0835246887711E+00
(PID.TID 0000.0001) %MON exf_swdown_max               =   4.7772212523580E+01
(PID.TID 0000.0001) %MON exf_swdown_min               =   2.8995711180682E+01
(PID.TID 0000.0001) %MON exf_swdown_mean              =   3.7684109623051E+01
(PID.TID 0000.0001) %MON exf_swdown_sd                =   5.9451327644946E+00
(PID.TID 0000.0001) %MON exf_swdown_del2              =   3.4261385430790E+00
(PID.TID 0000.0001) %MON exf_lwdown_max               =   2.8592223737539E+02
(PID.TID 0000.0001) %MON exf_lwdown_min               =   1.7391255158805E+02
(PID.TID 0000.0001) %MON exf_lwdown_mean              =   2.2892646711791E+02
(PID.TID 0000.0001) %MON exf_lwdown_sd                =   3.6584702678422E+01
(PID.TID 0000.0001) %MON exf_lwdown_del2              =   2.5134929152987E+01
(PID.TID 0000.0001) %MON exf_climsss_max              =   3.4650821831708E+01
(PID.TID 0000.0001) %MON exf_climsss_min              =   2.5641317419667E+01
(PID.TID 0000.0001) %MON exf_climsss_mean             =   3.1811735622041E+01
(PID.TID 0000.0001) %MON exf_climsss_sd               =   2.3420003113202E+00
(PID.TID 0000.0001) %MON exf_climsss_del2             =   9.6947994128286E-01
(PID.TID 0000.0001) // =======================================================
(PID.TID 0000.0001) // End MONITOR EXF statistics
(PID.TID 0000.0001) // =======================================================
(PID.TID 0000.0001)  MDS_READ_SEC_XZ: opening global file: OBNu.seaice_obcs
(PID.TID 0000.0001)  MDS_READ_SEC_XZ: opening global file: OBNv.seaice_obcs
(PID.TID 0000.0001)  MDS_READ_SEC_XZ: opening global file: OBNt.seaice_obcs
(PID.TID 0000.0001)  MDS_READ_SEC_XZ: opening global file: OBNs.seaice_obcs
(PID.TID 0000.0001)  MDS_READ_SEC_XZ: opening global file: OBNa.seaice_obcs
(PID.TID 0000.0001)  MDS_READ_SEC_XZ: opening global file: OBNh.seaice_obcs
(PID.TID 0000.0001)  MDS_READ_SEC_XZ: opening global file: OBNsl.seaice_obcs
(PID.TID 0000.0001)  MDS_READ_SEC_XZ: opening global file: OBNsn.seaice_obcs
(PID.TID 0000.0001)  MDS_READ_SEC_XZ: opening global file: OBNuice.seaice_obcs
(PID.TID 0000.0001)  MDS_READ_SEC_XZ: opening global file: OBNvice.seaice_obcs
(PID.TID 0000.0001)  MDS_READ_SEC_XZ: opening global file: OBSu.seaice_obcs
(PID.TID 0000.0001)  MDS_READ_SEC_XZ: opening global file: OBSv.seaice_obcs
(PID.TID 0000.0001)  MDS_READ_SEC_XZ: opening global file: OBSt.seaice_obcs
(PID.TID 0000.0001)  MDS_READ_SEC_XZ: opening global file: OBSs.seaice_obcs
(PID.TID 0000.0001)  MDS_READ_SEC_XZ: opening global file: OBSa.seaice_obcs
(PID.TID 0000.0001)  MDS_READ_SEC_XZ: opening global file: OBSh.seaice_obcs
(PID.TID 0000.0001)  MDS_READ_SEC_XZ: opening global file: OBSsl.seaice_obcs
(PID.TID 0000.0001)  MDS_READ_SEC_XZ: opening global file: OBSsn.seaice_obcs
(PID.TID 0000.0001)  MDS_READ_SEC_XZ: opening global file: OBSuice.seaice_obcs
(PID.TID 0000.0001)  MDS_READ_SEC_XZ: opening global file: OBSvice.seaice_obcs
(PID.TID 0000.0001)  MDS_READ_SEC_YZ: opening global file: OBEu.seaice_obcs
(PID.TID 0000.0001)  MDS_READ_SEC_YZ: opening global file: OBEv.seaice_obcs
(PID.TID 0000.0001)  MDS_READ_SEC_YZ: opening global file: OBEt.seaice_obcs
(PID.TID 0000.0001)  MDS_READ_SEC_YZ: opening global file: OBEs.seaice_obcs
(PID.TID 0000.0001)  MDS_READ_SEC_YZ: opening global file: OBEa.seaice_obcs
(PID.TID 0000.0001)  MDS_READ_SEC_YZ: opening global file: OBEh.seaice_obcs
(PID.TID 0000.0001)  MDS_READ_SEC_YZ: opening global file: OBEsl.seaice_obcs
(PID.TID 0000.0001)  MDS_READ_SEC_YZ: opening global file: OBEsn.seaice_obcs
(PID.TID 0000.0001)  MDS_READ_SEC_YZ: opening global file: OBEuice.seaice_obcs
(PID.TID 0000.0001)  MDS_READ_SEC_YZ: opening global file: OBEvice.seaice_obcs
(PID.TID 0000.0001)  MDS_READ_SEC_YZ: opening global file: OBWu.seaice_obcs
(PID.TID 0000.0001)  MDS_READ_SEC_YZ: opening global file: OBWv.seaice_obcs
(PID.TID 0000.0001)  MDS_READ_SEC_YZ: opening global file: OBWt.seaice_obcs
(PID.TID 0000.0001)  MDS_READ_SEC_YZ: opening global file: OBWs.seaice_obcs
(PID.TID 0000.0001)  MDS_READ_SEC_YZ: opening global file: OBWa.seaice_obcs
(PID.TID 0000.0001)  MDS_READ_SEC_YZ: opening global file: OBWh.seaice_obcs
(PID.TID 0000.0001)  MDS_READ_SEC_YZ: opening global file: OBWsl.seaice_obcs
(PID.TID 0000.0001)  MDS_READ_SEC_YZ: opening global file: OBWsn.seaice_obcs
(PID.TID 0000.0001)  MDS_READ_SEC_YZ: opening global file: OBWuice.seaice_obcs
(PID.TID 0000.0001)  MDS_READ_SEC_YZ: opening global file: OBWvice.seaice_obcs
 SEAICE_LSR: Residual Initial ipass,Uice,Vice=         1  1.99798393E-02  2.20890198E-02
 SEAICE_LSR: Residual FrDrift U_fd,V_fd=  1.81267178E-02  1.58222022E-01
 SEAICE_LSR (ipass=        1) iters,dU,Resid=       28  4.43443893E-13  4.29654412E-14
 SEAICE_LSR (ipass=        1) iters,dV,Resid=       14  5.55028246E-13  7.83616867E-14
 SEAICE_LSR: Residual Initial ipass,Uice,Vice=         2  8.24817947E-03  1.45339655E-02
 SEAICE_LSR: Residual FrDrift U_fd,V_fd=  1.48560760E-02  6.24431219E-02
 SEAICE_LSR (ipass=        2) iters,dU,Resid=       26  5.12812015E-13  4.50338516E-14
 SEAICE_LSR (ipass=        2) iters,dV,Resid=       14  7.18968288E-13  6.73722319E-14
 cg2d: Sum(rhs),rhsMax =   4.59764645655320E-01  1.24263034320789E+00
(PID.TID 0000.0001)      cg2d_init_res =   1.47561287709808E+00
(PID.TID 0000.0001)      cg2d_iters(min,last) =      -1      25
(PID.TID 0000.0001)      cg2d_last_res =   1.44753272837829E-13
(PID.TID 0000.0001) // =======================================================
(PID.TID 0000.0001) // Begin MONITOR dynamic field statistics
(PID.TID 0000.0001) // =======================================================
(PID.TID 0000.0001) %MON time_tsnumber                =                     5
(PID.TID 0000.0001) %MON time_secondsf                =   1.8000000000000E+04
(PID.TID 0000.0001) %MON dynstat_eta_max              =   7.2713244457049E-01
(PID.TID 0000.0001) %MON dynstat_eta_min              =  -5.8630195075495E-01
(PID.TID 0000.0001) %MON dynstat_eta_mean             =  -3.2299064766802E-02
(PID.TID 0000.0001) %MON dynstat_eta_sd               =   3.7402746608249E-01
(PID.TID 0000.0001) %MON dynstat_eta_del2             =   2.3328966484731E-02
(PID.TID 0000.0001) %MON dynstat_uvel_max             =   1.0207035552487E-01
(PID.TID 0000.0001) %MON dynstat_uvel_min             =  -4.6535194467678E-02
(PID.TID 0000.0001) %MON dynstat_uvel_mean            =   3.2606198905516E-02
(PID.TID 0000.0001) %MON dynstat_uvel_sd              =   3.1069886647325E-02
(PID.TID 0000.0001) %MON dynstat_uvel_del2            =   1.7638136481526E-03
(PID.TID 0000.0001) %MON dynstat_vvel_max             =   1.4563710800137E-01
(PID.TID 0000.0001) %MON dynstat_vvel_min             =  -7.3111724674767E-02
(PID.TID 0000.0001) %MON dynstat_vvel_mean            =   1.2792092116425E-02
(PID.TID 0000.0001) %MON dynstat_vvel_sd              =   3.3592887885336E-02
(PID.TID 0000.0001) %MON dynstat_vvel_del2            =   2.1597684117417E-03
(PID.TID 0000.0001) %MON dynstat_wvel_max             =   1.9831067688474E-04
(PID.TID 0000.0001) %MON dynstat_wvel_min             =  -3.1300704353823E-04
(PID.TID 0000.0001) %MON dynstat_wvel_mean            =  -9.4284650116574E-05
(PID.TID 0000.0001) %MON dynstat_wvel_sd              =   8.3106172412901E-05
(PID.TID 0000.0001) %MON dynstat_wvel_del2            =   5.3656343920038E-06
(PID.TID 0000.0001) %MON dynstat_theta_max            =   5.9874109920419E+00
(PID.TID 0000.0001) %MON dynstat_theta_min            =  -1.8150356621057E+00
(PID.TID 0000.0001) %MON dynstat_theta_mean           =   3.1877593803402E+00
(PID.TID 0000.0001) %MON dynstat_theta_sd             =   7.9599047309359E-01
(PID.TID 0000.0001) %MON dynstat_theta_del2           =   4.2743797370056E-02
(PID.TID 0000.0001) %MON dynstat_salt_max             =   3.4939862198049E+01
(PID.TID 0000.0001) %MON dynstat_salt_min             =   3.2480678362764E+01
(PID.TID 0000.0001) %MON dynstat_salt_mean            =   3.4812345989523E+01
(PID.TID 0000.0001) %MON dynstat_salt_sd              =   3.1494202862231E-01
(PID.TID 0000.0001) %MON dynstat_salt_del2            =   9.4808446690213E-03
(PID.TID 0000.0001) %MON forcing_qnet_max             =   3.0403699107796E+02
(PID.TID 0000.0001) %MON forcing_qnet_min             =   1.7482099531307E+00
(PID.TID 0000.0001) %MON forcing_qnet_mean            =   8.3315279736693E+01
(PID.TID 0000.0001) %MON forcing_qnet_sd              =   9.9999963333062E+01
(PID.TID 0000.0001) %MON forcing_qnet_del2            =   4.0567467648973E+01
(PID.TID 0000.0001) %MON forcing_qsw_max              =  -1.2943867905398E-01
(PID.TID 0000.0001) %MON forcing_qsw_min              =  -4.2994991271222E+01
(PID.TID 0000.0001) %MON forcing_qsw_mean             =  -2.3772890727701E+01
(PID.TID 0000.0001) %MON forcing_qsw_sd               =   1.5596073336899E+01
(PID.TID 0000.0001) %MON forcing_qsw_del2             =   2.4603750731518E+00
(PID.TID 0000.0001) %MON forcing_empmr_max            =   5.5312427263304E-04
(PID.TID 0000.0001) %MON forcing_empmr_min            =  -9.1856865077854E-05
(PID.TID 0000.0001) %MON forcing_empmr_mean           =   2.5296729732751E-05
(PID.TID 0000.0001) %MON forcing_empmr_sd             =   1.2303117585293E-04
(PID.TID 0000.0001) %MON forcing_empmr_del2           =   5.9828838607125E-05
(PID.TID 0000.0001) %MON forcing_fu_max               =   4.3696549711326E-02
(PID.TID 0000.0001) %MON forcing_fu_min               =   4.4465135289787E-03
(PID.TID 0000.0001) %MON forcing_fu_mean              =   2.0494814734674E-02
(PID.TID 0000.0001) %MON forcing_fu_sd                =   1.0583215200949E-02
(PID.TID 0000.0001) %MON forcing_fu_del2              =   4.2748461295178E-03
(PID.TID 0000.0001) %MON forcing_fv_max               =   3.1038041578925E-03
(PID.TID 0000.0001) %MON forcing_fv_min               =  -7.4930805492111E-02
(PID.TID 0000.0001) %MON forcing_fv_mean              =  -6.2295751275870E-03
(PID.TID 0000.0001) %MON forcing_fv_sd                =   1.4127306242403E-02
(PID.TID 0000.0001) %MON forcing_fv_del2              =   2.9179581487613E-03
(PID.TID 0000.0001) %MON trAdv_CFL_u_max              =   2.5186411359956E-03
(PID.TID 0000.0001) %MON trAdv_CFL_v_max              =   2.2985395339891E-03
(PID.TID 0000.0001) %MON trAdv_CFL_w_max              =   6.5554906800840E-02
(PID.TID 0000.0001) %MON advcfl_uvel_max              =   2.5185132676158E-03
(PID.TID 0000.0001) %MON advcfl_vvel_max              =   2.3575427612848E-03
(PID.TID 0000.0001) %MON advcfl_wvel_max              =   1.3506302532426E-01
(PID.TID 0000.0001) %MON advcfl_W_hf_max              =   6.5554906800840E-02
(PID.TID 0000.0001) %MON pe_b_mean                    =   4.0511580738184E-04
(PID.TID 0000.0001) %MON ke_max                       =   1.0558656026693E-02
(PID.TID 0000.0001) %MON ke_mean                      =   1.0483791064277E-03
(PID.TID 0000.0001) %MON ke_vol                       =   2.0812333426156E+15
(PID.TID 0000.0001) %MON vort_r_min                   =  -6.4163257575993E-07
(PID.TID 0000.0001) %MON vort_r_max                   =   1.2646085061639E-06
(PID.TID 0000.0001) %MON vort_a_mean                  =   1.1459566795456E-04
(PID.TID 0000.0001) %MON vort_a_sd                    =   5.3379188742706E-06
(PID.TID 0000.0001) %MON vort_p_mean                  =   1.7066210003248E-04
(PID.TID 0000.0001) %MON vort_p_sd                    =   1.1048495348032E-04
(PID.TID 0000.0001) %MON surfExpan_theta_mean         =  -1.3547633966976E-04
(PID.TID 0000.0001) %MON surfExpan_salt_mean          =  -2.9677755547809E-03
(PID.TID 0000.0001) // =======================================================
(PID.TID 0000.0001) // End MONITOR dynamic field statistics
(PID.TID 0000.0001) // =======================================================
(PID.TID 0000.0001) // =======================================================
(PID.TID 0000.0001) // Begin OBCS MONITOR field statistics
(PID.TID 0000.0001) // =======================================================
(PID.TID 0000.0001) %MON obc_E_uVel_max               =   1.0207035552487E-01
(PID.TID 0000.0001) %MON obc_E_uVel_min               =   5.7198061021224E-02
(PID.TID 0000.0001) %MON obc_E_uVel_mean              =   8.6975699655548E-02
(PID.TID 0000.0001) %MON obc_E_uVel_sd                =   5.9496561610256E-03
(PID.TID 0000.0001) %MON obc_E_uVel_Int               =   1.7959523400458E+08
(PID.TID 0000.0001) %MON obc_W_uVel_max               =   7.5916493280950E-03
(PID.TID 0000.0001) %MON obc_W_uVel_min               =  -2.7703915635156E-02
(PID.TID 0000.0001) %MON obc_W_uVel_mean              =  -3.3065969640654E-03
(PID.TID 0000.0001) %MON obc_W_uVel_sd                =   6.6935406975629E-03
(PID.TID 0000.0001) %MON obc_W_uVel_Int               =  -3.8238387913687E+05
(PID.TID 0000.0001) %MON obc_N_vVel_max               =   2.4078181399215E-02
(PID.TID 0000.0001) %MON obc_N_vVel_min               =  -3.0611708252190E-02
(PID.TID 0000.0001) %MON obc_N_vVel_mean              =   8.2548984959657E-03
(PID.TID 0000.0001) %MON obc_N_vVel_sd                =   9.5184989850304E-03
(PID.TID 0000.0001) %MON obc_N_vVel_Int               =   1.0831253426063E+06
(PID.TID 0000.0001) %MON obc_S_vVel_max               =   8.8787025268587E-02
(PID.TID 0000.0001) %MON obc_S_vVel_min               =   3.3476116005876E-02
(PID.TID 0000.0001) %MON obc_S_vVel_mean              =   8.4555077515849E-02
(PID.TID 0000.0001) %MON obc_S_vVel_sd                =   5.0195967674721E-03
(PID.TID 0000.0001) %MON obc_S_vVel_Int               =   7.3544478207167E+07
(PID.TID 0000.0001) // =======================================================
(PID.TID 0000.0001) // End OBCS MONITOR field statistics
(PID.TID 0000.0001) // =======================================================
(PID.TID 0000.0001) // =======================================================
(PID.TID 0000.0001) // Begin MONITOR SEAICE statistics
(PID.TID 0000.0001) // =======================================================
(PID.TID 0000.0001) %MON seaice_tsnumber              =                     5
(PID.TID 0000.0001) %MON seaice_time_sec              =   1.8000000000000E+04
(PID.TID 0000.0001) %MON seaice_uice_max              =   1.5529806325884E-01
(PID.TID 0000.0001) %MON seaice_uice_min              =  -3.6566968252325E-02
(PID.TID 0000.0001) %MON seaice_uice_mean             =   5.7179897777302E-02
(PID.TID 0000.0001) %MON seaice_uice_sd               =   5.7242355370665E-02
(PID.TID 0000.0001) %MON seaice_uice_del2             =   1.4516954806802E-02
(PID.TID 0000.0001) %MON seaice_vice_max              =   8.8813953182571E-02
(PID.TID 0000.0001) %MON seaice_vice_min              =  -1.8987600154095E-02
(PID.TID 0000.0001) %MON seaice_vice_mean             =   2.3021419539114E-02
(PID.TID 0000.0001) %MON seaice_vice_sd               =   2.1245419981086E-02
(PID.TID 0000.0001) %MON seaice_vice_del2             =   3.7628721886751E-03
(PID.TID 0000.0001) %MON seaice_area_max              =   9.9441156471543E-01
(PID.TID 0000.0001) %MON seaice_area_min              =   0.0000000000000E+00
(PID.TID 0000.0001) %MON seaice_area_mean             =   3.3475176402141E-01
(PID.TID 0000.0001) %MON seaice_area_sd               =   4.1270142725421E-01
(PID.TID 0000.0001) %MON seaice_area_del2             =   7.0744618396396E-02
(PID.TID 0000.0001) %MON seaice_heff_max              =   4.6708954276578E-01
(PID.TID 0000.0001) %MON seaice_heff_min              =   0.0000000000000E+00
(PID.TID 0000.0001) %MON seaice_heff_mean             =   7.8571847280112E-02
(PID.TID 0000.0001) %MON seaice_heff_sd               =   1.1814431561213E-01
(PID.TID 0000.0001) %MON seaice_heff_del2             =   1.3919820245342E-02
(PID.TID 0000.0001) %MON seaice_hsnow_max             =   8.1848182605523E-02
(PID.TID 0000.0001) %MON seaice_hsnow_min             =   0.0000000000000E+00
(PID.TID 0000.0001) %MON seaice_hsnow_mean            =   1.7283197904004E-02
(PID.TID 0000.0001) %MON seaice_hsnow_sd              =   2.4858571099526E-02
(PID.TID 0000.0001) %MON seaice_hsnow_del2            =   4.2602522925593E-03
(PID.TID 0000.0001) %MON seaice_hsalt_max             =   7.9370907712206E+01
(PID.TID 0000.0001) %MON seaice_hsalt_min             =   0.0000000000000E+00
(PID.TID 0000.0001) %MON seaice_hsalt_mean            =   7.1617653943466E+00
(PID.TID 0000.0001) %MON seaice_hsalt_sd              =   1.5720214307293E+01
(PID.TID 0000.0001) %MON seaice_hsalt_del2            =   7.5532177183255E+00
(PID.TID 0000.0001) // =======================================================
(PID.TID 0000.0001) // End MONITOR SEAICE statistics
(PID.TID 0000.0001) // =======================================================
(PID.TID 0000.0001) // =======================================================
(PID.TID 0000.0001) // Begin MONITOR EXF statistics
(PID.TID 0000.0001) // =======================================================
(PID.TID 0000.0001) %MON exf_tsnumber                 =                     5
(PID.TID 0000.0001) %MON exf_time_sec                 =   1.8000000000000E+04
(PID.TID 0000.0001) %MON exf_ustress_max              =   3.4376497332316E-02
(PID.TID 0000.0001) %MON exf_ustress_min              =   3.8429431567747E-03
(PID.TID 0000.0001) %MON exf_ustress_mean             =   1.8056097389674E-02
(PID.TID 0000.0001) %MON exf_ustress_sd               =   9.7148753218975E-03
(PID.TID 0000.0001) %MON exf_ustress_del2             =   3.7470875232387E-03
(PID.TID 0000.0001) %MON exf_vstress_max              =   6.8978712861180E-03
(PID.TID 0000.0001) %MON exf_vstress_min              =  -1.4804023003099E-02
(PID.TID 0000.0001) %MON exf_vstress_mean             =  -1.4764066310795E-03
(PID.TID 0000.0001) %MON exf_vstress_sd               =   5.4807567129544E-03
(PID.TID 0000.0001) %MON exf_vstress_del2             =   2.5678816212991E-03
(PID.TID 0000.0001) %MON exf_hflux_max                =   3.0411385452144E+02
(PID.TID 0000.0001) %MON exf_hflux_min                =   1.8582714943380E+00
(PID.TID 0000.0001) %MON exf_hflux_mean               =   1.3263400401397E+02
(PID.TID 0000.0001) %MON exf_hflux_sd                 =   1.0766073153523E+02
(PID.TID 0000.0001) %MON exf_hflux_del2               =   5.2150710632295E+01
(PID.TID 0000.0001) %MON exf_sflux_max                =   8.8727273147520E-09
(PID.TID 0000.0001) %MON exf_sflux_min                =  -5.9043743455465E-08
(PID.TID 0000.0001) %MON exf_sflux_mean               =  -2.1049801672509E-08
(PID.TID 0000.0001) %MON exf_sflux_sd                 =   2.1999211456515E-08
(PID.TID 0000.0001) %MON exf_sflux_del2               =   1.0231193898354E-08
(PID.TID 0000.0001) %MON exf_uwind_max                =   5.3540880608428E+00
(PID.TID 0000.0001) %MON exf_uwind_min                =   6.3975871757406E-01
(PID.TID 0000.0001) %MON exf_uwind_mean               =   3.0564067508130E+00
(PID.TID 0000.0001) %MON exf_uwind_sd                 =   1.4691093983507E+00
(PID.TID 0000.0001) %MON exf_uwind_del2               =   6.0836943056052E-01
(PID.TID 0000.0001) %MON exf_vwind_max                =   1.1527636143191E+00
(PID.TID 0000.0001) %MON exf_vwind_min                =  -2.2710745257269E+00
(PID.TID 0000.0001) %MON exf_vwind_mean               =  -2.6444838112862E-01
(PID.TID 0000.0001) %MON exf_vwind_sd                 =   8.9647348492279E-01
(PID.TID 0000.0001) %MON exf_vwind_del2               =   4.2231223664153E-01
(PID.TID 0000.0001) %MON exf_wspeed_max               =   5.3893105900161E+00
(PID.TID 0000.0001) %MON exf_wspeed_min               =   1.2183119202524E+00
(PID.TID 0000.0001) %MON exf_wspeed_mean              =   3.2188383271704E+00
(PID.TID 0000.0001) %MON exf_wspeed_sd                =   1.4186550425412E+00
(PID.TID 0000.0001) %MON exf_wspeed_del2              =   6.6296869507609E-01
(PID.TID 0000.0001) %MON exf_atemp_max                =   2.7812914217756E+02
(PID.TID 0000.0001) %MON exf_atemp_min                =   2.5098364495449E+02
(PID.TID 0000.0001) %MON exf_atemp_mean               =   2.6467134577275E+02
(PID.TID 0000.0001) %MON exf_atemp_sd                 =   9.5060895951796E+00
(PID.TID 0000.0001) %MON exf_atemp_del2               =   4.4770387957626E+00
(PID.TID 0000.0001) %MON exf_aqh_max                  =   4.9559626126499E-03
(PID.TID 0000.0001) %MON exf_aqh_min                  =   8.9180353208944E-04
(PID.TID 0000.0001) %MON exf_aqh_mean                 =   2.4656399609405E-03
(PID.TID 0000.0001) %MON exf_aqh_sd                   =   1.2812352511166E-03
(PID.TID 0000.0001) %MON exf_aqh_del2                 =   6.0185540517630E-04
(PID.TID 0000.0001) %MON exf_lwflux_max               =   1.3446667109067E+02
(PID.TID 0000.0001) %MON exf_lwflux_min               =   4.4319559086845E+01
(PID.TID 0000.0001) %MON exf_lwflux_mean              =   8.5162475412951E+01
(PID.TID 0000.0001) %MON exf_lwflux_sd                =   3.4328423553518E+01
(PID.TID 0000.0001) %MON exf_lwflux_del2              =   1.7983007335772E+01
(PID.TID 0000.0001) %MON exf_evap_max                 =   2.7616749083742E-08
(PID.TID 0000.0001) %MON exf_evap_min                 =  -1.6184224418084E-09
(PID.TID 0000.0001) %MON exf_evap_mean                =   1.0973878444467E-08
(PID.TID 0000.0001) %MON exf_evap_sd                  =   8.4790790121345E-09
(PID.TID 0000.0001) %MON exf_evap_del2                =   3.8854843559278E-09
(PID.TID 0000.0001) %MON exf_precip_max               =   5.9477944682351E-08
(PID.TID 0000.0001) %MON exf_precip_min               =   7.4642450932949E-09
(PID.TID 0000.0001) %MON exf_precip_mean              =   3.2023680116976E-08
(PID.TID 0000.0001) %MON exf_precip_sd                =   1.5099928326610E-08
(PID.TID 0000.0001) %MON exf_precip_del2              =   6.8643577377926E-09
(PID.TID 0000.0001) %MON exf_swflux_max               =  -2.6066290262097E+01
(PID.TID 0000.0001) %MON exf_swflux_min               =  -4.2949888857857E+01
(PID.TID 0000.0001) %MON exf_swflux_mean              =  -3.3878281912809E+01
(PID.TID 0000.0001) %MON exf_swflux_sd                =   5.3482693246481E+00
(PID.TID 0000.0001) %MON exf_swflux_del2              =   3.0798156977657E+00
(PID.TID 0000.0001) %MON exf_swdown_max               =   4.7722098730952E+01
(PID.TID 0000.0001) %MON exf_swdown_min               =   2.8962544735664E+01
(PID.TID 0000.0001) %MON exf_swdown_mean              =   3.7642535458676E+01
(PID.TID 0000.0001) %MON exf_swdown_sd                =   5.9425214718313E+00
(PID.TID 0000.0001) %MON exf_swdown_del2              =   3.4220174419619E+00
(PID.TID 0000.0001) %MON exf_lwdown_max               =   2.8588174721973E+02
(PID.TID 0000.0001) %MON exf_lwdown_min               =   1.7386589586018E+02
(PID.TID 0000.0001) %MON exf_lwdown_mean              =   2.2890429866532E+02
(PID.TID 0000.0001) %MON exf_lwdown_sd                =   3.6585588627253E+01
(PID.TID 0000.0001) %MON exf_lwdown_del2              =   2.5134654279117E+01
(PID.TID 0000.0001) %MON exf_climsss_max              =   3.4651366416222E+01
(PID.TID 0000.0001) %MON exf_climsss_min              =   2.5645130699450E+01
(PID.TID 0000.0001) %MON exf_climsss_mean             =   3.1813029319426E+01
(PID.TID 0000.0001) %MON exf_climsss_sd               =   2.3419428681841E+00
(PID.TID 0000.0001) %MON exf_climsss_del2             =   9.6966360338091E-01
(PID.TID 0000.0001) // =======================================================
(PID.TID 0000.0001) // End MONITOR EXF statistics
(PID.TID 0000.0001) // =======================================================
(PID.TID 0000.0001)  MDS_READ_SEC_XZ: opening global file: OBNu.seaice_obcs
(PID.TID 0000.0001)  MDS_READ_SEC_XZ: opening global file: OBNv.seaice_obcs
(PID.TID 0000.0001)  MDS_READ_SEC_XZ: opening global file: OBNt.seaice_obcs
(PID.TID 0000.0001)  MDS_READ_SEC_XZ: opening global file: OBNs.seaice_obcs
(PID.TID 0000.0001)  MDS_READ_SEC_XZ: opening global file: OBNa.seaice_obcs
(PID.TID 0000.0001)  MDS_READ_SEC_XZ: opening global file: OBNh.seaice_obcs
(PID.TID 0000.0001)  MDS_READ_SEC_XZ: opening global file: OBNsl.seaice_obcs
(PID.TID 0000.0001)  MDS_READ_SEC_XZ: opening global file: OBNsn.seaice_obcs
(PID.TID 0000.0001)  MDS_READ_SEC_XZ: opening global file: OBNuice.seaice_obcs
(PID.TID 0000.0001)  MDS_READ_SEC_XZ: opening global file: OBNvice.seaice_obcs
(PID.TID 0000.0001)  MDS_READ_SEC_XZ: opening global file: OBSu.seaice_obcs
(PID.TID 0000.0001)  MDS_READ_SEC_XZ: opening global file: OBSv.seaice_obcs
(PID.TID 0000.0001)  MDS_READ_SEC_XZ: opening global file: OBSt.seaice_obcs
(PID.TID 0000.0001)  MDS_READ_SEC_XZ: opening global file: OBSs.seaice_obcs
(PID.TID 0000.0001)  MDS_READ_SEC_XZ: opening global file: OBSa.seaice_obcs
(PID.TID 0000.0001)  MDS_READ_SEC_XZ: opening global file: OBSh.seaice_obcs
(PID.TID 0000.0001)  MDS_READ_SEC_XZ: opening global file: OBSsl.seaice_obcs
(PID.TID 0000.0001)  MDS_READ_SEC_XZ: opening global file: OBSsn.seaice_obcs
(PID.TID 0000.0001)  MDS_READ_SEC_XZ: opening global file: OBSuice.seaice_obcs
(PID.TID 0000.0001)  MDS_READ_SEC_XZ: opening global file: OBSvice.seaice_obcs
(PID.TID 0000.0001)  MDS_READ_SEC_YZ: opening global file: OBEu.seaice_obcs
(PID.TID 0000.0001)  MDS_READ_SEC_YZ: opening global file: OBEv.seaice_obcs
(PID.TID 0000.0001)  MDS_READ_SEC_YZ: opening global file: OBEt.seaice_obcs
(PID.TID 0000.0001)  MDS_READ_SEC_YZ: opening global file: OBEs.seaice_obcs
(PID.TID 0000.0001)  MDS_READ_SEC_YZ: opening global file: OBEa.seaice_obcs
(PID.TID 0000.0001)  MDS_READ_SEC_YZ: opening global file: OBEh.seaice_obcs
(PID.TID 0000.0001)  MDS_READ_SEC_YZ: opening global file: OBEsl.seaice_obcs
(PID.TID 0000.0001)  MDS_READ_SEC_YZ: opening global file: OBEsn.seaice_obcs
(PID.TID 0000.0001)  MDS_READ_SEC_YZ: opening global file: OBEuice.seaice_obcs
(PID.TID 0000.0001)  MDS_READ_SEC_YZ: opening global file: OBEvice.seaice_obcs
(PID.TID 0000.0001)  MDS_READ_SEC_YZ: opening global file: OBWu.seaice_obcs
(PID.TID 0000.0001)  MDS_READ_SEC_YZ: opening global file: OBWv.seaice_obcs
(PID.TID 0000.0001)  MDS_READ_SEC_YZ: opening global file: OBWt.seaice_obcs
(PID.TID 0000.0001)  MDS_READ_SEC_YZ: opening global file: OBWs.seaice_obcs
(PID.TID 0000.0001)  MDS_READ_SEC_YZ: opening global file: OBWa.seaice_obcs
(PID.TID 0000.0001)  MDS_READ_SEC_YZ: opening global file: OBWh.seaice_obcs
(PID.TID 0000.0001)  MDS_READ_SEC_YZ: opening global file: OBWsl.seaice_obcs
(PID.TID 0000.0001)  MDS_READ_SEC_YZ: opening global file: OBWsn.seaice_obcs
(PID.TID 0000.0001)  MDS_READ_SEC_YZ: opening global file: OBWuice.seaice_obcs
(PID.TID 0000.0001)  MDS_READ_SEC_YZ: opening global file: OBWvice.seaice_obcs
 SEAICE_LSR: Residual Initial ipass,Uice,Vice=         1  2.87019072E-02  1.79337336E-02
 SEAICE_LSR: Residual FrDrift U_fd,V_fd=  4.46204170E-02  5.58181624E-02
 SEAICE_LSR (ipass=        1) iters,dU,Resid=       22  8.73370820E-13  6.55987816E-14
 SEAICE_LSR (ipass=        1) iters,dV,Resid=       16  5.51919621E-14  6.78978668E-15
 SEAICE_LSR: Residual Initial ipass,Uice,Vice=         2  1.31020294E-02  8.04712399E-03
 SEAICE_LSR: Residual FrDrift U_fd,V_fd=  4.17122052E-02  7.73034898E-02
 SEAICE_LSR (ipass=        2) iters,dU,Resid=       22  2.20407026E-13  1.36361034E-14
 SEAICE_LSR (ipass=        2) iters,dV,Resid=       14  3.09217929E-13  3.41211619E-14
 cg2d: Sum(rhs),rhsMax =   5.30867125515054E+00  1.61036324091952E+00
(PID.TID 0000.0001)      cg2d_init_res =   1.17588960783825E+00
(PID.TID 0000.0001)      cg2d_iters(min,last) =      -1      25
(PID.TID 0000.0001)      cg2d_last_res =   1.76508583358985E-13
(PID.TID 0000.0001) // =======================================================
(PID.TID 0000.0001) // Begin MONITOR dynamic field statistics
(PID.TID 0000.0001) // =======================================================
(PID.TID 0000.0001) %MON time_tsnumber                =                     6
(PID.TID 0000.0001) %MON time_secondsf                =   2.1600000000000E+04
(PID.TID 0000.0001) %MON dynstat_eta_max              =   7.1243841783260E-01
(PID.TID 0000.0001) %MON dynstat_eta_min              =  -1.0935959523330E+00
(PID.TID 0000.0001) %MON dynstat_eta_mean             =  -4.8330590486811E-01
(PID.TID 0000.0001) %MON dynstat_eta_sd               =   4.6743919910737E-01
(PID.TID 0000.0001) %MON dynstat_eta_del2             =   3.4421493202135E-02
(PID.TID 0000.0001) %MON dynstat_uvel_max             =   1.6616626055768E-01
(PID.TID 0000.0001) %MON dynstat_uvel_min             =  -1.4613582346872E-01
(PID.TID 0000.0001) %MON dynstat_uvel_mean            =   5.3158779685897E-02
(PID.TID 0000.0001) %MON dynstat_uvel_sd              =   3.0380632610978E-02
(PID.TID 0000.0001) %MON dynstat_uvel_del2            =   2.2778057488447E-03
(PID.TID 0000.0001) %MON dynstat_vvel_max             =   9.1905527876795E-02
(PID.TID 0000.0001) %MON dynstat_vvel_min             =  -1.9273330784876E-01
(PID.TID 0000.0001) %MON dynstat_vvel_mean            =  -1.9604423833377E-02
(PID.TID 0000.0001) %MON dynstat_vvel_sd              =   3.4055889326737E-02
(PID.TID 0000.0001) %MON dynstat_vvel_del2            =   2.0994423716475E-03
(PID.TID 0000.0001) %MON dynstat_wvel_max             =   2.7781178384844E-04
(PID.TID 0000.0001) %MON dynstat_wvel_min             =  -3.7215822958741E-04
(PID.TID 0000.0001) %MON dynstat_wvel_mean            =  -1.3693209863663E-04
(PID.TID 0000.0001) %MON dynstat_wvel_sd              =   8.5900088736411E-05
(PID.TID 0000.0001) %MON dynstat_wvel_del2            =   5.8316444551298E-06
(PID.TID 0000.0001) %MON dynstat_theta_max            =   5.9788382257464E+00
(PID.TID 0000.0001) %MON dynstat_theta_min            =  -1.8156402357168E+00
(PID.TID 0000.0001) %MON dynstat_theta_mean           =   3.1869158959272E+00
(PID.TID 0000.0001) %MON dynstat_theta_sd             =   7.9792439182746E-01
(PID.TID 0000.0001) %MON dynstat_theta_del2           =   4.2840242120549E-02
(PID.TID 0000.0001) %MON dynstat_salt_max             =   3.4939861471388E+01
(PID.TID 0000.0001) %MON dynstat_salt_min             =   3.2479845254635E+01
(PID.TID 0000.0001) %MON dynstat_salt_mean            =   3.4811933233863E+01
(PID.TID 0000.0001) %MON dynstat_salt_sd              =   3.1588538510763E-01
(PID.TID 0000.0001) %MON dynstat_salt_del2            =   9.5043108689162E-03
(PID.TID 0000.0001) %MON forcing_qnet_max             =   3.0410408124835E+02
(PID.TID 0000.0001) %MON forcing_qnet_min             =   1.8582714943380E+00
(PID.TID 0000.0001) %MON forcing_qnet_mean            =   8.4217678375948E+01
(PID.TID 0000.0001) %MON forcing_qnet_sd              =   1.0020018946720E+02
(PID.TID 0000.0001) %MON forcing_qnet_del2            =   4.0769576405181E+01
(PID.TID 0000.0001) %MON forcing_qsw_max              =  -1.8371505371830E-01
(PID.TID 0000.0001) %MON forcing_qsw_min              =  -4.2949888857857E+01
(PID.TID 0000.0001) %MON forcing_qsw_mean             =  -2.3751101371512E+01
(PID.TID 0000.0001) %MON forcing_qsw_sd               =   1.5558411225562E+01
(PID.TID 0000.0001) %MON forcing_qsw_del2             =   2.4477964034546E+00
(PID.TID 0000.0001) %MON forcing_empmr_max            =   5.5235833885577E-04
(PID.TID 0000.0001) %MON forcing_empmr_min            =  -1.2372395637121E-04
(PID.TID 0000.0001) %MON forcing_empmr_mean           =   2.2574795539595E-05
(PID.TID 0000.0001) %MON forcing_empmr_sd             =   1.2486189137531E-04
(PID.TID 0000.0001) %MON forcing_empmr_del2           =   6.1723709946257E-05
(PID.TID 0000.0001) %MON forcing_fu_max               =   4.1617245067178E-02
(PID.TID 0000.0001) %MON forcing_fu_min               =  -9.9590751067323E-03
(PID.TID 0000.0001) %MON forcing_fu_mean              =   1.8006449083292E-02
(PID.TID 0000.0001) %MON forcing_fu_sd                =   1.1928764006053E-02
(PID.TID 0000.0001) %MON forcing_fu_del2              =   3.8807320837674E-03
(PID.TID 0000.0001) %MON forcing_fv_max               =   1.5611972634209E-02
(PID.TID 0000.0001) %MON forcing_fv_min               =  -3.3486191063240E-02
(PID.TID 0000.0001) %MON forcing_fv_mean              =  -2.2927476521831E-03
(PID.TID 0000.0001) %MON forcing_fv_sd                =   8.1767124608632E-03
(PID.TID 0000.0001) %MON forcing_fv_del2              =   1.5983783722742E-03
(PID.TID 0000.0001) %MON trAdv_CFL_u_max              =   4.3436768491958E-03
(PID.TID 0000.0001) %MON trAdv_CFL_v_max              =   3.2102342838797E-03
(PID.TID 0000.0001) %MON trAdv_CFL_w_max              =   7.8725424257517E-02
(PID.TID 0000.0001) %MON advcfl_uvel_max              =   4.3434563259488E-03
(PID.TID 0000.0001) %MON advcfl_vvel_max              =   3.1199261027144E-03
(PID.TID 0000.0001) %MON advcfl_wvel_max              =   1.4423250236790E-01
(PID.TID 0000.0001) %MON advcfl_W_hf_max              =   7.8725424257517E-02
(PID.TID 0000.0001) %MON pe_b_mean                    =   1.2994655038639E-03
(PID.TID 0000.0001) %MON ke_max                       =   1.4986665439739E-02
(PID.TID 0000.0001) %MON ke_mean                      =   1.9769094082228E-03
(PID.TID 0000.0001) %MON ke_vol                       =   2.0812333426156E+15
(PID.TID 0000.0001) %MON vort_r_min                   =  -7.9034513301485E-07
(PID.TID 0000.0001) %MON vort_r_max                   =   1.6169221966400E-06
(PID.TID 0000.0001) %MON vort_a_mean                  =   1.1459567532511E-04
(PID.TID 0000.0001) %MON vort_a_sd                    =   5.3736875947219E-06
(PID.TID 0000.0001) %MON vort_p_mean                  =   1.7066211100911E-04
(PID.TID 0000.0001) %MON vort_p_sd                    =   1.1050496674339E-04
(PID.TID 0000.0001) %MON surfExpan_theta_mean         =  -6.7172329942046E-05
(PID.TID 0000.0001) %MON surfExpan_salt_mean          =  -4.1884227414773E-03
(PID.TID 0000.0001) // =======================================================
(PID.TID 0000.0001) // End MONITOR dynamic field statistics
(PID.TID 0000.0001) // =======================================================
(PID.TID 0000.0001) // =======================================================
(PID.TID 0000.0001) // Begin OBCS MONITOR field statistics
(PID.TID 0000.0001) // =======================================================
(PID.TID 0000.0001) %MON obc_E_uVel_max               =   1.1544605725526E-01
(PID.TID 0000.0001) %MON obc_E_uVel_min               =   6.1235052917666E-02
(PID.TID 0000.0001) %MON obc_E_uVel_mean              =   9.9145511288540E-02
(PID.TID 0000.0001) %MON obc_E_uVel_sd                =   7.5608016355461E-03
(PID.TID 0000.0001) %MON obc_E_uVel_Int               =   2.0472455376487E+08
(PID.TID 0000.0001) %MON obc_W_uVel_max               =   6.4835873083912E-02
(PID.TID 0000.0001) %MON obc_W_uVel_min               =   1.9754965312409E-02
(PID.TID 0000.0001) %MON obc_W_uVel_mean              =   4.7569644971446E-02
(PID.TID 0000.0001) %MON obc_W_uVel_sd                =   7.9647478864607E-03
(PID.TID 0000.0001) %MON obc_W_uVel_Int               =   5.5010833104320E+06
(PID.TID 0000.0001) %MON obc_N_vVel_max               =  -2.5503757827486E-02
(PID.TID 0000.0001) %MON obc_N_vVel_min               =  -7.9713394040661E-02
(PID.TID 0000.0001) %MON obc_N_vVel_mean              =  -4.0653341599696E-02
(PID.TID 0000.0001) %MON obc_N_vVel_sd                =   9.5287881360103E-03
(PID.TID 0000.0001) %MON obc_N_vVel_Int               =  -5.3341254977005E+06
(PID.TID 0000.0001) %MON obc_S_vVel_max               =   5.3330623192699E-02
(PID.TID 0000.0001) %MON obc_S_vVel_min               =  -8.5887193855866E-03
(PID.TID 0000.0001) %MON obc_S_vVel_mean              =   4.7347404961916E-02
(PID.TID 0000.0001) %MON obc_S_vVel_sd                =   5.1588695524287E-03
(PID.TID 0000.0001) %MON obc_S_vVel_Int               =   4.1181917096993E+07
(PID.TID 0000.0001) // =======================================================
(PID.TID 0000.0001) // End OBCS MONITOR field statistics
(PID.TID 0000.0001) // =======================================================
(PID.TID 0000.0001) // =======================================================
(PID.TID 0000.0001) // Begin MONITOR SEAICE statistics
(PID.TID 0000.0001) // =======================================================
(PID.TID 0000.0001) %MON seaice_tsnumber              =                     6
(PID.TID 0000.0001) %MON seaice_time_sec              =   2.1600000000000E+04
(PID.TID 0000.0001) %MON seaice_uice_max              =   1.8871867903266E-01
(PID.TID 0000.0001) %MON seaice_uice_min              =  -3.4243338378354E-02
(PID.TID 0000.0001) %MON seaice_uice_mean             =   9.2089908314374E-02
(PID.TID 0000.0001) %MON seaice_uice_sd               =   6.0978951653363E-02
(PID.TID 0000.0001) %MON seaice_uice_del2             =   1.6916814666212E-02
(PID.TID 0000.0001) %MON seaice_vice_max              =   6.6179707305305E-02
(PID.TID 0000.0001) %MON seaice_vice_min              =  -8.9673132255371E-02
(PID.TID 0000.0001) %MON seaice_vice_mean             =   3.3519306713586E-03
(PID.TID 0000.0001) %MON seaice_vice_sd               =   3.3342672448144E-02
(PID.TID 0000.0001) %MON seaice_vice_del2             =   4.5245819706909E-03
(PID.TID 0000.0001) %MON seaice_area_max              =   9.9234744465937E-01
(PID.TID 0000.0001) %MON seaice_area_min              =   0.0000000000000E+00
(PID.TID 0000.0001) %MON seaice_area_mean             =   3.3461481879264E-01
(PID.TID 0000.0001) %MON seaice_area_sd               =   4.1192138230065E-01
(PID.TID 0000.0001) %MON seaice_area_del2             =   7.0385248188701E-02
(PID.TID 0000.0001) %MON seaice_heff_max              =   4.6743919550283E-01
(PID.TID 0000.0001) %MON seaice_heff_min              =   0.0000000000000E+00
(PID.TID 0000.0001) %MON seaice_heff_mean             =   7.8697108595808E-02
(PID.TID 0000.0001) %MON seaice_heff_sd               =   1.1812022060271E-01
(PID.TID 0000.0001) %MON seaice_heff_del2             =   1.3868332268287E-02
(PID.TID 0000.0001) %MON seaice_hsnow_max             =   8.1847697817806E-02
(PID.TID 0000.0001) %MON seaice_hsnow_min             =   0.0000000000000E+00
(PID.TID 0000.0001) %MON seaice_hsnow_mean            =   1.7368177964133E-02
(PID.TID 0000.0001) %MON seaice_hsnow_sd              =   2.4925469986919E-02
(PID.TID 0000.0001) %MON seaice_hsnow_del2            =   4.2746175832360E-03
(PID.TID 0000.0001) %MON seaice_hsalt_max             =   9.9115658409040E+01
(PID.TID 0000.0001) %MON seaice_hsalt_min             =  -2.7105054312138E-20
(PID.TID 0000.0001) %MON seaice_hsalt_mean            =   8.9415122386314E+00
(PID.TID 0000.0001) %MON seaice_hsalt_sd              =   1.9604082166899E+01
(PID.TID 0000.0001) %MON seaice_hsalt_del2            =   9.4215106992408E+00
(PID.TID 0000.0001) // =======================================================
(PID.TID 0000.0001) // End MONITOR SEAICE statistics
(PID.TID 0000.0001) // =======================================================
(PID.TID 0000.0001) %CHECKPOINT         6 ckptA
(PID.TID 0000.0001)   Seconds in section "ALL                    [THE_MODEL_MAIN]":
(PID.TID 0000.0001)           User time:  0.25126600870862603
(PID.TID 0000.0001)         System time:   1.6157999634742737E-002
(PID.TID 0000.0001)     Wall clock time:  0.26791405677795410
(PID.TID 0000.0001)          No. starts:           1
(PID.TID 0000.0001)           No. stops:           1
(PID.TID 0000.0001)   Seconds in section "INITIALISE_FIXED       [THE_MODEL_MAIN]":
(PID.TID 0000.0001)           User time:   2.0922999363392591E-002
(PID.TID 0000.0001)         System time:   5.1450002938508987E-003
(PID.TID 0000.0001)     Wall clock time:   2.6345014572143555E-002
(PID.TID 0000.0001)          No. starts:           1
(PID.TID 0000.0001)           No. stops:           1
(PID.TID 0000.0001)   Seconds in section "THE_MAIN_LOOP          [THE_MODEL_MAIN]":
(PID.TID 0000.0001)           User time:  0.23032600246369839
(PID.TID 0000.0001)         System time:   1.1008999310433865E-002
(PID.TID 0000.0001)     Wall clock time:  0.24155092239379883
(PID.TID 0000.0001)          No. starts:           1
(PID.TID 0000.0001)           No. stops:           1
(PID.TID 0000.0001)   Seconds in section "INITIALISE_VARIA    [THE_MAIN_LOOP]":
(PID.TID 0000.0001)           User time:   8.3959996700286865E-003
(PID.TID 0000.0001)         System time:   3.3999998122453690E-003
(PID.TID 0000.0001)     Wall clock time:   1.1837959289550781E-002
(PID.TID 0000.0001)          No. starts:           1
(PID.TID 0000.0001)           No. stops:           1
(PID.TID 0000.0001)   Seconds in section "MAIN LOOP           [THE_MAIN_LOOP]":
(PID.TID 0000.0001)           User time:  0.22191399335861206
(PID.TID 0000.0001)         System time:   7.6059987768530846E-003
(PID.TID 0000.0001)     Wall clock time:  0.22969603538513184
(PID.TID 0000.0001)          No. starts:           1
(PID.TID 0000.0001)           No. stops:           1
(PID.TID 0000.0001)   Seconds in section "MAIN_DO_LOOP        [THE_MAIN_LOOP]":
(PID.TID 0000.0001)           User time:  0.22188202291727066
(PID.TID 0000.0001)         System time:   7.6049994677305222E-003
(PID.TID 0000.0001)     Wall clock time:  0.22966504096984863
(PID.TID 0000.0001)          No. starts:           5
(PID.TID 0000.0001)           No. stops:           5
(PID.TID 0000.0001)   Seconds in section "FORWARD_STEP        [MAIN_DO_LOOP]":
(PID.TID 0000.0001)           User time:  0.22183198481798172
(PID.TID 0000.0001)         System time:   7.6030008494853973E-003
(PID.TID 0000.0001)     Wall clock time:  0.22961020469665527
(PID.TID 0000.0001)          No. starts:           5
(PID.TID 0000.0001)           No. stops:           5
(PID.TID 0000.0001)   Seconds in section "LOAD_FIELDS_DRIVER  [FORWARD_STEP]":
(PID.TID 0000.0001)           User time:   3.2590106129646301E-003
(PID.TID 0000.0001)         System time:   4.6099908649921417E-004
(PID.TID 0000.0001)     Wall clock time:   3.7209987640380859E-003
(PID.TID 0000.0001)          No. starts:           5
(PID.TID 0000.0001)           No. stops:           5
(PID.TID 0000.0001)   Seconds in section "EXF_GETFORCING     [LOAD_FLDS_DRIVER]":
(PID.TID 0000.0001)           User time:   3.1530074775218964E-003
(PID.TID 0000.0001)         System time:   4.5899953693151474E-004
(PID.TID 0000.0001)     Wall clock time:   3.6122798919677734E-003
(PID.TID 0000.0001)          No. starts:           5
(PID.TID 0000.0001)           No. stops:           5
(PID.TID 0000.0001)   Seconds in section "EXTERNAL_FLDS_LOAD [LOAD_FLDS_DRIVER]":
(PID.TID 0000.0001)           User time:   2.7004629373550415E-005
(PID.TID 0000.0001)         System time:   1.0002404451370239E-006
(PID.TID 0000.0001)     Wall clock time:   2.6941299438476562E-005
(PID.TID 0000.0001)          No. starts:           5
(PID.TID 0000.0001)           No. stops:           5
(PID.TID 0000.0001)   Seconds in section "DO_ATMOSPHERIC_PHYS [FORWARD_STEP]":
(PID.TID 0000.0001)           User time:   2.5995075702667236E-005
(PID.TID 0000.0001)         System time:   9.9930912256240845E-007
(PID.TID 0000.0001)     Wall clock time:   2.5033950805664062E-005
(PID.TID 0000.0001)          No. starts:           5
(PID.TID 0000.0001)           No. stops:           5
(PID.TID 0000.0001)   Seconds in section "DO_OCEANIC_PHYS     [FORWARD_STEP]":
(PID.TID 0000.0001)           User time:   8.1156998872756958E-002
(PID.TID 0000.0001)         System time:   4.3700030073523521E-003
(PID.TID 0000.0001)     Wall clock time:   8.5602283477783203E-002
(PID.TID 0000.0001)          No. starts:           5
(PID.TID 0000.0001)           No. stops:           5
(PID.TID 0000.0001)   Seconds in section "SEAICE_MODEL    [DO_OCEANIC_PHYS]":
(PID.TID 0000.0001)           User time:   1.6834001988172531E-002
(PID.TID 0000.0001)         System time:   7.2997994720935822E-005
(PID.TID 0000.0001)     Wall clock time:   1.6918182373046875E-002
(PID.TID 0000.0001)          No. starts:           5
(PID.TID 0000.0001)           No. stops:           5
(PID.TID 0000.0001)   Seconds in section "SEAICE_DYNSOLVER   [SEAICE_MODEL]":
(PID.TID 0000.0001)           User time:   1.2974996119737625E-002
(PID.TID 0000.0001)         System time:   5.5997632443904877E-005
(PID.TID 0000.0001)     Wall clock time:   1.3046741485595703E-002
(PID.TID 0000.0001)          No. starts:           5
(PID.TID 0000.0001)           No. stops:           5
(PID.TID 0000.0001)   Seconds in section "KPP_CALC [DO_OCEANIC_PHYS]":
(PID.TID 0000.0001)           User time:   4.1934993118047714E-002
(PID.TID 0000.0001)         System time:   8.1000849604606628E-005
(PID.TID 0000.0001)     Wall clock time:   4.2038202285766602E-002
(PID.TID 0000.0001)          No. starts:          10
(PID.TID 0000.0001)           No. stops:          10
(PID.TID 0000.0001)   Seconds in section "DYNAMICS            [FORWARD_STEP]":
(PID.TID 0000.0001)           User time:   4.3141994625329971E-002
(PID.TID 0000.0001)         System time:   2.8997659683227539E-005
(PID.TID 0000.0001)     Wall clock time:   4.3195724487304688E-002
(PID.TID 0000.0001)          No. starts:           5
(PID.TID 0000.0001)           No. stops:           5
(PID.TID 0000.0001)   Seconds in section "SOLVE_FOR_PRESSURE  [FORWARD_STEP]":
(PID.TID 0000.0001)           User time:   3.0129961669445038E-003
(PID.TID 0000.0001)         System time:   7.9981982707977295E-006
(PID.TID 0000.0001)     Wall clock time:   3.0281543731689453E-003
(PID.TID 0000.0001)          No. starts:           5
(PID.TID 0000.0001)           No. stops:           5
(PID.TID 0000.0001)   Seconds in section "MOM_CORRECTION_STEP [FORWARD_STEP]":
(PID.TID 0000.0001)           User time:   2.7480125427246094E-003
(PID.TID 0000.0001)         System time:   2.0004808902740479E-006
(PID.TID 0000.0001)     Wall clock time:   2.7499198913574219E-003
(PID.TID 0000.0001)          No. starts:           5
(PID.TID 0000.0001)           No. stops:           5
(PID.TID 0000.0001)   Seconds in section "INTEGR_CONTINUITY   [FORWARD_STEP]":
(PID.TID 0000.0001)           User time:   9.7098946571350098E-004
(PID.TID 0000.0001)         System time:   0.0000000000000000
(PID.TID 0000.0001)     Wall clock time:   9.7560882568359375E-004
(PID.TID 0000.0001)          No. starts:           5
(PID.TID 0000.0001)           No. stops:           5
(PID.TID 0000.0001)   Seconds in section "BLOCKING_EXCHANGES  [FORWARD_STEP]":
(PID.TID 0000.0001)           User time:   3.1570196151733398E-003
(PID.TID 0000.0001)         System time:   2.0004808902740479E-006
(PID.TID 0000.0001)     Wall clock time:   3.1628608703613281E-003
(PID.TID 0000.0001)          No. starts:          10
(PID.TID 0000.0001)           No. stops:          10
(PID.TID 0000.0001)   Seconds in section "THERMODYNAMICS      [FORWARD_STEP]":
(PID.TID 0000.0001)           User time:   7.1312017738819122E-002
(PID.TID 0000.0001)         System time:   3.1000003218650818E-005
(PID.TID 0000.0001)     Wall clock time:   7.1388959884643555E-002
(PID.TID 0000.0001)          No. starts:           5
(PID.TID 0000.0001)           No. stops:           5
(PID.TID 0000.0001)   Seconds in section "TRC_CORRECTION_STEP [FORWARD_STEP]":
(PID.TID 0000.0001)           User time:   2.7000904083251953E-005
(PID.TID 0000.0001)         System time:   0.0000000000000000
(PID.TID 0000.0001)     Wall clock time:   2.8848648071289062E-005
(PID.TID 0000.0001)          No. starts:           5
(PID.TID 0000.0001)           No. stops:           5
(PID.TID 0000.0001)   Seconds in section "DO_STATEVARS_TAVE   [FORWARD_STEP]":
(PID.TID 0000.0001)           User time:   3.0980035662651062E-003
(PID.TID 0000.0001)         System time:   1.9986182451248169E-006
(PID.TID 0000.0001)     Wall clock time:   3.1082630157470703E-003
(PID.TID 0000.0001)          No. starts:           5
(PID.TID 0000.0001)           No. stops:           5
(PID.TID 0000.0001)   Seconds in section "MONITOR             [FORWARD_STEP]":
(PID.TID 0000.0001)           User time:   6.1659887433052063E-003
(PID.TID 0000.0001)         System time:   1.6900151968002319E-004
(PID.TID 0000.0001)     Wall clock time:   6.3447952270507812E-003
(PID.TID 0000.0001)          No. starts:           5
(PID.TID 0000.0001)           No. stops:           5
(PID.TID 0000.0001)   Seconds in section "DO_THE_MODEL_IO     [FORWARD_STEP]":
(PID.TID 0000.0001)           User time:   2.7870088815689087E-003
(PID.TID 0000.0001)         System time:   1.9349996000528336E-003
(PID.TID 0000.0001)     Wall clock time:   4.7414302825927734E-003
(PID.TID 0000.0001)          No. starts:           5
(PID.TID 0000.0001)           No. stops:           5
(PID.TID 0000.0001)   Seconds in section "DO_WRITE_PICKUP     [FORWARD_STEP]":
(PID.TID 0000.0001)           User time:   5.4401159286499023E-004
(PID.TID 0000.0001)         System time:   5.5500119924545288E-004
(PID.TID 0000.0001)     Wall clock time:   1.1041164398193359E-003
(PID.TID 0000.0001)          No. starts:           5
(PID.TID 0000.0001)           No. stops:           5
(PID.TID 0000.0001) // ======================================================
(PID.TID 0000.0001) // Tile <-> Tile communication statistics
(PID.TID 0000.0001) // ======================================================
(PID.TID 0000.0001) // o Tile number: 000001
(PID.TID 0000.0001) //         No. X exchanges =              0
(PID.TID 0000.0001) //            Max. X spins =              0
(PID.TID 0000.0001) //            Min. X spins =     1000000000
(PID.TID 0000.0001) //          Total. X spins =              0
(PID.TID 0000.0001) //            Avg. X spins =       0.00E+00
(PID.TID 0000.0001) //         No. Y exchanges =              0
(PID.TID 0000.0001) //            Max. Y spins =              0
(PID.TID 0000.0001) //            Min. Y spins =     1000000000
(PID.TID 0000.0001) //          Total. Y spins =              0
(PID.TID 0000.0001) //            Avg. Y spins =       0.00E+00
(PID.TID 0000.0001) // o Tile number: 000002
(PID.TID 0000.0001) //         No. X exchanges =              0
(PID.TID 0000.0001) //            Max. X spins =              0
(PID.TID 0000.0001) //            Min. X spins =     1000000000
(PID.TID 0000.0001) //          Total. X spins =              0
(PID.TID 0000.0001) //            Avg. X spins =       0.00E+00
(PID.TID 0000.0001) //         No. Y exchanges =              0
(PID.TID 0000.0001) //            Max. Y spins =              0
(PID.TID 0000.0001) //            Min. Y spins =     1000000000
(PID.TID 0000.0001) //          Total. Y spins =              0
(PID.TID 0000.0001) //            Avg. Y spins =       0.00E+00
(PID.TID 0000.0001) // o Thread number: 000001
(PID.TID 0000.0001) //            No. barriers =           6242
(PID.TID 0000.0001) //      Max. barrier spins =              1
(PID.TID 0000.0001) //      Min. barrier spins =              1
(PID.TID 0000.0001) //     Total barrier spins =           6242
(PID.TID 0000.0001) //      Avg. barrier spins =       1.00E+00
PROGRAM MAIN: Execution ended Normally
