(PID.TID 0000.0001) 
(PID.TID 0000.0001) // ======================================================
(PID.TID 0000.0001) //                      MITgcm UV
(PID.TID 0000.0001) //                      =========
(PID.TID 0000.0001) // ======================================================
(PID.TID 0000.0001) // execution environment starting up...
(PID.TID 0000.0001) 
(PID.TID 0000.0001) // MITgcmUV version:  checkpoint67t
(PID.TID 0000.0001) // Build user:        jm_c
(PID.TID 0000.0001) // Build host:        villon
(PID.TID 0000.0001) // Build date:        Fri Dec 11 09:37:49 EST 2020
(PID.TID 0000.0001) 
(PID.TID 0000.0001) // =======================================================
(PID.TID 0000.0001) // Execution Environment parameter file "eedata"
(PID.TID 0000.0001) // =======================================================
(PID.TID 0000.0001) ># Example "eedata" file
(PID.TID 0000.0001) ># Lines beginning "#" are comments
(PID.TID 0000.0001) ># nTx - No. threads per process in X
(PID.TID 0000.0001) ># nTy - No. threads per process in Y
(PID.TID 0000.0001) > &EEPARMS
(PID.TID 0000.0001) > nTx=1,
(PID.TID 0000.0001) > nTy=1,
(PID.TID 0000.0001) > /
(PID.TID 0000.0001) ># Note: Some systems use & as the namelist terminator (as shown here).
(PID.TID 0000.0001) >#       Other systems use a / character.
(PID.TID 0000.0001) 
(PID.TID 0000.0001) // =======================================================
(PID.TID 0000.0001) // Computational Grid Specification ( see files "SIZE.h" )
(PID.TID 0000.0001) //                                  ( and "eedata"       )
(PID.TID 0000.0001) // =======================================================
(PID.TID 0000.0001)      nPx =    1 ; /* No. processes in X */
(PID.TID 0000.0001)      nPy =    1 ; /* No. processes in Y */
(PID.TID 0000.0001)      nSx =    2 ; /* No. tiles in X per process */
(PID.TID 0000.0001)      nSy =    1 ; /* No. tiles in Y per process */
(PID.TID 0000.0001)      sNx =    5 ; /* Tile size in X */
(PID.TID 0000.0001)      sNy =    8 ; /* Tile size in Y */
(PID.TID 0000.0001)      OLx =    4 ; /* Tile overlap distance in X */
(PID.TID 0000.0001)      OLy =    4 ; /* Tile overlap distance in Y */
(PID.TID 0000.0001)      nTx =    1 ; /* No. threads in X per process */
(PID.TID 0000.0001)      nTy =    1 ; /* No. threads in Y per process */
(PID.TID 0000.0001)       Nr =   23 ; /* No. levels in the vertical   */
(PID.TID 0000.0001)       Nx =   10 ; /* Total domain size in X ( = nPx*nSx*sNx ) */
(PID.TID 0000.0001)       Ny =    8 ; /* Total domain size in Y ( = nPy*nSy*sNy ) */
(PID.TID 0000.0001)   nTiles =    2 ; /* Total no. tiles per process ( = nSx*nSy ) */
(PID.TID 0000.0001)   nProcs =    1 ; /* Total no. processes ( = nPx*nPy ) */
(PID.TID 0000.0001) nThreads =    1 ; /* Total no. threads per process ( = nTx*nTy ) */
(PID.TID 0000.0001) usingMPI =    F ; /* Flag used to control whether MPI is in use */
(PID.TID 0000.0001)                   /*  note: To execute a program with MPI calls */
(PID.TID 0000.0001)                   /*  it must be launched appropriately e.g     */
(PID.TID 0000.0001)                   /*  "mpirun -np 64 ......"                    */
(PID.TID 0000.0001) useCoupler=   F ; /* Flag used to control communications with   */
(PID.TID 0000.0001)                   /*  other model components, through a coupler */
(PID.TID 0000.0001) useNest2W_parent =    F ;/* Control 2-W Nesting comm */
(PID.TID 0000.0001) useNest2W_child  =    F ;/* Control 2-W Nesting comm */
(PID.TID 0000.0001) debugMode =    F ; /* print debug msg. (sequence of S/R calls)  */
(PID.TID 0000.0001) printMapIncludesZeros=    F ; /* print zeros in Std.Output maps */
(PID.TID 0000.0001) maxLengthPrt1D=   65 /* maxLength of 1D array printed to StdOut */
(PID.TID 0000.0001) 
(PID.TID 0000.0001) // ======================================================
(PID.TID 0000.0001) // Mapping of tiles to threads
(PID.TID 0000.0001) // ======================================================
(PID.TID 0000.0001) // -o- Thread   1, tiles (   1:   2,   1:   1)
(PID.TID 0000.0001) 
(PID.TID 0000.0001) // ======================================================
(PID.TID 0000.0001) // Tile <-> Tile connectvity table
(PID.TID 0000.0001) // ======================================================
(PID.TID 0000.0001) // Tile number: 000001 (process no. = 000000)
(PID.TID 0000.0001) //        WEST: Tile = 000002, Process = 000000, Comm = put
(PID.TID 0000.0001) //                bi = 000002, bj = 000001
(PID.TID 0000.0001) //        EAST: Tile = 000002, Process = 000000, Comm = put
(PID.TID 0000.0001) //                bi = 000002, bj = 000001
(PID.TID 0000.0001) //       SOUTH: Tile = 000001, Process = 000000, Comm = put
(PID.TID 0000.0001) //                bi = 000001, bj = 000001
(PID.TID 0000.0001) //       NORTH: Tile = 000001, Process = 000000, Comm = put
(PID.TID 0000.0001) //                bi = 000001, bj = 000001
(PID.TID 0000.0001) // Tile number: 000002 (process no. = 000000)
(PID.TID 0000.0001) //        WEST: Tile = 000001, Process = 000000, Comm = put
(PID.TID 0000.0001) //                bi = 000001, bj = 000001
(PID.TID 0000.0001) //        EAST: Tile = 000001, Process = 000000, Comm = put
(PID.TID 0000.0001) //                bi = 000001, bj = 000001
(PID.TID 0000.0001) //       SOUTH: Tile = 000002, Process = 000000, Comm = put
(PID.TID 0000.0001) //                bi = 000002, bj = 000001
(PID.TID 0000.0001) //       NORTH: Tile = 000002, Process = 000000, Comm = put
(PID.TID 0000.0001) //                bi = 000002, bj = 000001
(PID.TID 0000.0001) 
(PID.TID 0000.0001)  INI_PARMS: opening model parameter file "data"
(PID.TID 0000.0001)  OPEN_COPY_DATA_FILE: opening file data
(PID.TID 0000.0001) // =======================================================
(PID.TID 0000.0001) // Parameter file "data"
(PID.TID 0000.0001) // =======================================================
(PID.TID 0000.0001) ># ====================
(PID.TID 0000.0001) ># | Model parameters |
(PID.TID 0000.0001) ># ====================
(PID.TID 0000.0001) >#
(PID.TID 0000.0001) ># Continuous equation parameters
(PID.TID 0000.0001) >#
(PID.TID 0000.0001) >#   tRef            - Reference vertical potential temperature          (deg C)
(PID.TID 0000.0001) >#   sRef            - Reference vertical salinity                         (PSU)
(PID.TID 0000.0001) >#   viscAh          - Horizontal eddy viscosity coefficient             (m^2/s)
(PID.TID 0000.0001) >#   viscAz          - Vertical eddy viscosity coefficient               (m^2/s)
(PID.TID 0000.0001) >#   diffKhT         - Horizontal temperature diffusivity                (m^2/s)
(PID.TID 0000.0001) >#   diffKzT         - Vertical temperature diffusivity                  (m^2/s)
(PID.TID 0000.0001) >#   diffKhS         - Horizontal salt diffusivity                       (m^2/s)
(PID.TID 0000.0001) >#   diffKzS         - Vertical salt diffusivity                         (m^2/s)
(PID.TID 0000.0001) >#   gravity         - Acceleration due to gravity                       (m/s^2)
(PID.TID 0000.0001) >#   rigidLid        - Set to true to use rigid lid
(PID.TID 0000.0001) >#   implicitFreeSurface - Set to true to use implicit free surface
(PID.TID 0000.0001) >#   eosType         - Flag for linear or polynomial equation of state
(PID.TID 0000.0001) >#   momAdvection    - On/Off flag for momentum self transport
(PID.TID 0000.0001) >#   momViscosity    - On/Off flag for momentum mixing
(PID.TID 0000.0001) >#
(PID.TID 0000.0001) > &PARM01
(PID.TID 0000.0001) > tRef= 24.0 , 23.0 , 22.0 , 21.0 , 20.0 ,
(PID.TID 0000.0001) >       19.0 , 18.0 , 17.0 , 16.0 , 15.0 ,
(PID.TID 0000.0001) >       14.0 , 13.0 , 12.0 , 11.0 , 10.0 ,
(PID.TID 0000.0001) >        9.0 ,  8.0 ,  7.0 ,  6.0,   5.0 ,
(PID.TID 0000.0001) >        4.0 ,  3.0 ,  2.0 ,
(PID.TID 0000.0001) > sRef= 34.65, 34.75, 34.82, 34.87, 34.90,
(PID.TID 0000.0001) >       34.90, 34.86, 34.78, 34.69, 34.60,
(PID.TID 0000.0001) >       34.58, 34.62, 34.68, 34.72, 34.73,
(PID.TID 0000.0001) >       34.74, 34.73, 34.73, 34.72, 34.72,
(PID.TID 0000.0001) >       34.71, 34.70, 34.69,
(PID.TID 0000.0001) > no_slip_sides=.FALSE.,
(PID.TID 0000.0001) > no_slip_bottom=.TRUE.,
(PID.TID 0000.0001) > viscAz=1.93e-5,
(PID.TID 0000.0001) > viscAh=5.E4,
(PID.TID 0000.0001) > diffKhT=0.0,
(PID.TID 0000.0001) > diffKzT=1.46e-5,
(PID.TID 0000.0001) > diffKhS=0.0,
(PID.TID 0000.0001) > diffKzS=1.46e-5,
(PID.TID 0000.0001) > rigidLid=.FALSE.,
(PID.TID 0000.0001) > implicitFreeSurface=.TRUE.,
(PID.TID 0000.0001) > eosType='JMD95Z',
(PID.TID 0000.0001) > saltStepping=.TRUE.,
(PID.TID 0000.0001) > tempStepping=.TRUE.,
(PID.TID 0000.0001) > momStepping=.TRUE.,
(PID.TID 0000.0001) > implicitDiffusion=.TRUE.,
(PID.TID 0000.0001) > implicitViscosity=.TRUE.,
(PID.TID 0000.0001) > staggerTimeStep=.TRUE.,
(PID.TID 0000.0001) > tempAdvScheme =7,
(PID.TID 0000.0001) > saltAdvScheme =7,
(PID.TID 0000.0001) > convertFW2Salt=-1,
(PID.TID 0000.0001) > allowFreezing=.FALSE.,
(PID.TID 0000.0001) >#- set wrong celsius2K to reproduce old results:
(PID.TID 0000.0001) > celsius2K=273.16,
(PID.TID 0000.0001) > HeatCapacity_Cp = 3986.D0,
(PID.TID 0000.0001) > gravity         = 9.8156,
(PID.TID 0000.0001) > rhoConst        = 1027.D0,
(PID.TID 0000.0001) > rhoConstFresh   = 999.8,
(PID.TID 0000.0001) > useSingleCpuIO=.TRUE.,
(PID.TID 0000.0001) > readBinaryPrec=32,
(PID.TID 0000.0001) > writeBinaryPrec=32,
(PID.TID 0000.0001) > /
(PID.TID 0000.0001) >
(PID.TID 0000.0001) ># Elliptic solver parameters
(PID.TID 0000.0001) >#
(PID.TID 0000.0001) >#   cg2dMaxIters       - Maximum number of 2d solver iterations
(PID.TID 0000.0001) >#   cg2dTargetResidual - Solver target residual
(PID.TID 0000.0001) >#
(PID.TID 0000.0001) > &PARM02
(PID.TID 0000.0001) > cg2dMaxIters=500,
(PID.TID 0000.0001) > cg2dTargetResidual=1.E-12,
(PID.TID 0000.0001) > /
(PID.TID 0000.0001) >
(PID.TID 0000.0001) ># Time stepping parameters
(PID.TID 0000.0001) >#
(PID.TID 0000.0001) >#   startTime         - Integration starting time                (s)
(PID.TID 0000.0001) >#   endTime           - Integration ending time                  (s)
(PID.TID 0000.0001) >#   deltaTMom         - Timestep for momemtum equations          (s)
(PID.TID 0000.0001) >#   deltaTtracer      - Tracer timestep                          (s)
(PID.TID 0000.0001) >#   deltaTClock       - Timestep used as model "clock"           (s)
(PID.TID 0000.0001) >#   abEps             - Adams-Bashforth stabilising factor
(PID.TID 0000.0001) >#   pChkPtFreq        - Frequency of permanent check pointing    (s)
(PID.TID 0000.0001) >#   chkPtFreq         - Frequency of rolling check pointing      (s)
(PID.TID 0000.0001) >#   dumpFreq          - Frequency at which model state is stored (s)
(PID.TID 0000.0001) >#   tauThetaClimRelax - Relaxation to climatology time scale     (s)
(PID.TID 0000.0001) >#   tauSaltClimRelax  - Relaxation to climatology time scale     (s)
(PID.TID 0000.0001) >#
(PID.TID 0000.0001) > &PARM03
(PID.TID 0000.0001) > startTime=3600.0,
(PID.TID 0000.0001) > endTime=21600.,
(PID.TID 0000.0001) > deltaTmom=3600.0,
(PID.TID 0000.0001) > deltaTtracer=3600.0,
(PID.TID 0000.0001) > deltaTClock =3600.0,
(PID.TID 0000.0001) > cAdjFreq=0.,
(PID.TID 0000.0001) > abEps=0.1,
(PID.TID 0000.0001) > forcing_In_AB = .FALSE.,
(PID.TID 0000.0001) > pChkptFreq=36000.,
(PID.TID 0000.0001) > chkptFreq= 0.,
(PID.TID 0000.0001) > dumpFreq = 0.,
(PID.TID 0000.0001) > taveFreq = 36000.,
(PID.TID 0000.0001) > monitorFreq=1.,
(PID.TID 0000.0001) > pickupStrictlyMatch=.FALSE.,
(PID.TID 0000.0001) > /
(PID.TID 0000.0001) >
(PID.TID 0000.0001) ># Gridding parameters
(PID.TID 0000.0001) >#
(PID.TID 0000.0001) >#   usingSphericalPolarGrid - On/Off flag for spherical polar coordinates
(PID.TID 0000.0001) >#   delX                    - Zonal grid spacing         (degrees)
(PID.TID 0000.0001) >#   delY                    - Meridional grid spacing    (degrees)
(PID.TID 0000.0001) >#   delZ                    - Vertical grid spacing      (m)
(PID.TID 0000.0001) >#   ygOrigin                - Southern boundary latitude (degrees)
(PID.TID 0000.0001) >#
(PID.TID 0000.0001) > &PARM04
(PID.TID 0000.0001) > usingSphericalPolarGrid=.TRUE.,
(PID.TID 0000.0001) > delX=10*2.E0,
(PID.TID 0000.0001) > delY= 8*2.E0,
(PID.TID 0000.0001) > delZ= 10., 10., 15., 20., 20., 25., 35., 50., 75.,
(PID.TID 0000.0001) >       100., 150., 200., 275., 350., 415., 450.,
(PID.TID 0000.0001) >       500., 500., 500., 500., 500., 500., 500.,
(PID.TID 0000.0001) > ygOrigin=46.,
(PID.TID 0000.0001) > xgOrigin=280.,
(PID.TID 0000.0001) > rSphere = 6371.D3,
(PID.TID 0000.0001) > /
(PID.TID 0000.0001) >
(PID.TID 0000.0001) ># Input datasets
(PID.TID 0000.0001) >#
(PID.TID 0000.0001) >#   bathyFile       - File containing bathymetry
(PID.TID 0000.0001) >#   hydrogThetaFile - File containing initial potential temperature data
(PID.TID 0000.0001) >#   hydrogSaltFile  - File containing initial salinity data
(PID.TID 0000.0001) >#   zonalWindFile   - File containing zonal wind data
(PID.TID 0000.0001) >#   meridWindFile   - File containing meridional wind data
(PID.TID 0000.0001) >#   thetaClimFile   - File containing theta climatology used for relaxation
(PID.TID 0000.0001) >#   saltClimFile    - File containing salt climatology used for relaxation
(PID.TID 0000.0001) >#
(PID.TID 0000.0001) > &PARM05
(PID.TID 0000.0001) > bathyFile       = 'bathy.seaice_obcs',
(PID.TID 0000.0001) > /
(PID.TID 0000.0001) 
(PID.TID 0000.0001)  INI_PARMS ; starts to read PARM01
(PID.TID 0000.0001)  INI_PARMS ; read PARM01 : OK
(PID.TID 0000.0001)  INI_PARMS ; starts to read PARM02
(PID.TID 0000.0001)  INI_PARMS ; read PARM02 : OK
(PID.TID 0000.0001)  INI_PARMS ; starts to read PARM03
(PID.TID 0000.0001)  INI_PARMS ; read PARM03 : OK
(PID.TID 0000.0001)  INI_PARMS ; starts to read PARM04
(PID.TID 0000.0001)  INI_PARMS ; read PARM04 : OK
(PID.TID 0000.0001)  INI_PARMS ; starts to read PARM05
(PID.TID 0000.0001)  INI_PARMS ; read PARM05 : OK
(PID.TID 0000.0001)  INI_PARMS: finished reading file "data"
(PID.TID 0000.0001)  PACKAGES_BOOT: opening data.pkg
(PID.TID 0000.0001)  OPEN_COPY_DATA_FILE: opening file data.pkg
(PID.TID 0000.0001) // =======================================================
(PID.TID 0000.0001) // Parameter file "data.pkg"
(PID.TID 0000.0001) // =======================================================
(PID.TID 0000.0001) ># Packages
(PID.TID 0000.0001) > &PACKAGES
(PID.TID 0000.0001) >  useGMRedi = .TRUE.,
(PID.TID 0000.0001) >  useKPP    = .TRUE.,
(PID.TID 0000.0001) >  useEXF    = .TRUE.,
(PID.TID 0000.0001) >  useCAL    = .TRUE.,
(PID.TID 0000.0001) >  useSEAICE = .TRUE.,
(PID.TID 0000.0001) >  useSALT_PLUME  = .TRUE.,
(PID.TID 0000.0001) >  useOBCS        = .TRUE.,
(PID.TID 0000.0001) > /
(PID.TID 0000.0001) 
(PID.TID 0000.0001)  PACKAGES_BOOT: finished reading data.pkg
(PID.TID 0000.0001)  PACKAGES_BOOT: On/Off package Summary
 --------  pkgs with a standard "usePKG" On/Off switch in "data.pkg":  --------
 pkg/obcs                 compiled   and   used ( useOBCS                  = T )
 pkg/kpp                  compiled   and   used ( useKPP                   = T )
 pkg/gmredi               compiled   and   used ( useGMRedi                = T )
 pkg/cal                  compiled   and   used ( useCAL                   = T )
 pkg/exf                  compiled   and   used ( useEXF                   = T )
 pkg/seaice               compiled   and   used ( useSEAICE                = T )
 pkg/salt_plume           compiled   and   used ( useSALT_PLUME            = T )
 -------- pkgs without standard "usePKG" On/Off switch in "data.pkg":  --------
 pkg/generic_advdiff      compiled   and   used ( useGAD                   = T )
 pkg/mom_common           compiled   and   used ( momStepping              = T )
 pkg/mom_vecinv           compiled but not used ( +vectorInvariantMomentum = F )
 pkg/mom_fluxform         compiled   and   used ( & not vectorInvariantMom = T )
 pkg/monitor              compiled   and   used ( monitorFreq > 0.         = T )
 pkg/timeave              compiled   and   used ( taveFreq > 0.            = T )
 pkg/debug                compiled but not used ( debugMode                = F )
 pkg/rw                   compiled   and   used
 pkg/mdsio                compiled   and   used
(PID.TID 0000.0001)  PACKAGES_BOOT: End of package Summary
(PID.TID 0000.0001) 
(PID.TID 0000.0001) CAL_READPARMS: opening data.cal
(PID.TID 0000.0001)  OPEN_COPY_DATA_FILE: opening file data.cal
(PID.TID 0000.0001) // =======================================================
(PID.TID 0000.0001) // Parameter file "data.cal"
(PID.TID 0000.0001) // =======================================================
(PID.TID 0000.0001) >#
(PID.TID 0000.0001) ># *******************
(PID.TID 0000.0001) ># Calendar Parameters
(PID.TID 0000.0001) ># *******************
(PID.TID 0000.0001) > &CAL_NML
(PID.TID 0000.0001) > TheCalendar='gregorian',
(PID.TID 0000.0001) > startDate_1=19790101,
(PID.TID 0000.0001) > startDate_2=000000,
(PID.TID 0000.0001) > /
(PID.TID 0000.0001) 
(PID.TID 0000.0001) CAL_READPARMS: finished reading data.cal
(PID.TID 0000.0001) EXF_READPARMS: opening data.exf
(PID.TID 0000.0001)  OPEN_COPY_DATA_FILE: opening file data.exf
(PID.TID 0000.0001) // =======================================================
(PID.TID 0000.0001) // Parameter file "data.exf"
(PID.TID 0000.0001) // =======================================================
(PID.TID 0000.0001) >#
(PID.TID 0000.0001) ># *********************
(PID.TID 0000.0001) ># External Forcing Data
(PID.TID 0000.0001) ># *********************
(PID.TID 0000.0001) > &EXF_NML_01
(PID.TID 0000.0001) >#
(PID.TID 0000.0001) > useExfCheckRange  = .TRUE.,
(PID.TID 0000.0001) > repeatPeriod      = 31622400.0,
(PID.TID 0000.0001) > exf_iprec         = 32,
(PID.TID 0000.0001) >#
(PID.TID 0000.0001) > /
(PID.TID 0000.0001) >
(PID.TID 0000.0001) ># *********************
(PID.TID 0000.0001) > &EXF_NML_02
(PID.TID 0000.0001) >#
(PID.TID 0000.0001) > hfluxstartdate1   = 19781216,
(PID.TID 0000.0001) > hfluxstartdate2   = 180000,
(PID.TID 0000.0001) > hfluxperiod       = 2635200.0,
(PID.TID 0000.0001) >#
(PID.TID 0000.0001) > sfluxstartdate1   = 19781216,
(PID.TID 0000.0001) > sfluxstartdate2   = 180000,
(PID.TID 0000.0001) > sfluxperiod       = 2635200.0,
(PID.TID 0000.0001) >#
(PID.TID 0000.0001) > ustressstartdate1 = 19781216,
(PID.TID 0000.0001) > ustressstartdate2 = 180000,
(PID.TID 0000.0001) > ustressperiod     = 2635200.0,
(PID.TID 0000.0001) >#
(PID.TID 0000.0001) > vstressstartdate1 = 19781216,
(PID.TID 0000.0001) > vstressstartdate2 = 180000,
(PID.TID 0000.0001) > vstressperiod     = 2635200.0,
(PID.TID 0000.0001) >#
(PID.TID 0000.0001) > atempstartdate1   = 19781216,
(PID.TID 0000.0001) > atempstartdate2   = 180000,
(PID.TID 0000.0001) > atempperiod       = 2635200.0,
(PID.TID 0000.0001) >#
(PID.TID 0000.0001) > aqhstartdate1     = 19781216,
(PID.TID 0000.0001) > aqhstartdate2     = 180000,
(PID.TID 0000.0001) > aqhperiod         = 2635200.0,
(PID.TID 0000.0001) >#
(PID.TID 0000.0001) >#evapstartdate1    = 19781216,
(PID.TID 0000.0001) >#evapstartdate2    = 180000,
(PID.TID 0000.0001) >#evapperiod        = 2635200.0,
(PID.TID 0000.0001) >#
(PID.TID 0000.0001) > precipstartdate1  = 19781216,
(PID.TID 0000.0001) > precipstartdate2  = 180000,
(PID.TID 0000.0001) > precipperiod      = 2635200.0,
(PID.TID 0000.0001) >#
(PID.TID 0000.0001) > uwindstartdate1   = 19781216,
(PID.TID 0000.0001) > uwindstartdate2   = 180000,
(PID.TID 0000.0001) > uwindperiod       = 2635200.0,
(PID.TID 0000.0001) >#
(PID.TID 0000.0001) > vwindstartdate1   = 19781216,
(PID.TID 0000.0001) > vwindstartdate2   = 180000,
(PID.TID 0000.0001) > vwindperiod       = 2635200.0,
(PID.TID 0000.0001) >#
(PID.TID 0000.0001) > swfluxstartdate1  = 19781216,
(PID.TID 0000.0001) > swfluxstartdate2  = 180000,
(PID.TID 0000.0001) > swfluxperiod      = 2635200.0,
(PID.TID 0000.0001) >#
(PID.TID 0000.0001) > lwfluxstartdate1  = 19781216,
(PID.TID 0000.0001) > lwfluxstartdate2  = 180000,
(PID.TID 0000.0001) > lwfluxperiod      = 2635200.0,
(PID.TID 0000.0001) >#
(PID.TID 0000.0001) > swdownstartdate1  = 19781216,
(PID.TID 0000.0001) > swdownstartdate2  = 180000,
(PID.TID 0000.0001) > swdownperiod      = 2635200.0,
(PID.TID 0000.0001) >#
(PID.TID 0000.0001) > lwdownstartdate1  = 19781216,
(PID.TID 0000.0001) > lwdownstartdate2  = 180000,
(PID.TID 0000.0001) > lwdownperiod      = 2635200.0,
(PID.TID 0000.0001) >#
(PID.TID 0000.0001) > climsststartdate1  = 19781216,
(PID.TID 0000.0001) > climsststartdate2  = 180000,
(PID.TID 0000.0001) > climsstperiod      = 2635200.0,
(PID.TID 0000.0001) > climsstTauRelax    = 0.0,
(PID.TID 0000.0001) >#
(PID.TID 0000.0001) > climsssstartdate1  = 19781216,
(PID.TID 0000.0001) > climsssstartdate2  = 180000,
(PID.TID 0000.0001) > climsssperiod      = 2635200.0,
(PID.TID 0000.0001) > climsssTauRelax    = 4142330.0,
(PID.TID 0000.0001) >#
(PID.TID 0000.0001) > hfluxfile         = ' ',
(PID.TID 0000.0001) > sfluxfile         = ' ',
(PID.TID 0000.0001) > ustressfile       = ' ',
(PID.TID 0000.0001) > vstressfile       = ' ',
(PID.TID 0000.0001) > atempfile         = 'tair.labsea1979',
(PID.TID 0000.0001) > aqhfile           = 'qa.labsea1979',
(PID.TID 0000.0001) > uwindfile         = 'u10m.labsea1979',
(PID.TID 0000.0001) > vwindfile         = 'v10m.labsea1979',
(PID.TID 0000.0001) >#evapfile          = 'evap.labsea1979',
(PID.TID 0000.0001) > precipfile        = 'prate.labsea1979',
(PID.TID 0000.0001) > lwfluxfile        = ' ',
(PID.TID 0000.0001) > swfluxfile        = ' ',
(PID.TID 0000.0001) > lwdownfile        = 'flo.labsea1979',
(PID.TID 0000.0001) > swdownfile        = 'fsh.labsea1979',
(PID.TID 0000.0001) > runoffFile        = ' '
(PID.TID 0000.0001) > climsstfile       = ' ',
(PID.TID 0000.0001) > climsssfile       = 'SSS_monthly.labsea1979',
(PID.TID 0000.0001) >#
(PID.TID 0000.0001) > /
(PID.TID 0000.0001) >
(PID.TID 0000.0001) ># *********************
(PID.TID 0000.0001) > &EXF_NML_03
(PID.TID 0000.0001) > /
(PID.TID 0000.0001) >
(PID.TID 0000.0001) ># *********************
(PID.TID 0000.0001) ># old open64 compiler (4.2.1) cannot skip this namelist to read in the next one;
(PID.TID 0000.0001) ># comment out this namelist (not read).
(PID.TID 0000.0001) >#&EXF_NML_04
(PID.TID 0000.0001) >#&
(PID.TID 0000.0001) >
(PID.TID 0000.0001) ># *********************
(PID.TID 0000.0001) > &EXF_NML_OBCS
(PID.TID 0000.0001) > obcsSstartdate1   = 19790101,
(PID.TID 0000.0001) > obcsSstartdate2   = 000000,
(PID.TID 0000.0001) > obcsSperiod       = 3600.0,
(PID.TID 0000.0001) >#
(PID.TID 0000.0001) > obcsNstartdate1   = 19790101,
(PID.TID 0000.0001) > obcsNstartdate2   = 000000,
(PID.TID 0000.0001) > obcsNperiod       = 3600.0,
(PID.TID 0000.0001) >#
(PID.TID 0000.0001) > obcsWstartdate1   = 19790101,
(PID.TID 0000.0001) > obcsWstartdate2   = 000000,
(PID.TID 0000.0001) > obcsWperiod       = 3600.0,
(PID.TID 0000.0001) >#
(PID.TID 0000.0001) > obcsEstartdate1   = 19790101,
(PID.TID 0000.0001) > obcsEstartdate2   = 000000,
(PID.TID 0000.0001) > obcsEperiod       = 3600.0,
(PID.TID 0000.0001) >#
(PID.TID 0000.0001) > siobSstartdate1   = 19790101,
(PID.TID 0000.0001) > siobSstartdate2   = 000000,
(PID.TID 0000.0001) > siobSperiod       = 3600.0,
(PID.TID 0000.0001) >#
(PID.TID 0000.0001) > siobNstartdate1   = 19790101,
(PID.TID 0000.0001) > siobNstartdate2   = 000000,
(PID.TID 0000.0001) > siobNperiod       = 3600.0,
(PID.TID 0000.0001) >#
(PID.TID 0000.0001) > siobWstartdate1   = 19790101,
(PID.TID 0000.0001) > siobWstartdate2   = 000000,
(PID.TID 0000.0001) > siobWperiod       = 3600.0,
(PID.TID 0000.0001) > /
(PID.TID 0000.0001) 
(PID.TID 0000.0001) EXF_READPARMS: reading EXF_NML_01
(PID.TID 0000.0001) EXF_READPARMS: reading EXF_NML_02
(PID.TID 0000.0001) EXF_READPARMS: reading EXF_NML_03
(PID.TID 0000.0001) EXF_READPARMS: reading EXF_NML_OBCS
(PID.TID 0000.0001) EXF_READPARMS: finished reading data.exf
(PID.TID 0000.0001)  OBCS_READPARMS: opening data.obcs
(PID.TID 0000.0001)  OPEN_COPY_DATA_FILE: opening file data.obcs
(PID.TID 0000.0001) // =======================================================
(PID.TID 0000.0001) // Parameter file "data.obcs"
(PID.TID 0000.0001) // =======================================================
(PID.TID 0000.0001) ># ***************
(PID.TID 0000.0001) ># Open boundaries
(PID.TID 0000.0001) ># ***************
(PID.TID 0000.0001) > &OBCS_PARM01
(PID.TID 0000.0001) > OB_Jsouth =   10*1,
(PID.TID 0000.0001) > OB_Jnorth =   10*8,
(PID.TID 0000.0001) > OB_Iwest  =   8*1,
(PID.TID 0000.0001) > OB_Ieast  =   8*10,
(PID.TID 0000.0001) ># This flag check and equalise topography across open boundaries:
(PID.TID 0000.0001) > OBCSfixTopo = .TRUE.,
(PID.TID 0000.0001) > useOBCSprescribe=.TRUE.,
(PID.TID 0000.0001) >#
(PID.TID 0000.0001) > OBSsFile='OBSs.seaice_obcs',
(PID.TID 0000.0001) > OBStFile='OBSt.seaice_obcs',
(PID.TID 0000.0001) > OBSuFile='OBSu.seaice_obcs',
(PID.TID 0000.0001) > OBSvFile='OBSv.seaice_obcs',
(PID.TID 0000.0001) > OBNsFile='OBNs.seaice_obcs',
(PID.TID 0000.0001) > OBNtFile='OBNt.seaice_obcs',
(PID.TID 0000.0001) > OBNuFile='OBNu.seaice_obcs',
(PID.TID 0000.0001) > OBNvFile='OBNv.seaice_obcs',
(PID.TID 0000.0001) > OBWsFile='OBWs.seaice_obcs',
(PID.TID 0000.0001) > OBWtFile='OBWt.seaice_obcs',
(PID.TID 0000.0001) > OBWuFile='OBWu.seaice_obcs',
(PID.TID 0000.0001) > OBWvFile='OBWv.seaice_obcs',
(PID.TID 0000.0001) > OBEsFile='OBEs.seaice_obcs',
(PID.TID 0000.0001) > OBEtFile='OBEt.seaice_obcs',
(PID.TID 0000.0001) > OBEuFile='OBEu.seaice_obcs',
(PID.TID 0000.0001) > OBEvFile='OBEv.seaice_obcs',
(PID.TID 0000.0001) >#
(PID.TID 0000.0001) > OBShFile='OBSh.seaice_obcs',
(PID.TID 0000.0001) > OBNhFile='OBNh.seaice_obcs',
(PID.TID 0000.0001) > OBEhFile='OBEh.seaice_obcs',
(PID.TID 0000.0001) > OBWhFile='OBWh.seaice_obcs',
(PID.TID 0000.0001) > OBSaFile='OBSa.seaice_obcs',
(PID.TID 0000.0001) > OBNaFile='OBNa.seaice_obcs',
(PID.TID 0000.0001) > OBEaFile='OBEa.seaice_obcs',
(PID.TID 0000.0001) > OBWaFile='OBWa.seaice_obcs',
(PID.TID 0000.0001) > OBSsnFile='OBSsn.seaice_obcs',
(PID.TID 0000.0001) > OBNsnFile='OBNsn.seaice_obcs',
(PID.TID 0000.0001) > OBEsnFile='OBEsn.seaice_obcs',
(PID.TID 0000.0001) > OBWsnFile='OBWsn.seaice_obcs',
(PID.TID 0000.0001) > OBSslFile='OBSsl.seaice_obcs',
(PID.TID 0000.0001) > OBNslFile='OBNsl.seaice_obcs',
(PID.TID 0000.0001) > OBEslFile='OBEsl.seaice_obcs',
(PID.TID 0000.0001) > OBWslFile='OBWsl.seaice_obcs',
(PID.TID 0000.0001) > OBSuiceFile='OBSuice.seaice_obcs',
(PID.TID 0000.0001) > OBNuiceFile='OBNuice.seaice_obcs',
(PID.TID 0000.0001) > OBEuiceFile='OBEuice.seaice_obcs',
(PID.TID 0000.0001) > OBWuiceFile='OBWuice.seaice_obcs',
(PID.TID 0000.0001) > OBSviceFile='OBSvice.seaice_obcs',
(PID.TID 0000.0001) > OBNviceFile='OBNvice.seaice_obcs',
(PID.TID 0000.0001) > OBEviceFile='OBEvice.seaice_obcs',
(PID.TID 0000.0001) > OBWviceFile='OBWvice.seaice_obcs',
(PID.TID 0000.0001) > useSeaiceSponge=.TRUE.,
(PID.TID 0000.0001) > /
(PID.TID 0000.0001) > &OBCS_PARM05
(PID.TID 0000.0001) > seaiceSpongeThickness = 3
(PID.TID 0000.0001) > Arelaxobcsinner  = 432000.
(PID.TID 0000.0001) > Arelaxobcsbound  = 43200.
(PID.TID 0000.0001) > Hrelaxobcsinner  = 432000.
(PID.TID 0000.0001) > Hrelaxobcsbound  = 43200.
(PID.TID 0000.0001) > SLrelaxobcsinner = 432000.
(PID.TID 0000.0001) > SLrelaxobcsbound = 43200.
(PID.TID 0000.0001) > SNrelaxobcsinner = 432000.
(PID.TID 0000.0001) > SNrelaxobcsbound = 43200.
(PID.TID 0000.0001) > /
(PID.TID 0000.0001) 
(PID.TID 0000.0001)  OBCS_READPARMS: finished reading data.obcs
(PID.TID 0000.0001)  OB_indexUnset = /* unset OB index value (i.e. no OB) */
(PID.TID 0000.0001)                       0
(PID.TID 0000.0001)     ;
(PID.TID 0000.0001)  Northern OB global indices : OB_Jnorth =
(PID.TID 0000.0001)    10 @        8                            /* I =  1: 10 */
(PID.TID 0000.0001)  Southern OB global indices : OB_Jsouth =
(PID.TID 0000.0001)    10 @        1                            /* I =  1: 10 */
(PID.TID 0000.0001)  Eastern  OB global indices : OB_Ieast =
(PID.TID 0000.0001)     8 @       10                            /* J =  1:  8 */
(PID.TID 0000.0001)  Western  OB global indices : OB_Iwest =
(PID.TID 0000.0001)     8 @        1                            /* J =  1:  8 */
(PID.TID 0000.0001) 
(PID.TID 0000.0001)  KPP_READPARMS: opening data.kpp
(PID.TID 0000.0001)  OPEN_COPY_DATA_FILE: opening file data.kpp
(PID.TID 0000.0001) // =======================================================
(PID.TID 0000.0001) // Parameter file "data.kpp"
(PID.TID 0000.0001) // =======================================================
(PID.TID 0000.0001) ># KPP parameters
(PID.TID 0000.0001) > &KPP_PARM01
(PID.TID 0000.0001) > KPPmixingMaps   = .FALSE.,
(PID.TID 0000.0001) > KPPwriteState   = .TRUE.,
(PID.TID 0000.0001) > KPP_ghatUseTotalDiffus=.TRUE.,
(PID.TID 0000.0001) > /
(PID.TID 0000.0001) 
(PID.TID 0000.0001)  KPP_READPARMS ; starts to read KPP_PARM01
(PID.TID 0000.0001)  KPP_READPARMS ; read KPP_PARM01 : OK
(PID.TID 0000.0001)  KPP_READPARMS: finished reading data.kpp
(PID.TID 0000.0001)  GM_READPARMS: opening data.gmredi
(PID.TID 0000.0001)  OPEN_COPY_DATA_FILE: opening file data.gmredi
(PID.TID 0000.0001) // =======================================================
(PID.TID 0000.0001) // Parameter file "data.gmredi"
(PID.TID 0000.0001) // =======================================================
(PID.TID 0000.0001) ># GMREDI parameters
(PID.TID 0000.0001) > &GM_PARM01
(PID.TID 0000.0001) >  GM_background_K = 571.0
(PID.TID 0000.0001) >  GM_taper_scheme = 'ldd97'
(PID.TID 0000.0001) > /
(PID.TID 0000.0001) 
(PID.TID 0000.0001)  GM_READPARMS: finished reading data.gmredi
(PID.TID 0000.0001) 
(PID.TID 0000.0001)  SEAICE_READPARMS: opening data.seaice
(PID.TID 0000.0001)  OPEN_COPY_DATA_FILE: opening file data.seaice
(PID.TID 0000.0001) // =======================================================
(PID.TID 0000.0001) // Parameter file "data.seaice"
(PID.TID 0000.0001) // =======================================================
(PID.TID 0000.0001) ># SEAICE parameters
(PID.TID 0000.0001) > &SEAICE_PARM01
(PID.TID 0000.0001) >#- seaice dynamics params:
(PID.TID 0000.0001) >  LSR_ERROR          = 1.E-12,
(PID.TID 0000.0001) ># LSR_mixIniGuess=1 : compute free-drift residual; =2,4 mix into initial guess
(PID.TID 0000.0001) >  LSR_mixIniGuess    = 1,
(PID.TID 0000.0001) >#- seaice state & transport params:
(PID.TID 0000.0001) >  SEAICEadvScheme    = 7,
(PID.TID 0000.0001) ># for adjoint simulations you will need
(PID.TID 0000.0001) ># SEAICEadvScheme    = 30,
(PID.TID 0000.0001) ># add small diffKh to test diffusion with multi-dim advect.
(PID.TID 0000.0001) >  SEAICEdiffKhArea   = 20.,
(PID.TID 0000.0001) >  SEAICE_salinityTracer = .FALSE.,
(PID.TID 0000.0001) >  SEAICE_saltFrac    = 0.3,
(PID.TID 0000.0001) >#- seaice thermodyn params:
(PID.TID 0000.0001) >  SEAICE_multDim     = 7,
(PID.TID 0000.0001) >#- constant seawater freezing point:
(PID.TID 0000.0001) >  SEAICE_tempFrz0    = -1.96,
(PID.TID 0000.0001) >  SEAICE_dTempFrz_dS = 0.,
(PID.TID 0000.0001) >#- to reproduce old results with former #defined SEAICE_SOLVE4TEMP_LEGACY code
(PID.TID 0000.0001) >    useMaykutSatVapPoly = .TRUE.,
(PID.TID 0000.0001) >    postSolvTempIter    =  0,
(PID.TID 0000.0001) >  SEAICE_dryIceAlb   = 0.8756,
(PID.TID 0000.0001) >  SEAICE_wetIceAlb   = 0.7856,
(PID.TID 0000.0001) >  SEAICE_drySnowAlb  = 0.9656,
(PID.TID 0000.0001) >  SEAICE_wetSnowAlb  = 0.8256,
(PID.TID 0000.0001) >  SEAICE_strength    = 2.6780e+04,
(PID.TID 0000.0001) ># use the new standard way of specifying ocean-ice turb. flux coeff:
(PID.TID 0000.0001) >  SEAICE_mcPheePiston= 0.00004,
(PID.TID 0000.0001) >  SEAICE_frazilFrac  = 0.3,
(PID.TID 0000.0001) >#- seaice I/O params:
(PID.TID 0000.0001) >  SEAICEwriteState   = .TRUE.,
(PID.TID 0000.0001) ># old defaults
(PID.TID 0000.0001) > SEAICEscaleSurfStress = .FALSE.,
(PID.TID 0000.0001) > SEAICEaddSnowMass     = .FALSE.,
(PID.TID 0000.0001) > SEAICE_useMultDimSnow = .FALSE.,
(PID.TID 0000.0001) > SEAICEetaZmethod = 0,
(PID.TID 0000.0001) > SEAICE_drag = 0.002,
(PID.TID 0000.0001) > SEAICE_waterDrag = 0.0052101265822784805,
(PID.TID 0000.0001) > SEAICE_Olx = 0,
(PID.TID 0000.0001) > SEAICE_Oly = 0,
(PID.TID 0000.0001) > /
(PID.TID 0000.0001) >
(PID.TID 0000.0001) > &SEAICE_PARM03
(PID.TID 0000.0001) > /
(PID.TID 0000.0001) 
(PID.TID 0000.0001)  SEAICE_READPARMS: finished reading data.seaice
(PID.TID 0000.0001) SALT_PLUME_READPARMS: opening data.salt_plume
(PID.TID 0000.0001)  OPEN_COPY_DATA_FILE: opening file data.salt_plume
(PID.TID 0000.0001) // =======================================================
(PID.TID 0000.0001) // Parameter file "data.salt_plume"
(PID.TID 0000.0001) // =======================================================
(PID.TID 0000.0001) > &SALT_PLUME_PARM01
(PID.TID 0000.0001) > SaltPlumeCriterion = 0.4D0
(PID.TID 0000.0001) > /
(PID.TID 0000.0001) 
(PID.TID 0000.0001) SALT_PLUME_READPARMS: finished reading data.salt_plume
(PID.TID 0000.0001) SET_PARMS: done
(PID.TID 0000.0001) Enter INI_VERTICAL_GRID: setInterFDr=    T ; setCenterDr=    F
(PID.TID 0000.0001) %MON XC_max                       =   2.9900000000000E+02
(PID.TID 0000.0001) %MON XC_min                       =   2.8100000000000E+02
(PID.TID 0000.0001) %MON XC_mean                      =   2.9000000000000E+02
(PID.TID 0000.0001) %MON XC_sd                        =   5.7445626465380E+00
(PID.TID 0000.0001) %MON XG_max                       =   2.9800000000000E+02
(PID.TID 0000.0001) %MON XG_min                       =   2.8000000000000E+02
(PID.TID 0000.0001) %MON XG_mean                      =   2.8900000000000E+02
(PID.TID 0000.0001) %MON XG_sd                        =   5.7445626465380E+00
(PID.TID 0000.0001) %MON DXC_max                      =   1.5166951523772E+05
(PID.TID 0000.0001) %MON DXC_min                      =   1.0781674031974E+05
(PID.TID 0000.0001) %MON DXC_mean                     =   1.3029977093092E+05
(PID.TID 0000.0001) %MON DXC_sd                       =   1.4367575782905E+04
(PID.TID 0000.0001) %MON DXF_max                      =   1.5166951523772E+05
(PID.TID 0000.0001) %MON DXF_min                      =   1.0781674031974E+05
(PID.TID 0000.0001) %MON DXF_mean                     =   1.3029977093092E+05
(PID.TID 0000.0001) %MON DXF_sd                       =   1.4367575782905E+04
(PID.TID 0000.0001) %MON DXG_max                      =   1.5448497309243E+05
(PID.TID 0000.0001) %MON DXG_min                      =   1.1119492664456E+05
(PID.TID 0000.0001) %MON DXG_mean                     =   1.3340987946475E+05
(PID.TID 0000.0001) %MON DXG_sd                       =   1.4183553519597E+04
(PID.TID 0000.0001) %MON DXV_max                      =   1.5448497309243E+05
(PID.TID 0000.0001) %MON DXV_min                      =   1.1119492664456E+05
(PID.TID 0000.0001) %MON DXV_mean                     =   1.3340987946475E+05
(PID.TID 0000.0001) %MON DXV_sd                       =   1.4183553519597E+04
(PID.TID 0000.0001) %MON YC_max                       =   6.1000000000000E+01
(PID.TID 0000.0001) %MON YC_min                       =   4.7000000000000E+01
(PID.TID 0000.0001) %MON YC_mean                      =   5.4000000000000E+01
(PID.TID 0000.0001) %MON YC_sd                        =   4.5825756949558E+00
(PID.TID 0000.0001) %MON YG_max                       =   6.0000000000000E+01
(PID.TID 0000.0001) %MON YG_min                       =   4.6000000000000E+01
(PID.TID 0000.0001) %MON YG_mean                      =   5.3000000000000E+01
(PID.TID 0000.0001) %MON YG_sd                        =   4.5825756949558E+00
(PID.TID 0000.0001) %MON DYC_max                      =   2.2238985328912E+05
(PID.TID 0000.0001) %MON DYC_min                      =   2.2238985328912E+05
(PID.TID 0000.0001) %MON DYC_mean                     =   2.2238985328912E+05
(PID.TID 0000.0001) %MON DYC_sd                       =   8.7311491370201E-11
(PID.TID 0000.0001) %MON DYF_max                      =   2.2238985328912E+05
(PID.TID 0000.0001) %MON DYF_min                      =   2.2238985328912E+05
(PID.TID 0000.0001) %MON DYF_mean                     =   2.2238985328912E+05
(PID.TID 0000.0001) %MON DYF_sd                       =   8.7311491370201E-11
(PID.TID 0000.0001) %MON DYG_max                      =   2.2238985328912E+05
(PID.TID 0000.0001) %MON DYG_min                      =   2.2238985328912E+05
(PID.TID 0000.0001) %MON DYG_mean                     =   2.2238985328912E+05
(PID.TID 0000.0001) %MON DYG_sd                       =   8.7311491370201E-11
(PID.TID 0000.0001) %MON DYU_max                      =   2.2238985328912E+05
(PID.TID 0000.0001) %MON DYU_min                      =   2.2238985328912E+05
(PID.TID 0000.0001) %MON DYU_mean                     =   2.2238985328912E+05
(PID.TID 0000.0001) %MON DYU_sd                       =   8.7311491370201E-11
(PID.TID 0000.0001) %MON RA_max                       =   3.3728048822756E+10
(PID.TID 0000.0001) %MON RA_min                       =   2.3976131760657E+10
(PID.TID 0000.0001) %MON RA_mean                      =   2.8975875795896E+10
(PID.TID 0000.0001) %MON RA_sd                        =   3.1950408538653E+09
(PID.TID 0000.0001) %MON RAW_max                      =   3.3728048822756E+10
(PID.TID 0000.0001) %MON RAW_min                      =   2.3976131760657E+10
(PID.TID 0000.0001) %MON RAW_mean                     =   2.8975875795896E+10
(PID.TID 0000.0001) %MON RAW_sd                       =   3.1950408538653E+09
(PID.TID 0000.0001) %MON RAS_max                      =   3.4354146294179E+10
(PID.TID 0000.0001) %MON RAS_min                      =   2.4727367980522E+10
(PID.TID 0000.0001) %MON RAS_mean                     =   2.9667497261876E+10
(PID.TID 0000.0001) %MON RAS_sd                       =   3.1541182474235E+09
(PID.TID 0000.0001) %MON RAZ_max                      =   3.4354146294179E+10
(PID.TID 0000.0001) %MON RAZ_min                      =   2.4727367980522E+10
(PID.TID 0000.0001) %MON RAZ_mean                     =   2.9667497261876E+10
(PID.TID 0000.0001) %MON RAZ_sd                       =   3.1541182474235E+09
(PID.TID 0000.0001) %MON AngleCS_max                  =   1.0000000000000E+00
(PID.TID 0000.0001) %MON AngleCS_min                  =   1.0000000000000E+00
(PID.TID 0000.0001) %MON AngleCS_mean                 =   1.0000000000000E+00
(PID.TID 0000.0001) %MON AngleCS_sd                   =   0.0000000000000E+00
(PID.TID 0000.0001) %MON AngleSN_max                  =   0.0000000000000E+00
(PID.TID 0000.0001) %MON AngleSN_min                  =   0.0000000000000E+00
(PID.TID 0000.0001) %MON AngleSN_mean                 =   0.0000000000000E+00
(PID.TID 0000.0001) %MON AngleSN_sd                   =   0.0000000000000E+00
(PID.TID 0000.0001)  MDS_READ_FIELD: opening global file: bathy.seaice_obcs
(PID.TID 0000.0001) OBCS_CHECK_DEPTHS: fixed topography at (i,j,bi,bj)=     3     8   1   1
(PID.TID 0000.0001) OBCS_CHECK_DEPTHS: fixed topography at (i,j,bi,bj)=     4     8   1   1
(PID.TID 0000.0001) OBCS_CHECK_DEPTHS: fixed topography at (i,j,bi,bj)=     5     1   2   1
(PID.TID 0000.0001) OBCS_CHECK_DEPTHS: Topography gradients normal to open boundaries:
(PID.TID 0000.0001) OBCS_CHECK_DEPTHS: ==> corrected       3 problematic grid-points
(PID.TID 0000.0001) // =======================================================
(PID.TID 0000.0001) // Field Model R_low (ini_masks_etc)
(PID.TID 0000.0001) // CMIN =         -3.200000000000000E+03
(PID.TID 0000.0001) // CMAX =         -5.500000000000000E+01
(PID.TID 0000.0001) // CINT =          1.164814814814815E+02
(PID.TID 0000.0001) // SYMBOLS (CMIN->CMAX): -abcdefghijklmnopqrstuvwxyz+
(PID.TID 0000.0001) //                  0.0: .
(PID.TID 0000.0001) // RANGE I (Lo:Hi:Step):(    -3:    14:     1)
(PID.TID 0000.0001) // RANGE J (Lo:Hi:Step):(    12:    -3:    -1)
(PID.TID 0000.0001) // RANGE K (Lo:Hi:Step):(   1:   1:   1)
(PID.TID 0000.0001) // =======================================================
(PID.TID 0000.0001) K =   1
(PID.TID 0000.0001) //                I=6       I=8
(PID.TID 0000.0001) // |--J--|321012345|789234567|901234
(PID.TID 0000.0001) //     12 ---d.+zid----+zid----d.+zi
(PID.TID 0000.0001) //     11 ----..zwid---.zwid----..zw
(PID.TID 0000.0001) //     10 d---...zypd--..zypd---...z
(PID.TID 0000.0001) //      9 yi--.....zyi-....zyi--....
(PID.TID 0000.0001) //      8 .....+yxx+...+yxx+.....+yx
(PID.TID 0000.0001) //      7 +...zzyxux+..zyxux+...zzyx
(PID.TID 0000.0001) //      6 i+..+zwpiii+.zwpiii+..+zwp
(PID.TID 0000.0001) //      5 ddszywsiddddswsiddddszywsi
(PID.TID 0000.0001) //      4 ---d.+zid----+zid----d.+zi
(PID.TID 0000.0001) //      3 ----..zwid---.zwid----..zw
(PID.TID 0000.0001) //      2 d---...zypd--..zypd---...z
(PID.TID 0000.0001) //      1 yi--.....zyi-....zyi--....
(PID.TID 0000.0001) //      0 .....+yxx+...+yxx+.....+yx
(PID.TID 0000.0001) //     -1 +...zzyxux+..zyxux+...zzyx
(PID.TID 0000.0001) //     -2 i+..+zwpiii+.zwpiii+..+zwp
(PID.TID 0000.0001) //     -3 ddszywsiddddswsiddddszywsi
(PID.TID 0000.0001) // =======================================================
(PID.TID 0000.0001) // END OF FIELD                                          =
(PID.TID 0000.0001) // =======================================================
(PID.TID 0000.0001) 
(PID.TID 0000.0001) // =======================================================
(PID.TID 0000.0001) // Field Model Ro_surf (ini_masks_etc)
(PID.TID 0000.0001) // CMIN =          1.000000000000000E+32
(PID.TID 0000.0001) // CMAX =         -1.000000000000000E+32
(PID.TID 0000.0001) // CINT =          0.000000000000000E+00
(PID.TID 0000.0001) // SYMBOLS (CMIN->CMAX): -abcdefghijklmnopqrstuvwxyz+
(PID.TID 0000.0001) //                  0.0: .
(PID.TID 0000.0001) // RANGE I (Lo:Hi:Step):(    -3:    14:     1)
(PID.TID 0000.0001) // RANGE J (Lo:Hi:Step):(    12:    -3:    -1)
(PID.TID 0000.0001) // RANGE K (Lo:Hi:Step):(   1:   1:   1)
(PID.TID 0000.0001) // =======================================================
(PID.TID 0000.0001) // =======================================================
(PID.TID 0000.0001) // END OF FIELD                                          =
(PID.TID 0000.0001) // =======================================================
(PID.TID 0000.0001) 
(PID.TID 0000.0001) // =======================================================
(PID.TID 0000.0001) // Field hFacC at iteration          0
(PID.TID 0000.0001) // CMIN =          1.000000000000000E+00
(PID.TID 0000.0001) // CMAX =          1.000000000000000E+00
(PID.TID 0000.0001) // CINT =          0.000000000000000E+00
(PID.TID 0000.0001) // SYMBOLS (CMIN->CMAX): -abcdefghijklmnopqrstuvwxyz+
(PID.TID 0000.0001) //                  0.0: .
(PID.TID 0000.0001) // RANGE I (Lo:Hi:Step):(    -3:    14:     1)
(PID.TID 0000.0001) // RANGE J (Lo:Hi:Step):(    12:    -3:    -1)
(PID.TID 0000.0001) // RANGE K (Lo:Hi:Step):(   1:   1:   1)
(PID.TID 0000.0001) // =======================================================
(PID.TID 0000.0001) // =======================================================
(PID.TID 0000.0001) // END OF FIELD                                          =
(PID.TID 0000.0001) // =======================================================
(PID.TID 0000.0001) 
(PID.TID 0000.0001) // =======================================================
(PID.TID 0000.0001) // Field hFacW at iteration          0
(PID.TID 0000.0001) // CMIN =          1.000000000000000E+00
(PID.TID 0000.0001) // CMAX =          1.000000000000000E+00
(PID.TID 0000.0001) // CINT =          0.000000000000000E+00
(PID.TID 0000.0001) // SYMBOLS (CMIN->CMAX): -abcdefghijklmnopqrstuvwxyz+
(PID.TID 0000.0001) //                  0.0: .
(PID.TID 0000.0001) // RANGE I (Lo:Hi:Step):(    -3:    14:     1)
(PID.TID 0000.0001) // RANGE J (Lo:Hi:Step):(    12:    -3:    -1)
(PID.TID 0000.0001) // RANGE K (Lo:Hi:Step):(   1:   1:   1)
(PID.TID 0000.0001) // =======================================================
(PID.TID 0000.0001) // =======================================================
(PID.TID 0000.0001) // END OF FIELD                                          =
(PID.TID 0000.0001) // =======================================================
(PID.TID 0000.0001) 
(PID.TID 0000.0001) // =======================================================
(PID.TID 0000.0001) // Field hFacS at iteration          0
(PID.TID 0000.0001) // CMIN =          1.000000000000000E+00
(PID.TID 0000.0001) // CMAX =          1.000000000000000E+00
(PID.TID 0000.0001) // CINT =          0.000000000000000E+00
(PID.TID 0000.0001) // SYMBOLS (CMIN->CMAX): -abcdefghijklmnopqrstuvwxyz+
(PID.TID 0000.0001) //                  0.0: .
(PID.TID 0000.0001) // RANGE I (Lo:Hi:Step):(    -3:    14:     1)
(PID.TID 0000.0001) // RANGE J (Lo:Hi:Step):(    12:    -3:    -1)
(PID.TID 0000.0001) // RANGE K (Lo:Hi:Step):(   1:   1:   1)
(PID.TID 0000.0001) // =======================================================
(PID.TID 0000.0001) // =======================================================
(PID.TID 0000.0001) // END OF FIELD                                          =
(PID.TID 0000.0001) // =======================================================
(PID.TID 0000.0001) 
(PID.TID 0000.0001) 
(PID.TID 0000.0001) // =======================================================
(PID.TID 0000.0001) // Calendar configuration >>> START <<<
(PID.TID 0000.0001) // =======================================================
(PID.TID 0000.0001) 
(PID.TID 0000.0001) modelstart = /* Start time of the model integration [s] */
(PID.TID 0000.0001)                 3.600000000000000E+03
(PID.TID 0000.0001)     ;
(PID.TID 0000.0001) modelend  = /* End time of the model integration [s] */
(PID.TID 0000.0001)                 2.160000000000000E+04
(PID.TID 0000.0001)     ;
(PID.TID 0000.0001) modelStep = /* Time interval for a model forward step [s] */
(PID.TID 0000.0001)                 3.600000000000000E+03
(PID.TID 0000.0001)     ;
(PID.TID 0000.0001) usingGregorianCalendar= /* Calendar Type: Gregorian Calendar */
(PID.TID 0000.0001)                   T
(PID.TID 0000.0001)     ;
(PID.TID 0000.0001) usingJulianCalendar = /* Calendar Type: Julian Calendar */
(PID.TID 0000.0001)                   F
(PID.TID 0000.0001)     ;
(PID.TID 0000.0001) usingNoLeapYearCal  = /* Calendar Type: without Leap Year */
(PID.TID 0000.0001)                   F
(PID.TID 0000.0001)     ;
(PID.TID 0000.0001) usingModelCalendar  = /* Calendar Type: Model Calendar */
(PID.TID 0000.0001)                   F
(PID.TID 0000.0001)     ;
(PID.TID 0000.0001) modelStartDate YYYYMMDD = /* Model start date YYYY-MM-DD */
(PID.TID 0000.0001)                19790101
(PID.TID 0000.0001)     ;
(PID.TID 0000.0001)   modelStartDate HHMMSS = /* Model start date HH-MM-SS  */
(PID.TID 0000.0001)                   10000
(PID.TID 0000.0001)     ;
(PID.TID 0000.0001) modelEndDate   YYYYMMDD = /* Model end date YYYY-MM-DD */
(PID.TID 0000.0001)                19790101
(PID.TID 0000.0001)     ;
(PID.TID 0000.0001)   modelEndDate   HHMMSS = /* Model end date HH-MM-SS  */
(PID.TID 0000.0001)                   60000
(PID.TID 0000.0001)     ;
(PID.TID 0000.0001) intyears = /* Number of calendar years affected by the integration */
(PID.TID 0000.0001)                       1
(PID.TID 0000.0001)     ;
(PID.TID 0000.0001) intmonths= /* Number of calendar months affected by the integration */
(PID.TID 0000.0001)                       1
(PID.TID 0000.0001)     ;
(PID.TID 0000.0001) intdays = /* Number of calendar days affected by the integration */
(PID.TID 0000.0001)                       1
(PID.TID 0000.0001)     ;
(PID.TID 0000.0001) modelIter0 = /* Base timestep number  */
(PID.TID 0000.0001)                       1
(PID.TID 0000.0001)     ;
(PID.TID 0000.0001) modelIterEnd = /* Final timestep number  */
(PID.TID 0000.0001)                       6
(PID.TID 0000.0001)     ;
(PID.TID 0000.0001) modelIntSteps= /* Number of model timesteps  */
(PID.TID 0000.0001)                       5
(PID.TID 0000.0001)     ;
(PID.TID 0000.0001) 
(PID.TID 0000.0001) // =======================================================
(PID.TID 0000.0001) // Calendar configuration  >>> END <<<
(PID.TID 0000.0001) // =======================================================
(PID.TID 0000.0001) 
(PID.TID 0000.0001) GAD_INIT_FIXED: GAD_OlMinSize=  4  0  1
(PID.TID 0000.0001) 
(PID.TID 0000.0001) // ===================================
(PID.TID 0000.0001) // GAD parameters :
(PID.TID 0000.0001) // ===================================
(PID.TID 0000.0001) tempAdvScheme =   /* Temp. Horiz.Advection scheme selector */
(PID.TID 0000.0001)                       7
(PID.TID 0000.0001)     ;
(PID.TID 0000.0001) tempVertAdvScheme =   /* Temp. Vert. Advection scheme selector */
(PID.TID 0000.0001)                       7
(PID.TID 0000.0001)     ;
(PID.TID 0000.0001) tempMultiDimAdvec =   /* use Muti-Dim Advec method for Temp */
(PID.TID 0000.0001)                   T
(PID.TID 0000.0001)     ;
(PID.TID 0000.0001) tempSOM_Advection = /* use 2nd Order Moment Advection for Temp */
(PID.TID 0000.0001)                   F
(PID.TID 0000.0001)     ;
(PID.TID 0000.0001) AdamsBashforthGt = /* apply Adams-Bashforth extrapolation on Gt */
(PID.TID 0000.0001)                   F
(PID.TID 0000.0001)     ;
(PID.TID 0000.0001) AdamsBashforth_T = /* apply Adams-Bashforth extrapolation on Temp */
(PID.TID 0000.0001)                   F
(PID.TID 0000.0001)     ;
(PID.TID 0000.0001) saltAdvScheme =   /* Salt. Horiz.advection scheme selector */
(PID.TID 0000.0001)                       7
(PID.TID 0000.0001)     ;
(PID.TID 0000.0001) saltVertAdvScheme =   /* Salt. Vert. Advection scheme selector */
(PID.TID 0000.0001)                       7
(PID.TID 0000.0001)     ;
(PID.TID 0000.0001) saltMultiDimAdvec =   /* use Muti-Dim Advec method for Salt */
(PID.TID 0000.0001)                   T
(PID.TID 0000.0001)     ;
(PID.TID 0000.0001) saltSOM_Advection = /* use 2nd Order Moment Advection for Salt */
(PID.TID 0000.0001)                   F
(PID.TID 0000.0001)     ;
(PID.TID 0000.0001) AdamsBashforthGs = /* apply Adams-Bashforth extrapolation on Gs */
(PID.TID 0000.0001)                   F
(PID.TID 0000.0001)     ;
(PID.TID 0000.0001) AdamsBashforth_S = /* apply Adams-Bashforth extrapolation on Salt */
(PID.TID 0000.0001)                   F
(PID.TID 0000.0001)     ;
(PID.TID 0000.0001) // ===================================
(PID.TID 0000.0001) 
(PID.TID 0000.0001) // =======================================================
(PID.TID 0000.0001) // External forcing (EXF) configuration >>> START <<<
(PID.TID 0000.0001) // =======================================================
(PID.TID 0000.0001) 
(PID.TID 0000.0001)  EXF general parameters:
(PID.TID 0000.0001) 
(PID.TID 0000.0001) exf_iprec = /* exf file precision */
(PID.TID 0000.0001)                      32
(PID.TID 0000.0001)     ;
(PID.TID 0000.0001) useExfYearlyFields = /* add extension _YEAR to input file names */
(PID.TID 0000.0001)                   F
(PID.TID 0000.0001)     ;
(PID.TID 0000.0001) twoDigitYear = /* use 2-digit year extension */
(PID.TID 0000.0001)                   F
(PID.TID 0000.0001)     ;
(PID.TID 0000.0001) useExfCheckRange = /* check for fields range */
(PID.TID 0000.0001)                   T
(PID.TID 0000.0001)     ;
(PID.TID 0000.0001) diags_opOceWeighted = /* weight flux diags by open-ocean fraction */
(PID.TID 0000.0001)                   T
(PID.TID 0000.0001)     ;
(PID.TID 0000.0001) exf_debugLev = /* select EXF-debug printing level */
(PID.TID 0000.0001)                       2
(PID.TID 0000.0001)     ;
(PID.TID 0000.0001) exf_monFreq  = /* EXF monitor frequency [ s ] */
(PID.TID 0000.0001)                 1.000000000000000E+00
(PID.TID 0000.0001)     ;
(PID.TID 0000.0001) repeatPeriod = /* period for cycling forcing dataset [ s ] */
(PID.TID 0000.0001)                 3.162240000000000E+07
(PID.TID 0000.0001)     ;
(PID.TID 0000.0001) climTempFreeze= /* Minimum climatological temperature [deg.C] */
(PID.TID 0000.0001)                -1.900000000000000E+00
(PID.TID 0000.0001)     ;
(PID.TID 0000.0001) windStressMax = /* Maximum absolute windstress [ Pa ] */
(PID.TID 0000.0001)                 2.000000000000000E+00
(PID.TID 0000.0001)     ;
(PID.TID 0000.0001) stressIsOnCgrid = /* set u,v_stress on Arakawa C-grid */
(PID.TID 0000.0001)                   F
(PID.TID 0000.0001)     ;
(PID.TID 0000.0001) rotateStressOnAgrid = /* rotate u,v_stress on Arakawa A-grid */
(PID.TID 0000.0001)                   F
(PID.TID 0000.0001)     ;
(PID.TID 0000.0001) cen2kel = /* conversion of deg. Centigrade to Kelvin [K] */
(PID.TID 0000.0001)                 2.731500000000000E+02
(PID.TID 0000.0001)     ;
(PID.TID 0000.0001) gravity_mks= /* gravitational acceleration [m/s^2] */
(PID.TID 0000.0001)                 9.810000000000000E+00
(PID.TID 0000.0001)     ;
(PID.TID 0000.0001) atmrho =  /* mean atmospheric density [kg/m^3] */
(PID.TID 0000.0001)                 1.200000000000000E+00
(PID.TID 0000.0001)     ;
(PID.TID 0000.0001) atmcp =  /* mean atmospheric specific heat [J/kg/K] */
(PID.TID 0000.0001)                 1.005000000000000E+03
(PID.TID 0000.0001)     ;
(PID.TID 0000.0001) flamb =  /* latent heat of evaporation [J/kg] */
(PID.TID 0000.0001)                 2.500000000000000E+06
(PID.TID 0000.0001)     ;
(PID.TID 0000.0001) flami =  /* latent heat of pure-ice melting [J/kg] */
(PID.TID 0000.0001)                 3.340000000000000E+05
(PID.TID 0000.0001)     ;
(PID.TID 0000.0001) cvapor_fac = /* const. for Saturation calculation [?] */
(PID.TID 0000.0001)                 6.403800000000000E+05
(PID.TID 0000.0001)     ;
(PID.TID 0000.0001) cvapor_exp = /* const. for Saturation calculation [?] */
(PID.TID 0000.0001)                 5.107400000000000E+03
(PID.TID 0000.0001)     ;
(PID.TID 0000.0001) cvapor_fac_ice= /* const. for Saturation calculation [?] */
(PID.TID 0000.0001)                 1.163780000000000E+07
(PID.TID 0000.0001)     ;
(PID.TID 0000.0001) cvapor_exp_ice= /* const. for Saturation calculation [?] */
(PID.TID 0000.0001)                 5.897800000000000E+03
(PID.TID 0000.0001)     ;
(PID.TID 0000.0001) humid_fac = /* humidity coef. in virtual temp. [(kg/kg)^-1] */
(PID.TID 0000.0001)                 6.060000000000000E-01
(PID.TID 0000.0001)     ;
(PID.TID 0000.0001) gamma_blk = /* adiabatic lapse rate [?] */
(PID.TID 0000.0001)                 1.000000000000000E-02
(PID.TID 0000.0001)     ;
(PID.TID 0000.0001) saltsat = /* reduction of Qsat over salty water [-] */
(PID.TID 0000.0001)                 9.800000000000000E-01
(PID.TID 0000.0001)     ;
(PID.TID 0000.0001) noNegativeEvap = /* prevent negative Evaporation */
(PID.TID 0000.0001)                   F
(PID.TID 0000.0001)     ;
(PID.TID 0000.0001) sstExtrapol = /* extrapolation coeff from lev. 1 & 2 to surf [-] */
(PID.TID 0000.0001)                 0.000000000000000E+00
(PID.TID 0000.0001)     ;
(PID.TID 0000.0001) cDrag_1 = /* coef used in drag calculation [?] */
(PID.TID 0000.0001)                 2.700000000000000E-03
(PID.TID 0000.0001)     ;
(PID.TID 0000.0001) cDrag_2 = /* coef used in drag calculation [?] */
(PID.TID 0000.0001)                 1.420000000000000E-04
(PID.TID 0000.0001)     ;
(PID.TID 0000.0001) cDrag_3 = /* coef used in drag calculation [?] */
(PID.TID 0000.0001)                 7.640000000000000E-05
(PID.TID 0000.0001)     ;
(PID.TID 0000.0001) cStanton_1 = /* coef used in Stanton number calculation [?] */
(PID.TID 0000.0001)                 3.270000000000000E-02
(PID.TID 0000.0001)     ;
(PID.TID 0000.0001) cStanton_2 = /* coef used in Stanton number calculation [?] */
(PID.TID 0000.0001)                 1.800000000000000E-02
(PID.TID 0000.0001)     ;
(PID.TID 0000.0001) cDalton = /* coef used in Dalton number calculation [?] */
(PID.TID 0000.0001)                 3.460000000000000E-02
(PID.TID 0000.0001)     ;
(PID.TID 0000.0001) exf_scal_BulkCdn= /* Drag coefficient scaling factor [-] */
(PID.TID 0000.0001)                 1.000000000000000E+00
(PID.TID 0000.0001)     ;
(PID.TID 0000.0001) zolmin = /* minimum stability parameter [?] */
(PID.TID 0000.0001)                -1.000000000000000E+02
(PID.TID 0000.0001)     ;
(PID.TID 0000.0001) psim_fac = /* coef used in turbulent fluxes calculation [-] */
(PID.TID 0000.0001)                 5.000000000000000E+00
(PID.TID 0000.0001)     ;
(PID.TID 0000.0001) zref =  /* reference height [ m ] */
(PID.TID 0000.0001)                 1.000000000000000E+01
(PID.TID 0000.0001)     ;
(PID.TID 0000.0001) hu =  /* height of mean wind [ m ] */
(PID.TID 0000.0001)                 1.000000000000000E+01
(PID.TID 0000.0001)     ;
(PID.TID 0000.0001) ht =  /* height of mean temperature [ m ] */
(PID.TID 0000.0001)                 2.000000000000000E+00
(PID.TID 0000.0001)     ;
(PID.TID 0000.0001) hq =  /* height of mean spec.humidity [ m ] */
(PID.TID 0000.0001)                 2.000000000000000E+00
(PID.TID 0000.0001)     ;
(PID.TID 0000.0001) uMin = /* minimum wind speed [m/s] */
(PID.TID 0000.0001)                 5.000000000000000E-01
(PID.TID 0000.0001)     ;
(PID.TID 0000.0001) useStabilityFct_overIce= /* transfert Coeffs over sea-ice depend on stability */
(PID.TID 0000.0001)                   F
(PID.TID 0000.0001)     ;
(PID.TID 0000.0001) exf_iceCd = /* drag coefficient over sea-ice (fixed) [-] */
(PID.TID 0000.0001)                 1.630000000000000E-03
(PID.TID 0000.0001)     ;
(PID.TID 0000.0001) exf_iceCe = /* transfert coeff. over sea-ice, for Evap (fixed) [-] */
(PID.TID 0000.0001)                 1.630000000000000E-03
(PID.TID 0000.0001)     ;
(PID.TID 0000.0001) exf_iceCh = /* transfert coeff. over sea-ice, Sens.Heat.(fixed)[-] */
(PID.TID 0000.0001)                 1.630000000000000E-03
(PID.TID 0000.0001)     ;
(PID.TID 0000.0001) exf_albedo =  /* Sea-water albedo [-] */
(PID.TID 0000.0001)                 1.000000000000000E-01
(PID.TID 0000.0001)     ;
(PID.TID 0000.0001) useExfZenAlbedo = /* Sea-water albedo varies with zenith angle */
(PID.TID 0000.0001)                   F
(PID.TID 0000.0001)     ;
(PID.TID 0000.0001) select_ZenAlbedo = /* Sea-water albedo computation method */
(PID.TID 0000.0001)                       0
(PID.TID 0000.0001)     ;
(PID.TID 0000.0001) useExfZenIncoming = /* compute incoming solar radiation */
(PID.TID 0000.0001)                   F
(PID.TID 0000.0001)     ;
(PID.TID 0000.0001) ocean_emissivity = /* longwave ocean-surface emissivity [-] */
(PID.TID 0000.0001)                 9.700176366843034E-01
(PID.TID 0000.0001)     ;
(PID.TID 0000.0001) ice_emissivity = /* longwave seaice emissivity [-] */
(PID.TID 0000.0001)                 9.500000000000000E-01
(PID.TID 0000.0001)     ;
(PID.TID 0000.0001) snow_emissivity = /* longwave snow  emissivity [-] */
(PID.TID 0000.0001)                 9.500000000000000E-01
(PID.TID 0000.0001)     ;
(PID.TID 0000.0001) 
(PID.TID 0000.0001)  EXF main CPP flags:
(PID.TID 0000.0001) 
(PID.TID 0000.0001) // USE_EXF_INTERPOLATION:          NOT defined
(PID.TID 0000.0001) // ALLOW_ATM_TEMP:                     defined
(PID.TID 0000.0001) // ALLOW_ATM_WIND (useAtmWind):        defined
(PID.TID 0000.0001) // ALLOW_DOWNWARD_RADIATION:           defined
(PID.TID 0000.0001) // ALLOW_BULKFORMULAE:                 defined
(PID.TID 0000.0001) 
(PID.TID 0000.0001)    Zonal wind forcing starts at                   -1317600.
(PID.TID 0000.0001)    Zonal wind forcing period is                    2635200.
(PID.TID 0000.0001)    Zonal wind forcing repeat-cycle is             31622400.
(PID.TID 0000.0001)    Zonal wind forcing is read from file:
(PID.TID 0000.0001)    >> u10m.labsea1979 <<
(PID.TID 0000.0001) 
(PID.TID 0000.0001)    Meridional wind forcing starts at              -1317600.
(PID.TID 0000.0001)    Meridional wind forcing period is               2635200.
(PID.TID 0000.0001)    Meridional wind forcing repeat-cycle is        31622400.
(PID.TID 0000.0001)    Meridional wind forcing is read from file:
(PID.TID 0000.0001)    >> v10m.labsea1979 <<
(PID.TID 0000.0001) 
(PID.TID 0000.0001)    Atmospheric temperature starts at              -1317600.
(PID.TID 0000.0001)    Atmospheric temperature period is               2635200.
(PID.TID 0000.0001)    Atmospheric temperature repeat-cycle is        31622400.
(PID.TID 0000.0001)    Atmospheric temperature is read from file:
(PID.TID 0000.0001)    >> tair.labsea1979 <<
(PID.TID 0000.0001) 
(PID.TID 0000.0001)    Atmospheric specific humidity starts at        -1317600.
(PID.TID 0000.0001)    Atmospheric specific humidity period is         2635200.
(PID.TID 0000.0001)    Atmospheric specific humidity rep-cycle is     31622400.
(PID.TID 0000.0001)    Atmospheric specific humidity is read from file:
(PID.TID 0000.0001)    >> qa.labsea1979 <<
(PID.TID 0000.0001) 
(PID.TID 0000.0001) // ALLOW_READ_TURBFLUXES:          NOT defined
(PID.TID 0000.0001) // EXF_READ_EVAP:                  NOT defined
(PID.TID 0000.0001) 
(PID.TID 0000.0001)    Precipitation data starts at                   -1317600.
(PID.TID 0000.0001)    Precipitation data period is                    2635200.
(PID.TID 0000.0001)    Precipitation data repeat-cycle is             31622400.
(PID.TID 0000.0001)    Precipitation data is read from file:
(PID.TID 0000.0001)    >> prate.labsea1979 <<
(PID.TID 0000.0001) 
(PID.TID 0000.0001) // ALLOW_RUNOFF:                       defined
(PID.TID 0000.0001) // ALLOW_RUNOFTEMP:                NOT defined
(PID.TID 0000.0001) // ALLOW_SALTFLX:                      defined
(PID.TID 0000.0001) 
(PID.TID 0000.0001)    Downward shortwave flux starts at              -1317600.
(PID.TID 0000.0001)    Downward shortwave flux period is               2635200.
(PID.TID 0000.0001)    Downward shortwave flux repeat-cycle is        31622400.
(PID.TID 0000.0001)    Downward shortwave flux is read from file:
(PID.TID 0000.0001)    >> fsh.labsea1979 <<
(PID.TID 0000.0001) 
(PID.TID 0000.0001)    Downward longwave flux starts at               -1317600.
(PID.TID 0000.0001)    Downward longwave flux period is                2635200.
(PID.TID 0000.0001)    Downward longwave flux repeat-cycle is         31622400.
(PID.TID 0000.0001)    Downward longwave flux is read from file:
(PID.TID 0000.0001)    >> flo.labsea1979 <<
(PID.TID 0000.0001) 
(PID.TID 0000.0001) // =======================================================
(PID.TID 0000.0001) // External forcing (EXF) climatology configuration :
(PID.TID 0000.0001) // =======================================================
(PID.TID 0000.0001) 
(PID.TID 0000.0001) // ALLOW_CLIMSST_RELAXATION:           defined
(PID.TID 0000.0001)    climsst relaxation is NOT used
(PID.TID 0000.0001) 
(PID.TID 0000.0001) // ALLOW_CLIMSSS_RELAXATION:           defined
(PID.TID 0000.0001)    Climatological SSS starts at                   -1317600.
(PID.TID 0000.0001)    Climatological SSS period is                    2635200.
(PID.TID 0000.0001)    Climatological SSS repeat-cycle is             31622400.
(PID.TID 0000.0001)    Climatological SSS is read from file:
(PID.TID 0000.0001)    >> SSS_monthly.labsea1979 <<
(PID.TID 0000.0001) 
(PID.TID 0000.0001) // =======================================================
(PID.TID 0000.0001) // External forcing (EXF) configuration  >>> END <<<
(PID.TID 0000.0001) // =======================================================
(PID.TID 0000.0001) 
(PID.TID 0000.0001) // =======================================================
(PID.TID 0000.0001) // Seaice configuration (SEAICE_PARM01) >>> START <<<
(PID.TID 0000.0001) // =======================================================
(PID.TID 0000.0001) 
(PID.TID 0000.0001)    Seaice time stepping configuration   > START <
(PID.TID 0000.0001)    ----------------------------------------------
(PID.TID 0000.0001) SEAICE_deltaTtherm= /* thermodynamic timestep */
(PID.TID 0000.0001)                 3.600000000000000E+03
(PID.TID 0000.0001)     ;
(PID.TID 0000.0001) SEAICE_deltaTdyn  = /* dynamic timestep */
(PID.TID 0000.0001)                 3.600000000000000E+03
(PID.TID 0000.0001)     ;
(PID.TID 0000.0001) SEAICE_deltaTevp  = /* EVP timestep */
(PID.TID 0000.0001)                 1.234567000000000E+05
(PID.TID 0000.0001)     ;
(PID.TID 0000.0001) SEAICEuseBDF2  = /* use backw. differencing for mom. eq. */
(PID.TID 0000.0001)                   F
(PID.TID 0000.0001)     ;
(PID.TID 0000.0001) SEAICEupdateOceanStress= /* update Ocean surf. stress */
(PID.TID 0000.0001)                   T
(PID.TID 0000.0001)     ;
(PID.TID 0000.0001) SEAICErestoreUnderIce  = /* restore T and S under ice */
(PID.TID 0000.0001)                   F
(PID.TID 0000.0001)     ;
(PID.TID 0000.0001) 
(PID.TID 0000.0001)    Seaice dynamics configuration   > START <
(PID.TID 0000.0001)    ------------------------------------------
(PID.TID 0000.0001) SEAICEuseDYNAMICS = /* use dynamics */
(PID.TID 0000.0001)                   T
(PID.TID 0000.0001)     ;
(PID.TID 0000.0001) model grid type   = /* type of sea ice model grid */
(PID.TID 0000.0001)               'C-GRID'
(PID.TID 0000.0001)     ;
(PID.TID 0000.0001) SEAICEuseStrImpCpl = /* use strongly implicit coupling */
(PID.TID 0000.0001)                   F
(PID.TID 0000.0001)     ;
(PID.TID 0000.0001) SEAICEusePicardAsPrecon = /* Picard as preconditioner */
(PID.TID 0000.0001)                   F
(PID.TID 0000.0001)     ;
(PID.TID 0000.0001) SEAICEuseLSR      = /* use default Picard-LSR solver */
(PID.TID 0000.0001)                   T
(PID.TID 0000.0001)     ;
(PID.TID 0000.0001) SEAICEuseKrylov   = /* use Picard-Krylov solver */
(PID.TID 0000.0001)                   F
(PID.TID 0000.0001)     ;
(PID.TID 0000.0001) SEAICEuseEVP      = /* use EVP solver rather than LSR */
(PID.TID 0000.0001)                   F
(PID.TID 0000.0001)     ;
(PID.TID 0000.0001) SEAICEuseJFNK     = /* use JFNK solver */
(PID.TID 0000.0001)                   F
(PID.TID 0000.0001)     ;
(PID.TID 0000.0001) SEAICEuseFREEDRIFT = /* use free drift solution */
(PID.TID 0000.0001)                   F
(PID.TID 0000.0001)     ;
(PID.TID 0000.0001) OCEAN_drag        = /* air-ocean drag coefficient */
(PID.TID 0000.0001)                 1.000000000000000E-03
(PID.TID 0000.0001)     ;
(PID.TID 0000.0001) SEAICE_drag       = /* air-ice drag coefficient */
(PID.TID 0000.0001)                 2.000000000000000E-03
(PID.TID 0000.0001)     ;
(PID.TID 0000.0001) SEAICE_drag_south      = /* Southern Ocean SEAICE_drag */
(PID.TID 0000.0001)                 2.000000000000000E-03
(PID.TID 0000.0001)     ;
(PID.TID 0000.0001) SEAICE_waterDrag  = /* water-ice drag (no units) */
(PID.TID 0000.0001)                 5.210126582278480E-03
(PID.TID 0000.0001)     ;
(PID.TID 0000.0001) SEAICE_waterDrag_south = /* Southern Ocean waterDrag (no units) */
(PID.TID 0000.0001)                 5.210126582278480E-03
(PID.TID 0000.0001)     ;
(PID.TID 0000.0001) SEAICEdWatMin = /* minimum linear water-ice drag (in m/s) */
(PID.TID 0000.0001)                 2.500000000000000E-01
(PID.TID 0000.0001)     ;
(PID.TID 0000.0001) SEAICEuseTilt     = /* include surface tilt in dyna. */
(PID.TID 0000.0001)                   T
(PID.TID 0000.0001)     ;
(PID.TID 0000.0001) SEAICEuseTEM      = /* use truncated ellipse rheology */
(PID.TID 0000.0001)                   F
(PID.TID 0000.0001)     ;
(PID.TID 0000.0001) SEAICE_strength   = /* sea-ice strength Pstar */
(PID.TID 0000.0001)                 2.678000000000000E+04
(PID.TID 0000.0001)     ;
(PID.TID 0000.0001) SEAICE_cStar      = /* sea-ice strength parameter cStar */
(PID.TID 0000.0001)                 2.000000000000000E+01
(PID.TID 0000.0001)     ;
(PID.TID 0000.0001) SEAICEpressReplFac= /* press. replacement method factor */
(PID.TID 0000.0001)                 1.000000000000000E+00
(PID.TID 0000.0001)     ;
(PID.TID 0000.0001) SEAICE_tensilFac  = /* sea-ice tensile strength factor */
(PID.TID 0000.0001)                 0.000000000000000E+00
(PID.TID 0000.0001)     ;
(PID.TID 0000.0001) SEAICE_tensilDepth= /* crit. depth for tensile strength */
(PID.TID 0000.0001)                 0.000000000000000E+00
(PID.TID 0000.0001)     ;
(PID.TID 0000.0001) SEAICEpresH0   = /* sea-ice strength Heff threshold */
(PID.TID 0000.0001)                 1.000000000000000E+00
(PID.TID 0000.0001)     ;
(PID.TID 0000.0001) SEAICEpresPow0 = /* exponent for Heff<SEAICEpresH0 */
(PID.TID 0000.0001)                       1
(PID.TID 0000.0001)     ;
(PID.TID 0000.0001) SEAICEpresPow1 = /* exponent for Heff>SEAICEpresH0 */
(PID.TID 0000.0001)                       1
(PID.TID 0000.0001)     ;
(PID.TID 0000.0001) SEAICEetaZmethod = /* method computing eta at Z-point */
(PID.TID 0000.0001)                       0
(PID.TID 0000.0001)     ;
(PID.TID 0000.0001) SEAICE_zetaMaxFac = /* factor for upper viscosity bound */
(PID.TID 0000.0001)                 2.500000000000000E+08
(PID.TID 0000.0001)     ;
(PID.TID 0000.0001) SEAICE_zetaMin    = /* lower bound for viscosity */
(PID.TID 0000.0001)                 0.000000000000000E+00
(PID.TID 0000.0001)     ;
(PID.TID 0000.0001) SEAICE_eccen    = /* elliptical yield curve eccent */
(PID.TID 0000.0001)                 2.000000000000000E+00
(PID.TID 0000.0001)     ;
(PID.TID 0000.0001) SEAICEstressFactor    = /* wind stress scaling factor */
(PID.TID 0000.0001)                 1.000000000000000E+00
(PID.TID 0000.0001)     ;
(PID.TID 0000.0001) SEAICE_airTurnAngle    = /* air-ice turning angle */
(PID.TID 0000.0001)                 0.000000000000000E+00
(PID.TID 0000.0001)     ;
(PID.TID 0000.0001) SEAICE_waterTurnAngle  = /* ice-water turning angle */
(PID.TID 0000.0001)                 0.000000000000000E+00
(PID.TID 0000.0001)     ;
(PID.TID 0000.0001) SEAICEuseMetricTerms = /* use metric terms */
(PID.TID 0000.0001)                   T
(PID.TID 0000.0001)     ;
(PID.TID 0000.0001) SEAICE_no_slip    = /* no slip boundary conditions */
(PID.TID 0000.0001)                   F
(PID.TID 0000.0001)     ;
(PID.TID 0000.0001) SEAICE_2ndOrderBC = /* 2nd order no slip boundary conditions */
(PID.TID 0000.0001)                   F
(PID.TID 0000.0001)     ;
(PID.TID 0000.0001) SEAICE_clipVeloctities = /* impose max. vels. */
(PID.TID 0000.0001)                   F
(PID.TID 0000.0001)     ;
(PID.TID 0000.0001) useHB87stressCoupling  = /* altern. ice-ocean stress */
(PID.TID 0000.0001)                   F
(PID.TID 0000.0001)     ;
(PID.TID 0000.0001) SEAICEscaleSurfStress  = /* scale atm. and ocean-surface stress with AREA */
(PID.TID 0000.0001)                   F
(PID.TID 0000.0001)     ;
(PID.TID 0000.0001) SEAICE_maskRHS    = /* mask RHS of solver */
(PID.TID 0000.0001)                   F
(PID.TID 0000.0001)     ;
(PID.TID 0000.0001) SEAICEaddSnowMass = /* add snow mass to seaiceMassC/U/V */
(PID.TID 0000.0001)                   F
(PID.TID 0000.0001)     ;
(PID.TID 0000.0001) LSR_mixIniGuess = /* mix free-drift sol. into LSR initial Guess */
(PID.TID 0000.0001)                       1
(PID.TID 0000.0001)     ;
(PID.TID 0000.0001) SEAICE_LSRrelaxU  = /* LSR solver: relaxation parameter */
(PID.TID 0000.0001)                 9.500000000000000E-01
(PID.TID 0000.0001)     ;
(PID.TID 0000.0001) SEAICE_LSRrelaxV  = /* LSR solver: relaxation parameter */
(PID.TID 0000.0001)                 9.500000000000000E-01
(PID.TID 0000.0001)     ;
(PID.TID 0000.0001) LSR_ERROR         = /* sets accuracy of LSR solver */
(PID.TID 0000.0001)                 1.000000000000000E-12
(PID.TID 0000.0001)     ;
(PID.TID 0000.0001) SOLV_NCHECK       = /* test interval for LSR solver */
(PID.TID 0000.0001)                       2
(PID.TID 0000.0001)     ;
(PID.TID 0000.0001) SEAICEuseMultiTileSolver = /* use full domain tri-diag solver */
(PID.TID 0000.0001)                   F
(PID.TID 0000.0001)     ;
(PID.TID 0000.0001) SEAICE_OLx = /* overlap for LSR/preconditioner */
(PID.TID 0000.0001)                       0
(PID.TID 0000.0001)     ;
(PID.TID 0000.0001) SEAICE_OLy = /* overlap for LSR/preconditioner */
(PID.TID 0000.0001)                       0
(PID.TID 0000.0001)     ;
(PID.TID 0000.0001) SEAICEnonLinIterMax = /* max. number of nonlinear solver steps */
(PID.TID 0000.0001)                       2
(PID.TID 0000.0001)     ;
(PID.TID 0000.0001) SEAICElinearIterMax = /* max. number of linear solver steps */
(PID.TID 0000.0001)                    1500
(PID.TID 0000.0001)     ;
(PID.TID 0000.0001) SEAICEnonLinTol     = /* non-linear solver tolerance */
(PID.TID 0000.0001)                 0.000000000000000E+00
(PID.TID 0000.0001)     ;
(PID.TID 0000.0001) 
(PID.TID 0000.0001)    Seaice advection diffusion config,   > START <
(PID.TID 0000.0001)    -----------------------------------------------
(PID.TID 0000.0001) SEAICEmomAdvection = /* advect sea ice momentum */
(PID.TID 0000.0001)                   F
(PID.TID 0000.0001)     ;
(PID.TID 0000.0001) SEAICEadvHeff = /* advect effective ice thickness */
(PID.TID 0000.0001)                   T
(PID.TID 0000.0001)     ;
(PID.TID 0000.0001) SEAICEadvArea = /* advect fractional ice area */
(PID.TID 0000.0001)                   T
(PID.TID 0000.0001)     ;
(PID.TID 0000.0001) SEAICEadvSnow = /* advect snow layer together with ice */
(PID.TID 0000.0001)                   T
(PID.TID 0000.0001)     ;
(PID.TID 0000.0001) SEAICEadvSalt = /* advect salinity together with ice */
(PID.TID 0000.0001)                   T
(PID.TID 0000.0001)     ;
(PID.TID 0000.0001) SEAICEadvScheme   = /* advection scheme for ice */
(PID.TID 0000.0001)                       7
(PID.TID 0000.0001)     ;
(PID.TID 0000.0001) SEAICEadvSchArea   = /* advection scheme for area */
(PID.TID 0000.0001)                       7
(PID.TID 0000.0001)     ;
(PID.TID 0000.0001) SEAICEadvSchHeff   = /* advection scheme for thickness */
(PID.TID 0000.0001)                       7
(PID.TID 0000.0001)     ;
(PID.TID 0000.0001) SEAICEadvSchSnow   = /* advection scheme for snow */
(PID.TID 0000.0001)                       7
(PID.TID 0000.0001)     ;
(PID.TID 0000.0001) SEAICEadvSchSalt   = /* advection scheme for salt */
(PID.TID 0000.0001)                       7
(PID.TID 0000.0001)     ;
(PID.TID 0000.0001) SEAICEdiffKhArea   = /* diffusivity (m^2/s) for area */
(PID.TID 0000.0001)                 2.000000000000000E+01
(PID.TID 0000.0001)     ;
(PID.TID 0000.0001) SEAICEdiffKhHeff   = /* diffusivity (m^2/s) for heff */
(PID.TID 0000.0001)                 2.000000000000000E+01
(PID.TID 0000.0001)     ;
(PID.TID 0000.0001) SEAICEdiffKhSnow   = /* diffusivity (m^2/s) for snow */
(PID.TID 0000.0001)                 2.000000000000000E+01
(PID.TID 0000.0001)     ;
(PID.TID 0000.0001) SEAICEdiffKhSalt   = /* diffusivity (m^2/s) for salt */
(PID.TID 0000.0001)                 2.000000000000000E+01
(PID.TID 0000.0001)     ;
(PID.TID 0000.0001) DIFF1             = /* parameter used in advect.F [m/s] */
(PID.TID 0000.0001)                 0.000000000000000E+00
(PID.TID 0000.0001)     ;
(PID.TID 0000.0001) 
(PID.TID 0000.0001)    Seaice thermodynamics configuration   > START <
(PID.TID 0000.0001)    -----------------------------------------------
(PID.TID 0000.0001) SEAICE_rhoIce     = /* density of sea ice (kg/m3) */
(PID.TID 0000.0001)                 9.100000000000000E+02
(PID.TID 0000.0001)     ;
(PID.TID 0000.0001) SEAICE_rhoSnow    = /* density of snow (kg/m3) */
(PID.TID 0000.0001)                 3.300000000000000E+02
(PID.TID 0000.0001)     ;
(PID.TID 0000.0001) SEAICE_rhoAir     = /* density of air (kg/m3) */
(PID.TID 0000.0001)                 1.200000000000000E+00
(PID.TID 0000.0001)     ;
(PID.TID 0000.0001) usePW79thermodynamics  = /* default 0-layer TD */
(PID.TID 0000.0001)                   T
(PID.TID 0000.0001)     ;
(PID.TID 0000.0001) SEAICE_lhEvap     = /* latent heat of evaporation */
(PID.TID 0000.0001)                 2.500000000000000E+06
(PID.TID 0000.0001)     ;
(PID.TID 0000.0001) SEAICE_lhFusion   = /* latent heat of fusion */
(PID.TID 0000.0001)                 3.340000000000000E+05
(PID.TID 0000.0001)     ;
(PID.TID 0000.0001) SEAICE_mcPheePiston = /* turbulent flux "piston velocity" a la McPhee (m/s) */
(PID.TID 0000.0001)                 4.000000000000000E-05
(PID.TID 0000.0001)     ;
(PID.TID 0000.0001) SEAICE_mcPheeTaper = /* tapering of turbulent flux (0.< <1.) for AREA=1. */
(PID.TID 0000.0001)                 0.000000000000000E+00
(PID.TID 0000.0001)     ;
(PID.TID 0000.0001) SEAICE_mcPheeStepFunc = /* replace linear tapering with step funct. */
(PID.TID 0000.0001)                   F
(PID.TID 0000.0001)     ;
(PID.TID 0000.0001) SEAICE_frazilFrac = /* frazil (T<tempFrz) to seaice conversion rate (0.< <1.) */
(PID.TID 0000.0001)                 3.000000000000000E-01
(PID.TID 0000.0001)     ;
(PID.TID 0000.0001) SEAICE_tempFrz0   = /* freezing temp. of sea water (intercept) */
(PID.TID 0000.0001)                -1.960000000000000E+00
(PID.TID 0000.0001)     ;
(PID.TID 0000.0001) SEAICE_dTempFrz_dS= /* freezing temp. of sea water (slope) */
(PID.TID 0000.0001)                 0.000000000000000E+00
(PID.TID 0000.0001)     ;
(PID.TID 0000.0001) SEAICE_growMeltByConv  = /* grow,melt by vert. conv. */
(PID.TID 0000.0001)                   F
(PID.TID 0000.0001)     ;
(PID.TID 0000.0001) SEAICE_doOpenWaterGrowth = /* grow by open water */
(PID.TID 0000.0001)                   T
(PID.TID 0000.0001)     ;
(PID.TID 0000.0001) SEAICE_doOpenWaterMelt = /* melt by open water */
(PID.TID 0000.0001)                   F
(PID.TID 0000.0001)     ;
(PID.TID 0000.0001) SEAICE_areaGainFormula = /* ice cover gain formula (1,2)*/
(PID.TID 0000.0001)                       1
(PID.TID 0000.0001)     1=from growth by ATM
(PID.TID 0000.0001)     2=from predicted growth by ATM
(PID.TID 0000.0001)     ;
(PID.TID 0000.0001) SEAICE_areaLossFormula = /* ice cover loss formula (1,2)*/
(PID.TID 0000.0001)                       1
(PID.TID 0000.0001)     1=from all but only melt conributions by ATM and OCN
(PID.TID 0000.0001)     2=from net melt-grow>0 by ATM and OCN
(PID.TID 0000.0001)     3=from predicted melt by ATM
(PID.TID 0000.0001)     ;
(PID.TID 0000.0001) HO                = /* nominal thickness of new ice */
(PID.TID 0000.0001)                 5.000000000000000E-01
(PID.TID 0000.0001)     ;
(PID.TID 0000.0001) HO_south               = /* Southern Ocean HO */
(PID.TID 0000.0001)                 5.000000000000000E-01
(PID.TID 0000.0001)     ;
(PID.TID 0000.0001) SEAICE_area_max        = /* set to les than 1. to mimic open leads */
(PID.TID 0000.0001)                 1.000000000000000E+00
(PID.TID 0000.0001)     ;
(PID.TID 0000.0001)    Sea ice has a variable salinity such that
(PID.TID 0000.0001) SEAICE_saltFrac = /* fraction of ocn salinity in new ice */
(PID.TID 0000.0001)                 3.000000000000000E-01
(PID.TID 0000.0001)     ;
(PID.TID 0000.0001) SEAICE_salinityTracer = /* test SITR varia. salinity */
(PID.TID 0000.0001)                   F
(PID.TID 0000.0001)     ;
(PID.TID 0000.0001) SEAICEuseFlooding = /* turn submerged snow into ice */
(PID.TID 0000.0001)                   T
(PID.TID 0000.0001)     ;
(PID.TID 0000.0001) 
(PID.TID 0000.0001)    Seaice air-sea fluxes configuration,   > START <
(PID.TID 0000.0001)    -----------------------------------------------
(PID.TID 0000.0001) SEAICEheatConsFix  = /* accound for ocn<->seaice advect. heat flux */
(PID.TID 0000.0001)                   F
(PID.TID 0000.0001)     ;
(PID.TID 0000.0001) SEAICE_multDim    = /* number of ice categories (1 or 7) */
(PID.TID 0000.0001)                       7
(PID.TID 0000.0001)     ;
(PID.TID 0000.0001) SEAICE_PDF        = /* sea-ice distribution (-) */
(PID.TID 0000.0001)     7 @  1.428571428571428E-01              /* K =  1:  7 */
(PID.TID 0000.0001)     ;
(PID.TID 0000.0001) IMAX_TICE         = /* iterations for ice surface temp */
(PID.TID 0000.0001)                      10
(PID.TID 0000.0001)     ;
(PID.TID 0000.0001) postSolvTempIter= /* flux calculation after surf. temp iter */
(PID.TID 0000.0001)                       0
(PID.TID 0000.0001)     ;
(PID.TID 0000.0001) SEAICE_dryIceAlb  = /* winter albedo */
(PID.TID 0000.0001)                 8.756000000000000E-01
(PID.TID 0000.0001)     ;
(PID.TID 0000.0001) SEAICE_wetIceAlb  = /* summer albedo */
(PID.TID 0000.0001)                 7.856000000000000E-01
(PID.TID 0000.0001)     ;
(PID.TID 0000.0001) SEAICE_drySnowAlb = /* dry snow albedo */
(PID.TID 0000.0001)                 9.656000000000000E-01
(PID.TID 0000.0001)     ;
(PID.TID 0000.0001) SEAICE_wetSnowAlb = /* wet snow albedo */
(PID.TID 0000.0001)                 8.256000000000000E-01
(PID.TID 0000.0001)     ;
(PID.TID 0000.0001) SEAICE_dryIceAlb_south = /* Southern Ocean dryIceAlb */
(PID.TID 0000.0001)                 8.756000000000000E-01
(PID.TID 0000.0001)     ;
(PID.TID 0000.0001) SEAICE_wetIceAlb_south = /* Southern Ocean wetIceAlb */
(PID.TID 0000.0001)                 7.856000000000000E-01
(PID.TID 0000.0001)     ;
(PID.TID 0000.0001) SEAICE_drySnowAlb_south= /* Southern Ocean drySnowAlb */
(PID.TID 0000.0001)                 9.656000000000000E-01
(PID.TID 0000.0001)     ;
(PID.TID 0000.0001) SEAICE_wetSnowAlb_south= /* Southern Ocean wetSnowAlb */
(PID.TID 0000.0001)                 8.256000000000000E-01
(PID.TID 0000.0001)     ;
(PID.TID 0000.0001) SEAICE_wetAlbTemp= /* Temp (o.C) threshold for wet-albedo */
(PID.TID 0000.0001)                -1.000000000000000E-03
(PID.TID 0000.0001)     ;
(PID.TID 0000.0001) SEAICE_snow_emiss = /* snow emissivity */
(PID.TID 0000.0001)                 9.500000000000000E-01
(PID.TID 0000.0001)     ;
(PID.TID 0000.0001) SEAICE_ice_emiss = /* seaice emissivity */
(PID.TID 0000.0001)                 9.500000000000000E-01
(PID.TID 0000.0001)     ;
(PID.TID 0000.0001) SEAICE_cpAir      = /* heat capacity of air */
(PID.TID 0000.0001)                 1.005000000000000E+03
(PID.TID 0000.0001)     ;
(PID.TID 0000.0001) SEAICE_dalton     = /* constant dalton number */
(PID.TID 0000.0001)                 1.750000000000000E-03
(PID.TID 0000.0001)     ;
(PID.TID 0000.0001) SEAICE_iceConduct = /* sea-ice conductivity */
(PID.TID 0000.0001)                 2.165600000000000E+00
(PID.TID 0000.0001)     ;
(PID.TID 0000.0001) SEAICE_snowConduct= /* snow conductivity */
(PID.TID 0000.0001)                 3.100000000000000E-01
(PID.TID 0000.0001)     ;
(PID.TID 0000.0001) SEAICE_snowThick  = /* cutoff snow thickness (for albedo) */
(PID.TID 0000.0001)                 1.500000000000000E-01
(PID.TID 0000.0001)     ;
(PID.TID 0000.0001) SEAICE_shortwave  = /* penetration shortwave radiation */
(PID.TID 0000.0001)                 3.000000000000000E-01
(PID.TID 0000.0001)     ;
(PID.TID 0000.0001) useMaykutSatVapPoly = /* use Maykut Polynomial for Sat.Vap.Pr */
(PID.TID 0000.0001)                   T
(PID.TID 0000.0001)     ;
(PID.TID 0000.0001) MIN_ATEMP         = /* minimum air temperature */
(PID.TID 0000.0001)                -5.000000000000000E+01
(PID.TID 0000.0001)     ;
(PID.TID 0000.0001) MIN_LWDOWN        = /* minimum downward longwave */
(PID.TID 0000.0001)                 6.000000000000000E+01
(PID.TID 0000.0001)     ;
(PID.TID 0000.0001) MIN_TICE          = /* minimum ice temperature */
(PID.TID 0000.0001)                -5.000000000000000E+01
(PID.TID 0000.0001)     ;
(PID.TID 0000.0001) 
(PID.TID 0000.0001)    Seaice initialization and IO config.,   > START <
(PID.TID 0000.0001)    -------------------------------------------------
(PID.TID 0000.0001) SEAICE_initialHEFF= /* initial sea-ice thickness */
(PID.TID 0000.0001)                 0.000000000000000E+00
(PID.TID 0000.0001)     ;
(PID.TID 0000.0001) AreaFile = /* Initial ice concentration File */
(PID.TID 0000.0001)               ''
(PID.TID 0000.0001)     ;
(PID.TID 0000.0001) HeffFile = /* Initial effective ice thickness File */
(PID.TID 0000.0001)               ''
(PID.TID 0000.0001)     ;
(PID.TID 0000.0001) HsnowFile = /* Initial snow thickness File */
(PID.TID 0000.0001)               ''
(PID.TID 0000.0001)     ;
(PID.TID 0000.0001) HsaltFile = /* Initial HSALT File */
(PID.TID 0000.0001)               ''
(PID.TID 0000.0001)     ;
(PID.TID 0000.0001) uIceFile = /* Initial U-ice velocity File */
(PID.TID 0000.0001)               ''
(PID.TID 0000.0001)     ;
(PID.TID 0000.0001) vIceFile = /* Initial V-ice velocity File */
(PID.TID 0000.0001)               ''
(PID.TID 0000.0001)     ;
(PID.TID 0000.0001) SEAICEwriteState  = /* write sea ice state to file */
(PID.TID 0000.0001)                   T
(PID.TID 0000.0001)     ;
(PID.TID 0000.0001) SEAICE_monFreq  = /* monitor frequency */
(PID.TID 0000.0001)                 1.000000000000000E+00
(PID.TID 0000.0001)     ;
(PID.TID 0000.0001) SEAICE_dumpFreq   = /* dump frequency */
(PID.TID 0000.0001)                 0.000000000000000E+00
(PID.TID 0000.0001)     ;
(PID.TID 0000.0001) SEAICE_taveFreq   = /* time-averaging frequency */
(PID.TID 0000.0001)                 3.600000000000000E+04
(PID.TID 0000.0001)     ;
(PID.TID 0000.0001) SEAICE_mon_stdio  = /* write monitor to std-outp */
(PID.TID 0000.0001)                   T
(PID.TID 0000.0001)     ;
(PID.TID 0000.0001) SEAICE_dump_mdsio = /* write snap-shot   using MDSIO */
(PID.TID 0000.0001)                   T
(PID.TID 0000.0001)     ;
(PID.TID 0000.0001) SEAICE_tave_mdsio = /* write TimeAverage using MDSIO */
(PID.TID 0000.0001)                   T
(PID.TID 0000.0001)     ;
(PID.TID 0000.0001) 
(PID.TID 0000.0001)    Seaice regularization numbers,   > START <
(PID.TID 0000.0001)    -----------------------------------------------
(PID.TID 0000.0001) SEAICE_deltaMin   = /* reduce singularities in Delta */
(PID.TID 0000.0001)                 1.000000000000000E-10
(PID.TID 0000.0001)     ;
(PID.TID 0000.0001) SEAICE_EPS        = /* small number */
(PID.TID 0000.0001)                 1.000000000000000E-10
(PID.TID 0000.0001)     ;
(PID.TID 0000.0001) SEAICE_EPS_SQ     = /* small number squared */
(PID.TID 0000.0001)                 1.000000000000000E-20
(PID.TID 0000.0001)     ;
(PID.TID 0000.0001) SEAICE_area_reg   = /* reduce derivative singularities */
(PID.TID 0000.0001)                 1.000000000000000E-05
(PID.TID 0000.0001)     ;
(PID.TID 0000.0001) SEAICE_hice_reg   = /* reduce derivative singularities */
(PID.TID 0000.0001)                 5.000000000000000E-02
(PID.TID 0000.0001)     ;
(PID.TID 0000.0001) SEAICE_area_floor = /* reduce derivative singularities */
(PID.TID 0000.0001)                 1.000000000000000E-05
(PID.TID 0000.0001)     ;
(PID.TID 0000.0001) 
(PID.TID 0000.0001) // =======================================================
(PID.TID 0000.0001) // Seaice configuration (SEAICE_PARM01) >>> END <<<
(PID.TID 0000.0001) // =======================================================
(PID.TID 0000.0001) 
(PID.TID 0000.0001) %MON fCori_max                    =   1.2755669869709E-04
(PID.TID 0000.0001) %MON fCori_min                    =   1.0666243053630E-04
(PID.TID 0000.0001) %MON fCori_mean                   =   1.1761200538805E-04
(PID.TID 0000.0001) %MON fCori_sd                     =   6.8513324598791E-06
(PID.TID 0000.0001) %MON fCoriG_max                   =   1.2630328426495E-04
(PID.TID 0000.0001) %MON fCoriG_min                   =   1.0491029349513E-04
(PID.TID 0000.0001) %MON fCoriG_mean                  =   1.1610278222072E-04
(PID.TID 0000.0001) %MON fCoriG_sd                    =   7.0142966441249E-06
(PID.TID 0000.0001) %MON fCoriCos_max                 =   9.9464325599212E-05
(PID.TID 0000.0001) %MON fCoriCos_min                 =   7.0705832661230E-05
(PID.TID 0000.0001) %MON fCoriCos_mean                =   8.5450123718417E-05
(PID.TID 0000.0001) %MON fCoriCos_sd                  =   9.4222048082790E-06
(PID.TID 0000.0001) INI_CG2D: CG2D normalisation factor =  1.8806719473501507E-04
(PID.TID 0000.0001) 
(PID.TID 0000.0001) // =======================================================
(PID.TID 0000.0001) // Model configuration
(PID.TID 0000.0001) // =======================================================
(PID.TID 0000.0001) //
(PID.TID 0000.0001) // "Physical" paramters ( PARM01 in namelist )
(PID.TID 0000.0001) //
(PID.TID 0000.0001) buoyancyRelation = /* Type of relation to get Buoyancy */
(PID.TID 0000.0001)               'OCEANIC'
(PID.TID 0000.0001)     ;
(PID.TID 0000.0001) fluidIsAir   =  /* fluid major constituent is Air */
(PID.TID 0000.0001)                   F
(PID.TID 0000.0001)     ;
(PID.TID 0000.0001) fluidIsWater =  /* fluid major constituent is Water */
(PID.TID 0000.0001)                   T
(PID.TID 0000.0001)     ;
(PID.TID 0000.0001) usingPCoords =  /* use p (or p*) vertical coordinate */
(PID.TID 0000.0001)                   F
(PID.TID 0000.0001)     ;
(PID.TID 0000.0001) usingZCoords =  /* use z (or z*) vertical coordinate */
(PID.TID 0000.0001)                   T
(PID.TID 0000.0001)     ;
(PID.TID 0000.0001) tRef =   /* Reference temperature profile ( oC or K ) */
(PID.TID 0000.0001)                 2.400000000000000E+01,      /* K =  1 */
(PID.TID 0000.0001)                 2.300000000000000E+01,      /* K =  2 */
(PID.TID 0000.0001)                 2.200000000000000E+01,      /* K =  3 */
(PID.TID 0000.0001)                 2.100000000000000E+01,      /* K =  4 */
(PID.TID 0000.0001)                 2.000000000000000E+01,      /* K =  5 */
(PID.TID 0000.0001)                 1.900000000000000E+01,      /* K =  6 */
(PID.TID 0000.0001)                 1.800000000000000E+01,      /* K =  7 */
(PID.TID 0000.0001)                 1.700000000000000E+01,      /* K =  8 */
(PID.TID 0000.0001)                 1.600000000000000E+01,      /* K =  9 */
(PID.TID 0000.0001)                 1.500000000000000E+01,      /* K = 10 */
(PID.TID 0000.0001)                 1.400000000000000E+01,      /* K = 11 */
(PID.TID 0000.0001)                 1.300000000000000E+01,      /* K = 12 */
(PID.TID 0000.0001)                 1.200000000000000E+01,      /* K = 13 */
(PID.TID 0000.0001)                 1.100000000000000E+01,      /* K = 14 */
(PID.TID 0000.0001)                 1.000000000000000E+01,      /* K = 15 */
(PID.TID 0000.0001)                 9.000000000000000E+00,      /* K = 16 */
(PID.TID 0000.0001)                 8.000000000000000E+00,      /* K = 17 */
(PID.TID 0000.0001)                 7.000000000000000E+00,      /* K = 18 */
(PID.TID 0000.0001)                 6.000000000000000E+00,      /* K = 19 */
(PID.TID 0000.0001)                 5.000000000000000E+00,      /* K = 20 */
(PID.TID 0000.0001)                 4.000000000000000E+00,      /* K = 21 */
(PID.TID 0000.0001)                 3.000000000000000E+00,      /* K = 22 */
(PID.TID 0000.0001)                 2.000000000000000E+00       /* K = 23 */
(PID.TID 0000.0001)     ;
(PID.TID 0000.0001) sRef =   /* Reference salinity profile ( psu ) */
(PID.TID 0000.0001)                 3.465000000000000E+01,      /* K =  1 */
(PID.TID 0000.0001)                 3.475000000000000E+01,      /* K =  2 */
(PID.TID 0000.0001)                 3.482000000000000E+01,      /* K =  3 */
(PID.TID 0000.0001)                 3.487000000000000E+01,      /* K =  4 */
(PID.TID 0000.0001)     2 @  3.490000000000000E+01,             /* K =  5:  6 */
(PID.TID 0000.0001)                 3.486000000000000E+01,      /* K =  7 */
(PID.TID 0000.0001)                 3.478000000000000E+01,      /* K =  8 */
(PID.TID 0000.0001)                 3.469000000000000E+01,      /* K =  9 */
(PID.TID 0000.0001)                 3.460000000000000E+01,      /* K = 10 */
(PID.TID 0000.0001)                 3.458000000000000E+01,      /* K = 11 */
(PID.TID 0000.0001)                 3.462000000000000E+01,      /* K = 12 */
(PID.TID 0000.0001)                 3.468000000000000E+01,      /* K = 13 */
(PID.TID 0000.0001)                 3.472000000000000E+01,      /* K = 14 */
(PID.TID 0000.0001)                 3.473000000000000E+01,      /* K = 15 */
(PID.TID 0000.0001)                 3.474000000000000E+01,      /* K = 16 */
(PID.TID 0000.0001)     2 @  3.473000000000000E+01,             /* K = 17: 18 */
(PID.TID 0000.0001)     2 @  3.472000000000000E+01,             /* K = 19: 20 */
(PID.TID 0000.0001)                 3.471000000000000E+01,      /* K = 21 */
(PID.TID 0000.0001)                 3.470000000000000E+01,      /* K = 22 */
(PID.TID 0000.0001)                 3.469000000000000E+01       /* K = 23 */
(PID.TID 0000.0001)     ;
(PID.TID 0000.0001) useStrainTensionVisc= /* Use StrainTension Form of Viscous Operator */
(PID.TID 0000.0001)                   F
(PID.TID 0000.0001)     ;
(PID.TID 0000.0001) useVariableVisc = /* Use variable horizontal viscosity */
(PID.TID 0000.0001)                   F
(PID.TID 0000.0001)     ;
(PID.TID 0000.0001) useHarmonicVisc = /* Use harmonic horizontal viscosity */
(PID.TID 0000.0001)                   T
(PID.TID 0000.0001)     ;
(PID.TID 0000.0001) useBiharmonicVisc= /* Use biharmonic horiz.  viscosity */
(PID.TID 0000.0001)                   F
(PID.TID 0000.0001)     ;
(PID.TID 0000.0001) useSmag3D = /* Use isotropic 3-D Smagorinsky viscosity */
(PID.TID 0000.0001)                   F
(PID.TID 0000.0001)     ;
(PID.TID 0000.0001) viscAh  =   /* Lateral harmonic viscosity ( m^2/s ) */
(PID.TID 0000.0001)                 5.000000000000000E+04
(PID.TID 0000.0001)     ;
(PID.TID 0000.0001) viscA4  =   /* Lateral biharmonic viscosity ( m^4/s ) */
(PID.TID 0000.0001)                 0.000000000000000E+00
(PID.TID 0000.0001)     ;
(PID.TID 0000.0001) no_slip_sides =  /* Viscous BCs: No-slip sides */
(PID.TID 0000.0001)                   F
(PID.TID 0000.0001)     ;
(PID.TID 0000.0001) sideDragFactor = /* side-drag scaling factor (non-dim) */
(PID.TID 0000.0001)                 2.000000000000000E+00
(PID.TID 0000.0001)     ;
(PID.TID 0000.0001) viscArNr = /* vertical profile of vertical viscosity ( m^2/s )*/
(PID.TID 0000.0001)    23 @  1.930000000000000E-05              /* K =  1: 23 */
(PID.TID 0000.0001)     ;
(PID.TID 0000.0001) no_slip_bottom =  /* Viscous BCs: No-slip bottom */
(PID.TID 0000.0001)                   T
(PID.TID 0000.0001)     ;
(PID.TID 0000.0001) bottomVisc_pCell = /* Partial-cell in bottom Visc. BC */
(PID.TID 0000.0001)                   F
(PID.TID 0000.0001)     ;
(PID.TID 0000.0001) bottomDragLinear = /* linear bottom-drag coefficient ( m/s ) */
(PID.TID 0000.0001)                 0.000000000000000E+00
(PID.TID 0000.0001)     ;
(PID.TID 0000.0001) bottomDragQuadratic = /* quadratic bottom-drag coefficient (-) */
(PID.TID 0000.0001)                 0.000000000000000E+00
(PID.TID 0000.0001)     ;
(PID.TID 0000.0001) selectBotDragQuadr = /* select quadratic bottom drag options */
(PID.TID 0000.0001)                      -1
(PID.TID 0000.0001)     ;
(PID.TID 0000.0001) diffKhT =   /* Laplacian diffusion of heat laterally ( m^2/s ) */
(PID.TID 0000.0001)                 0.000000000000000E+00
(PID.TID 0000.0001)     ;
(PID.TID 0000.0001) diffK4T =   /* Biharmonic diffusion of heat laterally ( m^4/s ) */
(PID.TID 0000.0001)                 0.000000000000000E+00
(PID.TID 0000.0001)     ;
(PID.TID 0000.0001) diffKhS =   /* Laplacian diffusion of salt laterally ( m^2/s ) */
(PID.TID 0000.0001)                 0.000000000000000E+00
(PID.TID 0000.0001)     ;
(PID.TID 0000.0001) diffK4S =   /* Biharmonic diffusion of salt laterally ( m^4/s ) */
(PID.TID 0000.0001)                 0.000000000000000E+00
(PID.TID 0000.0001)     ;
(PID.TID 0000.0001) diffKrNrT = /* vertical profile of vertical diffusion of Temp ( m^2/s )*/
(PID.TID 0000.0001)    23 @  1.460000000000000E-05              /* K =  1: 23 */
(PID.TID 0000.0001)     ;
(PID.TID 0000.0001) diffKrNrS = /* vertical profile of vertical diffusion of Salt ( m^2/s )*/
(PID.TID 0000.0001)    23 @  1.460000000000000E-05              /* K =  1: 23 */
(PID.TID 0000.0001)     ;
(PID.TID 0000.0001) diffKrBL79surf = /* Surface diffusion for Bryan and Lewis 79 ( m^2/s ) */
(PID.TID 0000.0001)                 0.000000000000000E+00
(PID.TID 0000.0001)     ;
(PID.TID 0000.0001) diffKrBL79deep = /* Deep diffusion for Bryan and Lewis 1979 ( m^2/s ) */
(PID.TID 0000.0001)                 0.000000000000000E+00
(PID.TID 0000.0001)     ;
(PID.TID 0000.0001) diffKrBL79scl = /* Depth scale for Bryan and Lewis 1979 ( m ) */
(PID.TID 0000.0001)                 2.000000000000000E+02
(PID.TID 0000.0001)     ;
(PID.TID 0000.0001) diffKrBL79Ho = /* Turning depth for Bryan and Lewis 1979 ( m ) */
(PID.TID 0000.0001)                -2.000000000000000E+03
(PID.TID 0000.0001)     ;
(PID.TID 0000.0001) ivdc_kappa = /* Implicit Vertical Diffusivity for Convection ( m^2/s) */
(PID.TID 0000.0001)                 0.000000000000000E+00
(PID.TID 0000.0001)     ;
(PID.TID 0000.0001) hMixCriteria=  /* Criteria for mixed-layer diagnostic */
(PID.TID 0000.0001)                -8.000000000000000E-01
(PID.TID 0000.0001)     ;
(PID.TID 0000.0001) dRhoSmall =  /* Parameter for mixed-layer diagnostic */
(PID.TID 0000.0001)                 1.000000000000000E-06
(PID.TID 0000.0001)     ;
(PID.TID 0000.0001) hMixSmooth=  /* Smoothing parameter for mixed-layer diagnostic */
(PID.TID 0000.0001)                 0.000000000000000E+00
(PID.TID 0000.0001)     ;
(PID.TID 0000.0001) eosType =  /* Type of Equation of State */
(PID.TID 0000.0001)               'JMD95Z'
(PID.TID 0000.0001)     ;
(PID.TID 0000.0001) eosRefP0 = /* Reference atmospheric pressure for EOS ( Pa ) */
(PID.TID 0000.0001)                 1.013250000000000E+05
(PID.TID 0000.0001)     ;
(PID.TID 0000.0001) selectP_inEOS_Zc = /* select pressure to use in EOS (0,1,2,3) */
(PID.TID 0000.0001)                       0
(PID.TID 0000.0001)     0= -g*rhoConst*z ; 1= pRef (from tRef,sRef); 2= Hyd P ; 3= Hyd+NH P
(PID.TID 0000.0001)     ;
(PID.TID 0000.0001) surf_pRef = /* Surface reference pressure ( Pa ) */
(PID.TID 0000.0001)                 1.013250000000000E+05
(PID.TID 0000.0001)     ;
(PID.TID 0000.0001) HeatCapacity_Cp =  /* Specific heat capacity ( J/kg/K ) */
(PID.TID 0000.0001)                 3.986000000000000E+03
(PID.TID 0000.0001)     ;
(PID.TID 0000.0001) celsius2K = /* 0 degree Celsius converted to Kelvin ( K ) */
(PID.TID 0000.0001)                 2.731600000000000E+02
(PID.TID 0000.0001)     ;
(PID.TID 0000.0001) rhoConst  = /* Reference density (Boussinesq)  ( kg/m^3 ) */
(PID.TID 0000.0001)                 1.027000000000000E+03
(PID.TID 0000.0001)     ;
(PID.TID 0000.0001) rhoFacC = /* normalized Reference density @ cell-Center (-) */
(PID.TID 0000.0001)    23 @  1.000000000000000E+00              /* K =  1: 23 */
(PID.TID 0000.0001)     ;
(PID.TID 0000.0001) rhoFacF = /* normalized Reference density @ W-Interface (-) */
(PID.TID 0000.0001)    24 @  1.000000000000000E+00              /* K =  1: 24 */
(PID.TID 0000.0001)     ;
(PID.TID 0000.0001) rhoConstFresh = /* Fresh-water reference density ( kg/m^3 ) */
(PID.TID 0000.0001)                 9.998000000000000E+02
(PID.TID 0000.0001)     ;
(PID.TID 0000.0001) gravity =   /* Gravitational acceleration ( m/s^2 ) */
(PID.TID 0000.0001)                 9.815600000000000E+00
(PID.TID 0000.0001)     ;
(PID.TID 0000.0001) gBaro =   /* Barotropic gravity ( m/s^2 ) */
(PID.TID 0000.0001)                 9.815600000000000E+00
(PID.TID 0000.0001)     ;
(PID.TID 0000.0001) gravFacC = /* gravity factor (vs surf.) @ cell-Center (-) */
(PID.TID 0000.0001)    23 @  1.000000000000000E+00              /* K =  1: 23 */
(PID.TID 0000.0001)     ;
(PID.TID 0000.0001) gravFacF = /* gravity factor (vs surf.) @ W-Interface (-) */
(PID.TID 0000.0001)    24 @  1.000000000000000E+00              /* K =  1: 24 */
(PID.TID 0000.0001)     ;
(PID.TID 0000.0001) rotationPeriod =   /* Rotation Period ( s ) */
(PID.TID 0000.0001)                 8.616400000000000E+04
(PID.TID 0000.0001)     ;
(PID.TID 0000.0001) omega =   /* Angular velocity ( rad/s ) */
(PID.TID 0000.0001)                 7.292123516990375E-05
(PID.TID 0000.0001)     ;
(PID.TID 0000.0001) f0 =   /* Reference coriolis parameter ( 1/s ) */
(PID.TID 0000.0001)                 1.000000000000000E-04
(PID.TID 0000.0001)     ;
(PID.TID 0000.0001) beta =   /* Beta ( 1/(m.s) ) */
(PID.TID 0000.0001)                 9.999999999999999E-12
(PID.TID 0000.0001)     ;
(PID.TID 0000.0001) fPrime =   /* Second coriolis parameter ( 1/s ) */
(PID.TID 0000.0001)                 0.000000000000000E+00
(PID.TID 0000.0001)     ;
(PID.TID 0000.0001) rigidLid =   /* Rigid lid on/off flag */
(PID.TID 0000.0001)                   F
(PID.TID 0000.0001)     ;
(PID.TID 0000.0001) implicitFreeSurface =   /* Implicit free surface on/off flag */
(PID.TID 0000.0001)                   T
(PID.TID 0000.0001)     ;
(PID.TID 0000.0001) freeSurfFac =   /* Implicit free surface factor */
(PID.TID 0000.0001)                 1.000000000000000E+00
(PID.TID 0000.0001)     ;
(PID.TID 0000.0001) implicSurfPress =  /* Surface Pressure implicit factor (0-1)*/
(PID.TID 0000.0001)                 1.000000000000000E+00
(PID.TID 0000.0001)     ;
(PID.TID 0000.0001) implicDiv2DFlow =  /* Barot. Flow Div. implicit factor (0-1)*/
(PID.TID 0000.0001)                 1.000000000000000E+00
(PID.TID 0000.0001)     ;
(PID.TID 0000.0001) uniformLin_PhiSurf = /* use uniform Bo_surf on/off flag*/
(PID.TID 0000.0001)                   T
(PID.TID 0000.0001)     ;
(PID.TID 0000.0001) uniformFreeSurfLev = /* free-surface level-index is uniform */
(PID.TID 0000.0001)                   T
(PID.TID 0000.0001)     ;
(PID.TID 0000.0001) hFacMin =   /* minimum partial cell factor (hFac) */
(PID.TID 0000.0001)                 1.000000000000000E+00
(PID.TID 0000.0001)     ;
(PID.TID 0000.0001) hFacMinDr = /* minimum partial cell thickness ( m) */
(PID.TID 0000.0001)                 0.000000000000000E+00
(PID.TID 0000.0001)     ;
(PID.TID 0000.0001) exactConserv =  /* Exact Volume Conservation on/off flag*/
(PID.TID 0000.0001)                   F
(PID.TID 0000.0001)     ;
(PID.TID 0000.0001) linFSConserveTr = /* Tracer correction for Lin Free Surface on/off flag*/
(PID.TID 0000.0001)                   F
(PID.TID 0000.0001)     ;
(PID.TID 0000.0001) nonlinFreeSurf = /* Non-linear Free Surf. options (-1,0,1,2,3)*/
(PID.TID 0000.0001)                       0
(PID.TID 0000.0001)      -1,0= Off ; 1,2,3= On, 2=+rescale gU,gV, 3=+update cg2d solv.
(PID.TID 0000.0001)     ;
(PID.TID 0000.0001) hFacInf =   /* lower threshold for hFac (nonlinFreeSurf only)*/
(PID.TID 0000.0001)                 2.000000000000000E-01
(PID.TID 0000.0001)     ;
(PID.TID 0000.0001) hFacSup =   /* upper threshold for hFac (nonlinFreeSurf only)*/
(PID.TID 0000.0001)                 2.000000000000000E+00
(PID.TID 0000.0001)     ;
(PID.TID 0000.0001) select_rStar = /* r* Vertical coord. options (=0 r coord.; >0 uses r*)*/
(PID.TID 0000.0001)                       0
(PID.TID 0000.0001)     ;
(PID.TID 0000.0001) useRealFreshWaterFlux = /* Real Fresh Water Flux on/off flag*/
(PID.TID 0000.0001)                   F
(PID.TID 0000.0001)     ;
(PID.TID 0000.0001) temp_EvPrRn = /* Temp. of Evap/Prec/R (UNSET=use local T)(oC)*/
(PID.TID 0000.0001)                 1.234567000000000E+05
(PID.TID 0000.0001)     ;
(PID.TID 0000.0001) salt_EvPrRn = /* Salin. of Evap/Prec/R (UNSET=use local S)(psu)*/
(PID.TID 0000.0001)                 0.000000000000000E+00
(PID.TID 0000.0001)     ;
(PID.TID 0000.0001) selectAddFluid = /* option for mass source/sink of fluid (=0: off) */
(PID.TID 0000.0001)                       0
(PID.TID 0000.0001)     ;
(PID.TID 0000.0001) temp_addMass = /* Temp. of addMass array (UNSET=use local T)(oC)*/
(PID.TID 0000.0001)                 1.234567000000000E+05
(PID.TID 0000.0001)     ;
(PID.TID 0000.0001) salt_addMass = /* Salin. of addMass array (UNSET=use local S)(psu)*/
(PID.TID 0000.0001)                 0.000000000000000E+00
(PID.TID 0000.0001)     ;
(PID.TID 0000.0001) convertFW2Salt = /* convert F.W. Flux to Salt Flux (-1=use local S)(psu)*/
(PID.TID 0000.0001)                -1.000000000000000E+00
(PID.TID 0000.0001)     ;
(PID.TID 0000.0001) use3Dsolver = /* use 3-D pressure solver on/off flag */
(PID.TID 0000.0001)                   F
(PID.TID 0000.0001)     ;
(PID.TID 0000.0001) nonHydrostatic =  /* Non-Hydrostatic on/off flag */
(PID.TID 0000.0001)                   F
(PID.TID 0000.0001)     ;
(PID.TID 0000.0001) nh_Am2 = /* Non-Hydrostatic terms scaling factor */
(PID.TID 0000.0001)                 1.000000000000000E+00
(PID.TID 0000.0001)     ;
(PID.TID 0000.0001) implicitNHPress = /* Non-Hyd Pressure implicit factor (0-1)*/
(PID.TID 0000.0001)                 1.000000000000000E+00
(PID.TID 0000.0001)     ;
(PID.TID 0000.0001) selectNHfreeSurf = /* Non-Hyd (free-)Surface option */
(PID.TID 0000.0001)                       0
(PID.TID 0000.0001)     ;
(PID.TID 0000.0001) quasiHydrostatic = /* Quasi-Hydrostatic on/off flag */
(PID.TID 0000.0001)                   F
(PID.TID 0000.0001)     ;
(PID.TID 0000.0001) calc_wVelocity = /* vertical velocity calculation on/off flag */
(PID.TID 0000.0001)                   T
(PID.TID 0000.0001)     ;
(PID.TID 0000.0001) momStepping =  /* Momentum equation on/off flag */
(PID.TID 0000.0001)                   T
(PID.TID 0000.0001)     ;
(PID.TID 0000.0001) vectorInvariantMomentum= /* Vector-Invariant Momentum on/off */
(PID.TID 0000.0001)                   F
(PID.TID 0000.0001)     ;
(PID.TID 0000.0001) momAdvection =  /* Momentum advection on/off flag */
(PID.TID 0000.0001)                   T
(PID.TID 0000.0001)     ;
(PID.TID 0000.0001) momViscosity =  /* Momentum viscosity on/off flag */
(PID.TID 0000.0001)                   T
(PID.TID 0000.0001)     ;
(PID.TID 0000.0001) momImplVertAdv= /* Momentum implicit vert. advection on/off*/
(PID.TID 0000.0001)                   F
(PID.TID 0000.0001)     ;
(PID.TID 0000.0001) implicitViscosity = /* Implicit viscosity on/off flag */
(PID.TID 0000.0001)                   T
(PID.TID 0000.0001)     ;
(PID.TID 0000.0001) selectImplicitDrag= /* Implicit bot Drag options (0,1,2)*/
(PID.TID 0000.0001)                       0
(PID.TID 0000.0001)     0= Expl. ; 1= Impl. on provis. Vel ; 2= Fully Impl (with surf.P)
(PID.TID 0000.0001)     ;
(PID.TID 0000.0001) metricTerms =  /* metric-Terms on/off flag */
(PID.TID 0000.0001)                   T
(PID.TID 0000.0001)     ;
(PID.TID 0000.0001) useNHMTerms = /* Non-Hydrostatic Metric-Terms on/off */
(PID.TID 0000.0001)                   F
(PID.TID 0000.0001)     ;
(PID.TID 0000.0001) selectCoriMap = /* Coriolis Map options (0,1,2,3)*/
(PID.TID 0000.0001)                       2
(PID.TID 0000.0001)     0= f-Plane ; 1= Beta-Plane ; 2= Spherical ; 3= read from file
(PID.TID 0000.0001)     ;
(PID.TID 0000.0001) use3dCoriolis = /* 3-D Coriolis on/off flag */
(PID.TID 0000.0001)                   F
(PID.TID 0000.0001)     ;
(PID.TID 0000.0001) useCoriolis =  /* Coriolis on/off flag */
(PID.TID 0000.0001)                   T
(PID.TID 0000.0001)     ;
(PID.TID 0000.0001) useCDscheme =  /* CD scheme on/off flag */
(PID.TID 0000.0001)                   F
(PID.TID 0000.0001)     ;
(PID.TID 0000.0001) selectCoriScheme= /* Scheme selector for Coriolis-Term */
(PID.TID 0000.0001)                       0
(PID.TID 0000.0001)    = 0 : original discretization (simple averaging, no hFac)
(PID.TID 0000.0001)    = 1 : Wet-point averaging (Jamar & Ozer 1986)
(PID.TID 0000.0001)    = 2 : energy conserving scheme (no hFac weight)
(PID.TID 0000.0001)    = 3 : energy conserving scheme using Wet-point averaging
(PID.TID 0000.0001)     ;
(PID.TID 0000.0001) momForcing =  /* Momentum forcing on/off flag */
(PID.TID 0000.0001)                   T
(PID.TID 0000.0001)     ;
(PID.TID 0000.0001) momTidalForcing = /* Momentum Tidal forcing on/off flag */
(PID.TID 0000.0001)                   T
(PID.TID 0000.0001)     ;
(PID.TID 0000.0001) momPressureForcing =  /* Momentum pressure term on/off flag */
(PID.TID 0000.0001)                   T
(PID.TID 0000.0001)     ;
(PID.TID 0000.0001) implicitIntGravWave= /* Implicit Internal Gravity Wave flag */
(PID.TID 0000.0001)                   F
(PID.TID 0000.0001)     ;
(PID.TID 0000.0001) staggerTimeStep =    /* Stagger time stepping on/off flag */
(PID.TID 0000.0001)                   T
(PID.TID 0000.0001)     ;
(PID.TID 0000.0001) doResetHFactors = /* reset thickness factors @ each time-step */
(PID.TID 0000.0001)                   F
(PID.TID 0000.0001)     ;
(PID.TID 0000.0001) multiDimAdvection =  /* enable/disable Multi-Dim Advection */
(PID.TID 0000.0001)                   T
(PID.TID 0000.0001)     ;
(PID.TID 0000.0001) useMultiDimAdvec =   /* Multi-Dim Advection is/is-not used */
(PID.TID 0000.0001)                   T
(PID.TID 0000.0001)     ;
(PID.TID 0000.0001) implicitDiffusion = /* Implicit Diffusion on/off flag */
(PID.TID 0000.0001)                   T
(PID.TID 0000.0001)     ;
(PID.TID 0000.0001) tempStepping =  /* Temperature equation on/off flag */
(PID.TID 0000.0001)                   T
(PID.TID 0000.0001)     ;
(PID.TID 0000.0001) tempAdvection = /* Temperature advection on/off flag */
(PID.TID 0000.0001)                   T
(PID.TID 0000.0001)     ;
(PID.TID 0000.0001) tempImplVertAdv = /* Temp. implicit vert. advection on/off */
(PID.TID 0000.0001)                   F
(PID.TID 0000.0001)     ;
(PID.TID 0000.0001) tempForcing  =  /* Temperature forcing on/off flag */
(PID.TID 0000.0001)                   T
(PID.TID 0000.0001)     ;
(PID.TID 0000.0001) doThetaClimRelax = /* apply SST relaxation on/off flag */
(PID.TID 0000.0001)                   F
(PID.TID 0000.0001)     ;
(PID.TID 0000.0001) tempIsActiveTr = /* Temp. is a dynamically Active Tracer */
(PID.TID 0000.0001)                   T
(PID.TID 0000.0001)     ;
(PID.TID 0000.0001) saltStepping =  /* Salinity equation on/off flag */
(PID.TID 0000.0001)                   T
(PID.TID 0000.0001)     ;
(PID.TID 0000.0001) saltAdvection = /* Salinity advection on/off flag */
(PID.TID 0000.0001)                   T
(PID.TID 0000.0001)     ;
(PID.TID 0000.0001) saltImplVertAdv = /* Sali. implicit vert. advection on/off */
(PID.TID 0000.0001)                   F
(PID.TID 0000.0001)     ;
(PID.TID 0000.0001) saltForcing  =  /* Salinity forcing on/off flag */
(PID.TID 0000.0001)                   T
(PID.TID 0000.0001)     ;
(PID.TID 0000.0001) doSaltClimRelax = /* apply SSS relaxation on/off flag */
(PID.TID 0000.0001)                   T
(PID.TID 0000.0001)     ;
(PID.TID 0000.0001) saltIsActiveTr = /* Salt  is a dynamically Active Tracer */
(PID.TID 0000.0001)                   T
(PID.TID 0000.0001)     ;
(PID.TID 0000.0001)  readBinaryPrec = /* Precision used for reading binary files */
(PID.TID 0000.0001)                      32
(PID.TID 0000.0001)     ;
(PID.TID 0000.0001) writeBinaryPrec = /* Precision used for writing binary files */
(PID.TID 0000.0001)                      32
(PID.TID 0000.0001)     ;
(PID.TID 0000.0001)  rwSuffixType =   /* select format of mds file suffix */
(PID.TID 0000.0001)                       0
(PID.TID 0000.0001)    = 0 : myIter (I10.10) ;   = 1 : 100*myTime (100th sec) ;
(PID.TID 0000.0001)    = 2 : myTime (seconds);   = 3 : myTime/360 (10th of hr);
(PID.TID 0000.0001)    = 4 : myTime/3600 (hours)
(PID.TID 0000.0001)     ;
(PID.TID 0000.0001)  globalFiles = /* write "global" (=not per tile) files */
(PID.TID 0000.0001)                   F
(PID.TID 0000.0001)     ;
(PID.TID 0000.0001)  useSingleCpuIO = /* only master MPI process does I/O */
(PID.TID 0000.0001)                   T
(PID.TID 0000.0001)     ;
(PID.TID 0000.0001)  useSingleCpuInput = /* only master process reads input */
(PID.TID 0000.0001)                   T
(PID.TID 0000.0001)     ;
(PID.TID 0000.0001) /* debLev[*]  : level of debug & auxiliary message printing */
(PID.TID 0000.0001) debLevZero =  0 ; /* level of disabled aux. msg printing */
(PID.TID 0000.0001)    debLevA =  1 ; /* level of minimum  aux. msg printing */
(PID.TID 0000.0001)    debLevB =  2 ; /* level of low aux. print (report read-file opening)*/
(PID.TID 0000.0001)    debLevC =  3 ; /* level of moderate debug prt (most pkgs debug msg) */
(PID.TID 0000.0001)    debLevD =  4 ; /* level of enhanced debug prt (add DEBUG_STATS prt) */
(PID.TID 0000.0001)    debLevE =  5 ; /* level of extensive debug printing */
(PID.TID 0000.0001) debugLevel =  /* select debug printing level */
(PID.TID 0000.0001)                       2
(PID.TID 0000.0001)     ;
(PID.TID 0000.0001)  plotLevel =  /* select PLOT_FIELD printing level */
(PID.TID 0000.0001)                       2
(PID.TID 0000.0001)     ;
(PID.TID 0000.0001) //
(PID.TID 0000.0001) // Elliptic solver(s) paramters ( PARM02 in namelist )
(PID.TID 0000.0001) //
(PID.TID 0000.0001) cg2dMaxIters =   /* Upper limit on 2d con. grad iterations  */
(PID.TID 0000.0001)                     500
(PID.TID 0000.0001)     ;
(PID.TID 0000.0001) cg2dChkResFreq =   /* 2d con. grad convergence test frequency */
(PID.TID 0000.0001)                       1
(PID.TID 0000.0001)     ;
(PID.TID 0000.0001) cg2dUseMinResSol= /* use cg2d last-iter(=0) / min-resid.(=1) solution */
(PID.TID 0000.0001)                       0
(PID.TID 0000.0001)     ;
(PID.TID 0000.0001) cg2dTargetResidual =   /* 2d con. grad target residual  */
(PID.TID 0000.0001)                 1.000000000000000E-12
(PID.TID 0000.0001)     ;
(PID.TID 0000.0001) cg2dTargetResWunit =   /* CG2d target residual [W units] */
(PID.TID 0000.0001)                -1.000000000000000E+00
(PID.TID 0000.0001)     ;
(PID.TID 0000.0001) cg2dPreCondFreq =   /* Freq. for updating cg2d preconditioner */
(PID.TID 0000.0001)                       1
(PID.TID 0000.0001)     ;
(PID.TID 0000.0001) useSRCGSolver =  /* use single reduction CG solver(s) */
(PID.TID 0000.0001)                   F
(PID.TID 0000.0001)     ;
(PID.TID 0000.0001) printResidualFreq = /* Freq. for printing CG residual */
(PID.TID 0000.0001)                       0
(PID.TID 0000.0001)     ;
(PID.TID 0000.0001) //
(PID.TID 0000.0001) // Time stepping paramters ( PARM03 in namelist )
(PID.TID 0000.0001) //
(PID.TID 0000.0001) deltaTMom =   /* Momentum equation timestep ( s ) */
(PID.TID 0000.0001)                 3.600000000000000E+03
(PID.TID 0000.0001)     ;
(PID.TID 0000.0001) deltaTFreeSurf = /* FreeSurface equation timestep ( s ) */
(PID.TID 0000.0001)                 3.600000000000000E+03
(PID.TID 0000.0001)     ;
(PID.TID 0000.0001) dTtracerLev =  /* Tracer equation timestep ( s ) */
(PID.TID 0000.0001)    23 @  3.600000000000000E+03              /* K =  1: 23 */
(PID.TID 0000.0001)     ;
(PID.TID 0000.0001) deltaTClock  =   /* Model clock timestep ( s ) */
(PID.TID 0000.0001)                 3.600000000000000E+03
(PID.TID 0000.0001)     ;
(PID.TID 0000.0001) cAdjFreq =   /* Convective adjustment interval ( s ) */
(PID.TID 0000.0001)                 0.000000000000000E+00
(PID.TID 0000.0001)     ;
(PID.TID 0000.0001) momForcingOutAB = /* =1: take Momentum Forcing out of Adams-Bash. stepping */
(PID.TID 0000.0001)                       1
(PID.TID 0000.0001)     ;
(PID.TID 0000.0001) tracForcingOutAB = /* =1: take T,S,pTr Forcing out of Adams-Bash. stepping */
(PID.TID 0000.0001)                       1
(PID.TID 0000.0001)     ;
(PID.TID 0000.0001) momDissip_In_AB = /* put Dissipation Tendency in Adams-Bash. stepping */
(PID.TID 0000.0001)                   T
(PID.TID 0000.0001)     ;
(PID.TID 0000.0001) doAB_onGtGs = /* apply AB on Tendencies (rather than on T,S)*/
(PID.TID 0000.0001)                   T
(PID.TID 0000.0001)     ;
(PID.TID 0000.0001) abEps =   /* Adams-Bashforth-2 stabilizing weight */
(PID.TID 0000.0001)                 1.000000000000000E-01
(PID.TID 0000.0001)     ;
(PID.TID 0000.0001) applyExchUV_early = /* Apply EXCH to U,V earlier in time-step */
(PID.TID 0000.0001)                   F
(PID.TID 0000.0001)     ;
(PID.TID 0000.0001) pickupStrictlyMatch= /* stop if pickup do not strictly match */
(PID.TID 0000.0001)                   F
(PID.TID 0000.0001)     ;
(PID.TID 0000.0001) nIter0   =   /* Run starting timestep number */
(PID.TID 0000.0001)                       1
(PID.TID 0000.0001)     ;
(PID.TID 0000.0001) nTimeSteps = /* Number of timesteps */
(PID.TID 0000.0001)                       5
(PID.TID 0000.0001)     ;
(PID.TID 0000.0001) nEndIter =   /* Run ending timestep number */
(PID.TID 0000.0001)                       6
(PID.TID 0000.0001)     ;
(PID.TID 0000.0001) baseTime =   /* Model base time ( s ) */
(PID.TID 0000.0001)                 0.000000000000000E+00
(PID.TID 0000.0001)     ;
(PID.TID 0000.0001) startTime =  /* Run start time ( s ) */
(PID.TID 0000.0001)                 3.600000000000000E+03
(PID.TID 0000.0001)     ;
(PID.TID 0000.0001) endTime  =   /* Integration ending time ( s ) */
(PID.TID 0000.0001)                 2.160000000000000E+04
(PID.TID 0000.0001)     ;
(PID.TID 0000.0001) pChkPtFreq = /* Permanent restart/pickup file interval ( s ) */
(PID.TID 0000.0001)                 3.600000000000000E+04
(PID.TID 0000.0001)     ;
(PID.TID 0000.0001) chkPtFreq  = /* Rolling restart/pickup file interval ( s ) */
(PID.TID 0000.0001)                 0.000000000000000E+00
(PID.TID 0000.0001)     ;
(PID.TID 0000.0001) pickup_write_mdsio =   /* Model IO flag. */
(PID.TID 0000.0001)                   T
(PID.TID 0000.0001)     ;
(PID.TID 0000.0001) pickup_read_mdsio =   /* Model IO flag. */
(PID.TID 0000.0001)                   T
(PID.TID 0000.0001)     ;
(PID.TID 0000.0001) writePickupAtEnd =   /* Model IO flag. */
(PID.TID 0000.0001)                   T
(PID.TID 0000.0001)     ;
(PID.TID 0000.0001) dumpFreq =   /* Model state write out interval ( s ). */
(PID.TID 0000.0001)                 0.000000000000000E+00
(PID.TID 0000.0001)     ;
(PID.TID 0000.0001) dumpInitAndLast= /* write out Initial & Last iter. model state */
(PID.TID 0000.0001)                   T
(PID.TID 0000.0001)     ;
(PID.TID 0000.0001) snapshot_mdsio =   /* Model IO flag. */
(PID.TID 0000.0001)                   T
(PID.TID 0000.0001)     ;
(PID.TID 0000.0001) monitorFreq =   /* Monitor output interval ( s ). */
(PID.TID 0000.0001)                 1.000000000000000E+00
(PID.TID 0000.0001)     ;
(PID.TID 0000.0001) monitorSelect = /* select group of variables to monitor */
(PID.TID 0000.0001)                       3
(PID.TID 0000.0001)     ;
(PID.TID 0000.0001) monitor_stdio =   /* Model IO flag. */
(PID.TID 0000.0001)                   T
(PID.TID 0000.0001)     ;
(PID.TID 0000.0001) externForcingPeriod =   /* forcing period (s) */
(PID.TID 0000.0001)                 0.000000000000000E+00
(PID.TID 0000.0001)     ;
(PID.TID 0000.0001) externForcingCycle =   /* period of the cyle (s). */
(PID.TID 0000.0001)                 0.000000000000000E+00
(PID.TID 0000.0001)     ;
(PID.TID 0000.0001) tauThetaClimRelax =   /* relaxation time scale (s) */
(PID.TID 0000.0001)                 0.000000000000000E+00
(PID.TID 0000.0001)     ;
(PID.TID 0000.0001) tauSaltClimRelax =   /* relaxation time scale (s) */
(PID.TID 0000.0001)                 4.142330000000000E+06
(PID.TID 0000.0001)     ;
(PID.TID 0000.0001) latBandClimRelax =   /* max. Lat. where relaxation */
(PID.TID 0000.0001)                 1.800000000000000E+02
(PID.TID 0000.0001)     ;
(PID.TID 0000.0001) //
(PID.TID 0000.0001) // Gridding paramters ( PARM04 in namelist )
(PID.TID 0000.0001) //
(PID.TID 0000.0001) usingCartesianGrid = /* Cartesian coordinates flag ( True/False ) */
(PID.TID 0000.0001)                   F
(PID.TID 0000.0001)     ;
(PID.TID 0000.0001) usingCylindricalGrid = /* Cylindrical coordinates flag ( True/False ) */
(PID.TID 0000.0001)                   F
(PID.TID 0000.0001)     ;
(PID.TID 0000.0001) usingSphericalPolarGrid = /* Spherical coordinates flag ( True/False ) */
(PID.TID 0000.0001)                   T
(PID.TID 0000.0001)     ;
(PID.TID 0000.0001) usingCurvilinearGrid = /* Curvilinear coordinates flag ( True/False ) */
(PID.TID 0000.0001)                   F
(PID.TID 0000.0001)     ;
(PID.TID 0000.0001) useMin4hFacEdges = /* set hFacW,S as minimum of adjacent hFacC factor */
(PID.TID 0000.0001)                   F
(PID.TID 0000.0001)     ;
(PID.TID 0000.0001) interViscAr_pCell = /* account for partial-cell in interior vert. viscosity */
(PID.TID 0000.0001)                   F
(PID.TID 0000.0001)     ;
(PID.TID 0000.0001) interDiffKr_pCell = /* account for partial-cell in interior vert. diffusion */
(PID.TID 0000.0001)                   F
(PID.TID 0000.0001)     ;
(PID.TID 0000.0001) pCellMix_select = /* option to enhance mixing near surface & bottom */
(PID.TID 0000.0001)                       0
(PID.TID 0000.0001)     ;
(PID.TID 0000.0001) selectSigmaCoord = /* Hybrid-Sigma Vert. Coordinate option */
(PID.TID 0000.0001)                       0
(PID.TID 0000.0001)     ;
(PID.TID 0000.0001) rSigmaBnd = /* r/sigma transition ( units of r ==  m ) */
(PID.TID 0000.0001)                 1.234567000000000E+05
(PID.TID 0000.0001)     ;
(PID.TID 0000.0001) rkSign =   /* index orientation relative to vertical coordinate */
(PID.TID 0000.0001)                -1.000000000000000E+00
(PID.TID 0000.0001)     ;
(PID.TID 0000.0001) gravitySign = /* gravity orientation relative to vertical coordinate */
(PID.TID 0000.0001)                -1.000000000000000E+00
(PID.TID 0000.0001)     ;
(PID.TID 0000.0001) seaLev_Z =  /* reference height of sea-level [m] */
(PID.TID 0000.0001)                 0.000000000000000E+00
(PID.TID 0000.0001)     ;
(PID.TID 0000.0001) top_Pres =  /* reference pressure at the top [Pa] */
(PID.TID 0000.0001)                 0.000000000000000E+00
(PID.TID 0000.0001)     ;
(PID.TID 0000.0001) mass2rUnit = /* convert mass per unit area [kg/m2] to r-units [m] */
(PID.TID 0000.0001)                 9.737098344693282E-04
(PID.TID 0000.0001)     ;
(PID.TID 0000.0001) rUnit2mass = /* convert r-units [m] to mass per unit area [kg/m2] */
(PID.TID 0000.0001)                 1.027000000000000E+03
(PID.TID 0000.0001)     ;
(PID.TID 0000.0001) drC =   /* C spacing ( units of r ) */
(PID.TID 0000.0001)                 5.000000000000000E+00,      /* K =  1 */
(PID.TID 0000.0001)                 1.000000000000000E+01,      /* K =  2 */
(PID.TID 0000.0001)                 1.250000000000000E+01,      /* K =  3 */
(PID.TID 0000.0001)                 1.750000000000000E+01,      /* K =  4 */
(PID.TID 0000.0001)                 2.000000000000000E+01,      /* K =  5 */
(PID.TID 0000.0001)                 2.250000000000000E+01,      /* K =  6 */
(PID.TID 0000.0001)                 3.000000000000000E+01,      /* K =  7 */
(PID.TID 0000.0001)                 4.250000000000000E+01,      /* K =  8 */
(PID.TID 0000.0001)                 6.250000000000000E+01,      /* K =  9 */
(PID.TID 0000.0001)                 8.750000000000000E+01,      /* K = 10 */
(PID.TID 0000.0001)                 1.250000000000000E+02,      /* K = 11 */
(PID.TID 0000.0001)                 1.750000000000000E+02,      /* K = 12 */
(PID.TID 0000.0001)                 2.375000000000000E+02,      /* K = 13 */
(PID.TID 0000.0001)                 3.125000000000000E+02,      /* K = 14 */
(PID.TID 0000.0001)                 3.825000000000000E+02,      /* K = 15 */
(PID.TID 0000.0001)                 4.325000000000000E+02,      /* K = 16 */
(PID.TID 0000.0001)                 4.750000000000000E+02,      /* K = 17 */
(PID.TID 0000.0001)     6 @  5.000000000000000E+02,             /* K = 18: 23 */
(PID.TID 0000.0001)                 2.500000000000000E+02       /* K = 24 */
(PID.TID 0000.0001)     ;
(PID.TID 0000.0001) drF =   /* W spacing ( units of r ) */
(PID.TID 0000.0001)     2 @  1.000000000000000E+01,             /* K =  1:  2 */
(PID.TID 0000.0001)                 1.500000000000000E+01,      /* K =  3 */
(PID.TID 0000.0001)     2 @  2.000000000000000E+01,             /* K =  4:  5 */
(PID.TID 0000.0001)                 2.500000000000000E+01,      /* K =  6 */
(PID.TID 0000.0001)                 3.500000000000000E+01,      /* K =  7 */
(PID.TID 0000.0001)                 5.000000000000000E+01,      /* K =  8 */
(PID.TID 0000.0001)                 7.500000000000000E+01,      /* K =  9 */
(PID.TID 0000.0001)                 1.000000000000000E+02,      /* K = 10 */
(PID.TID 0000.0001)                 1.500000000000000E+02,      /* K = 11 */
(PID.TID 0000.0001)                 2.000000000000000E+02,      /* K = 12 */
(PID.TID 0000.0001)                 2.750000000000000E+02,      /* K = 13 */
(PID.TID 0000.0001)                 3.500000000000000E+02,      /* K = 14 */
(PID.TID 0000.0001)                 4.150000000000000E+02,      /* K = 15 */
(PID.TID 0000.0001)                 4.500000000000000E+02,      /* K = 16 */
(PID.TID 0000.0001)     7 @  5.000000000000000E+02              /* K = 17: 23 */
(PID.TID 0000.0001)     ;
(PID.TID 0000.0001) delX = /* U spacing ( m - cartesian, degrees - spherical ) */
(PID.TID 0000.0001)    10 @  2.000000000000000E+00              /* I =  1: 10 */
(PID.TID 0000.0001)     ;
(PID.TID 0000.0001) delY = /* V spacing ( m - cartesian, degrees - spherical ) */
(PID.TID 0000.0001)     8 @  2.000000000000000E+00              /* J =  1:  8 */
(PID.TID 0000.0001)     ;
(PID.TID 0000.0001) xgOrigin = /* X-axis origin of West  edge (cartesian: m, lat-lon: deg) */
(PID.TID 0000.0001)                 2.800000000000000E+02
(PID.TID 0000.0001)     ;
(PID.TID 0000.0001) ygOrigin = /* Y-axis origin of South edge (cartesian: m, lat-lon: deg) */
(PID.TID 0000.0001)                 4.600000000000000E+01
(PID.TID 0000.0001)     ;
(PID.TID 0000.0001) rSphere =  /* Radius ( ignored - cartesian, m - spherical ) */
(PID.TID 0000.0001)                 6.371000000000000E+06
(PID.TID 0000.0001)     ;
(PID.TID 0000.0001) deepAtmosphere = /* Deep/Shallow Atmosphere flag (True/False) */
(PID.TID 0000.0001)                   F
(PID.TID 0000.0001)     ;
(PID.TID 0000.0001) xC =  /* xC(:,1,:,1) : P-point X coord ( deg. or m if cartesian) */
(PID.TID 0000.0001)                 2.810000000000000E+02,      /* I =  1 */
(PID.TID 0000.0001)                 2.830000000000000E+02,      /* I =  2 */
(PID.TID 0000.0001)                 2.850000000000000E+02,      /* I =  3 */
(PID.TID 0000.0001)                 2.870000000000000E+02,      /* I =  4 */
(PID.TID 0000.0001)                 2.890000000000000E+02,      /* I =  5 */
(PID.TID 0000.0001)                 2.910000000000000E+02,      /* I =  6 */
(PID.TID 0000.0001)                 2.930000000000000E+02,      /* I =  7 */
(PID.TID 0000.0001)                 2.950000000000000E+02,      /* I =  8 */
(PID.TID 0000.0001)                 2.970000000000000E+02,      /* I =  9 */
(PID.TID 0000.0001)                 2.990000000000000E+02       /* I = 10 */
(PID.TID 0000.0001)     ;
(PID.TID 0000.0001) yC =  /* yC(1,:,1,:) : P-point Y coord ( deg. or m if cartesian) */
(PID.TID 0000.0001)                 4.700000000000000E+01,      /* J =  1 */
(PID.TID 0000.0001)                 4.900000000000000E+01,      /* J =  2 */
(PID.TID 0000.0001)                 5.100000000000000E+01,      /* J =  3 */
(PID.TID 0000.0001)                 5.300000000000000E+01,      /* J =  4 */
(PID.TID 0000.0001)                 5.500000000000000E+01,      /* J =  5 */
(PID.TID 0000.0001)                 5.700000000000000E+01,      /* J =  6 */
(PID.TID 0000.0001)                 5.900000000000000E+01,      /* J =  7 */
(PID.TID 0000.0001)                 6.100000000000000E+01       /* J =  8 */
(PID.TID 0000.0001)     ;
(PID.TID 0000.0001) rcoord = /* P-point R coordinate (  units of r ) */
(PID.TID 0000.0001)                -5.000000000000000E+00,      /* K =  1 */
(PID.TID 0000.0001)                -1.500000000000000E+01,      /* K =  2 */
(PID.TID 0000.0001)                -2.750000000000000E+01,      /* K =  3 */
(PID.TID 0000.0001)                -4.500000000000000E+01,      /* K =  4 */
(PID.TID 0000.0001)                -6.500000000000000E+01,      /* K =  5 */
(PID.TID 0000.0001)                -8.750000000000000E+01,      /* K =  6 */
(PID.TID 0000.0001)                -1.175000000000000E+02,      /* K =  7 */
(PID.TID 0000.0001)                -1.600000000000000E+02,      /* K =  8 */
(PID.TID 0000.0001)                -2.225000000000000E+02,      /* K =  9 */
(PID.TID 0000.0001)                -3.100000000000000E+02,      /* K = 10 */
(PID.TID 0000.0001)                -4.350000000000000E+02,      /* K = 11 */
(PID.TID 0000.0001)                -6.100000000000000E+02,      /* K = 12 */
(PID.TID 0000.0001)                -8.475000000000000E+02,      /* K = 13 */
(PID.TID 0000.0001)                -1.160000000000000E+03,      /* K = 14 */
(PID.TID 0000.0001)                -1.542500000000000E+03,      /* K = 15 */
(PID.TID 0000.0001)                -1.975000000000000E+03,      /* K = 16 */
(PID.TID 0000.0001)                -2.450000000000000E+03,      /* K = 17 */
(PID.TID 0000.0001)                -2.950000000000000E+03,      /* K = 18 */
(PID.TID 0000.0001)                -3.450000000000000E+03,      /* K = 19 */
(PID.TID 0000.0001)                -3.950000000000000E+03,      /* K = 20 */
(PID.TID 0000.0001)                -4.450000000000000E+03,      /* K = 21 */
(PID.TID 0000.0001)                -4.950000000000000E+03,      /* K = 22 */
(PID.TID 0000.0001)                -5.450000000000000E+03       /* K = 23 */
(PID.TID 0000.0001)     ;
(PID.TID 0000.0001) rF =   /* W-Interf. R coordinate (  units of r ) */
(PID.TID 0000.0001)                 0.000000000000000E+00,      /* K =  1 */
(PID.TID 0000.0001)                -1.000000000000000E+01,      /* K =  2 */
(PID.TID 0000.0001)                -2.000000000000000E+01,      /* K =  3 */
(PID.TID 0000.0001)                -3.500000000000000E+01,      /* K =  4 */
(PID.TID 0000.0001)                -5.500000000000000E+01,      /* K =  5 */
(PID.TID 0000.0001)                -7.500000000000000E+01,      /* K =  6 */
(PID.TID 0000.0001)                -1.000000000000000E+02,      /* K =  7 */
(PID.TID 0000.0001)                -1.350000000000000E+02,      /* K =  8 */
(PID.TID 0000.0001)                -1.850000000000000E+02,      /* K =  9 */
(PID.TID 0000.0001)                -2.600000000000000E+02,      /* K = 10 */
(PID.TID 0000.0001)                -3.600000000000000E+02,      /* K = 11 */
(PID.TID 0000.0001)                -5.100000000000000E+02,      /* K = 12 */
(PID.TID 0000.0001)                -7.100000000000000E+02,      /* K = 13 */
(PID.TID 0000.0001)                -9.850000000000000E+02,      /* K = 14 */
(PID.TID 0000.0001)                -1.335000000000000E+03,      /* K = 15 */
(PID.TID 0000.0001)                -1.750000000000000E+03,      /* K = 16 */
(PID.TID 0000.0001)                -2.200000000000000E+03,      /* K = 17 */
(PID.TID 0000.0001)                -2.700000000000000E+03,      /* K = 18 */
(PID.TID 0000.0001)                -3.200000000000000E+03,      /* K = 19 */
(PID.TID 0000.0001)                -3.700000000000000E+03,      /* K = 20 */
(PID.TID 0000.0001)                -4.200000000000000E+03,      /* K = 21 */
(PID.TID 0000.0001)                -4.700000000000000E+03,      /* K = 22 */
(PID.TID 0000.0001)                -5.200000000000000E+03,      /* K = 23 */
(PID.TID 0000.0001)                -5.700000000000000E+03       /* K = 24 */
(PID.TID 0000.0001)     ;
(PID.TID 0000.0001) deepFacC = /* deep-model grid factor @ cell-Center (-) */
(PID.TID 0000.0001)    23 @  1.000000000000000E+00              /* K =  1: 23 */
(PID.TID 0000.0001)     ;
(PID.TID 0000.0001) deepFacF = /* deep-model grid factor @ W-Interface (-) */
(PID.TID 0000.0001)    24 @  1.000000000000000E+00              /* K =  1: 24 */
(PID.TID 0000.0001)     ;
(PID.TID 0000.0001) rVel2wUnit = /* convert units: rVel -> wSpeed (=1 if z-coord)*/
(PID.TID 0000.0001)    24 @  1.000000000000000E+00              /* K =  1: 24 */
(PID.TID 0000.0001)     ;
(PID.TID 0000.0001) wUnit2rVel = /* convert units: wSpeed -> rVel (=1 if z-coord)*/
(PID.TID 0000.0001)    24 @  1.000000000000000E+00              /* K =  1: 24 */
(PID.TID 0000.0001)     ;
(PID.TID 0000.0001) dBdrRef = /* Vertical grad. of reference buoyancy [(m/s/r)^2] */
(PID.TID 0000.0001)                 0.000000000000000E+00,      /* K =  1 */
(PID.TID 0000.0001)                 3.513461801096672E-04,      /* K =  2 */
(PID.TID 0000.0001)                 2.578462793867026E-04,      /* K =  3 */
(PID.TID 0000.0001)                 1.716535447918954E-04,      /* K =  4 */
(PID.TID 0000.0001)                 1.391849606744939E-04,      /* K =  5 */
(PID.TID 0000.0001)                 1.106038973987551E-04,      /* K =  6 */
(PID.TID 0000.0001)                 7.062448315028799E-05,      /* K =  7 */
(PID.TID 0000.0001)                 4.112152780686669E-05,      /* K =  8 */
(PID.TID 0000.0001)                 2.554455911799560E-05,      /* K =  9 */
(PID.TID 0000.0001)                 1.739274227427603E-05,      /* K = 10 */
(PID.TID 0000.0001)                 1.573008010125636E-05,      /* K = 11 */
(PID.TID 0000.0001)                 1.341763357458043E-05,      /* K = 12 */
(PID.TID 0000.0001)                 1.029886793911016E-05,      /* K = 13 */
(PID.TID 0000.0001)                 7.244777660794312E-06,      /* K = 14 */
(PID.TID 0000.0001)                 5.291061202791868E-06,      /* K = 15 */
(PID.TID 0000.0001)                 4.668992652371521E-06,      /* K = 16 */
(PID.TID 0000.0001)                 3.952349989520169E-06,      /* K = 17 */
(PID.TID 0000.0001)                 3.937600045035830E-06,      /* K = 18 */
(PID.TID 0000.0001)                 3.833348475309353E-06,      /* K = 19 */
(PID.TID 0000.0001)                 4.027570774400333E-06,      /* K = 20 */
(PID.TID 0000.0001)                 3.935806005392895E-06,      /* K = 21 */
(PID.TID 0000.0001)                 3.995673930141529E-06,      /* K = 22 */
(PID.TID 0000.0001)                 4.061338744769299E-06       /* K = 23 */
(PID.TID 0000.0001)     ;
(PID.TID 0000.0001) rotateGrid = /* use rotated grid ( True/False ) */
(PID.TID 0000.0001)                   F
(PID.TID 0000.0001)     ;
(PID.TID 0000.0001) phiEuler = /* Euler angle, rotation about original z-coordinate [rad] */
(PID.TID 0000.0001)                 0.000000000000000E+00
(PID.TID 0000.0001)     ;
(PID.TID 0000.0001) thetaEuler = /* Euler angle, rotation about new x-coordinate [rad] */
(PID.TID 0000.0001)                 0.000000000000000E+00
(PID.TID 0000.0001)     ;
(PID.TID 0000.0001) psiEuler = /* Euler angle, rotation about new z-coordinate [rad] */
(PID.TID 0000.0001)                 0.000000000000000E+00
(PID.TID 0000.0001)     ;
(PID.TID 0000.0001) dxF =  /* dxF(:,1,:,1) ( units: m ) */
(PID.TID 0000.0001)    10 @  1.516695152377178E+05              /* I =  1: 10 */
(PID.TID 0000.0001)     ;
(PID.TID 0000.0001) dxF =  /* dxF(1,:,1,:) ( units: m ) */
(PID.TID 0000.0001)                 1.516695152377178E+05,      /* J =  1 */
(PID.TID 0000.0001)                 1.459008712061998E+05,      /* J =  2 */
(PID.TID 0000.0001)                 1.399544694374234E+05,      /* J =  3 */
(PID.TID 0000.0001)                 1.338375547059709E+05,      /* J =  4 */
(PID.TID 0000.0001)                 1.275575795302040E+05,      /* J =  5 */
(PID.TID 0000.0001)                 1.211221950925184E+05,      /* J =  6 */
(PID.TID 0000.0001)                 1.145392419175564E+05,      /* J =  7 */
(PID.TID 0000.0001)                 1.078167403197357E+05       /* J =  8 */
(PID.TID 0000.0001)     ;
(PID.TID 0000.0001) dyF =  /* dyF(:,1,:,1) ( units: m ) */
(PID.TID 0000.0001)    10 @  2.223898532891175E+05              /* I =  1: 10 */
(PID.TID 0000.0001)     ;
(PID.TID 0000.0001) dyF =  /* dyF(1,:,1,:) ( units: m ) */
(PID.TID 0000.0001)     8 @  2.223898532891175E+05              /* J =  1:  8 */
(PID.TID 0000.0001)     ;
(PID.TID 0000.0001) dxG =  /* dxG(:,1,:,1) ( units: m ) */
(PID.TID 0000.0001)    10 @  1.544849730924338E+05              /* I =  1: 10 */
(PID.TID 0000.0001)     ;
(PID.TID 0000.0001) dxG =  /* dxG(1,:,1,:) ( units: m ) */
(PID.TID 0000.0001)                 1.544849730924338E+05,      /* J =  1 */
(PID.TID 0000.0001)                 1.488078573794047E+05,      /* J =  2 */
(PID.TID 0000.0001)                 1.429494422142520E+05,      /* J =  3 */
(PID.TID 0000.0001)                 1.369168651734348E+05,      /* J =  4 */
(PID.TID 0000.0001)                 1.307174760228300E+05,      /* J =  5 */
(PID.TID 0000.0001)                 1.243588277631750E+05,      /* J =  6 */
(PID.TID 0000.0001)                 1.178486674278995E+05,      /* J =  7 */
(PID.TID 0000.0001)                 1.111949266445588E+05       /* J =  8 */
(PID.TID 0000.0001)     ;
(PID.TID 0000.0001) dyG =  /* dyG(:,1,:,1) ( units: m ) */
(PID.TID 0000.0001)    10 @  2.223898532891175E+05              /* I =  1: 10 */
(PID.TID 0000.0001)     ;
(PID.TID 0000.0001) dyG =  /* dyG(1,:,1,:) ( units: m ) */
(PID.TID 0000.0001)     8 @  2.223898532891175E+05              /* J =  1:  8 */
(PID.TID 0000.0001)     ;
(PID.TID 0000.0001) dxC =  /* dxC(:,1,:,1) ( units: m ) */
(PID.TID 0000.0001)    10 @  1.516695152377178E+05              /* I =  1: 10 */
(PID.TID 0000.0001)     ;
(PID.TID 0000.0001) dxC =  /* dxC(1,:,1,:) ( units: m ) */
(PID.TID 0000.0001)                 1.516695152377178E+05,      /* J =  1 */
(PID.TID 0000.0001)                 1.459008712061998E+05,      /* J =  2 */
(PID.TID 0000.0001)                 1.399544694374234E+05,      /* J =  3 */
(PID.TID 0000.0001)                 1.338375547059709E+05,      /* J =  4 */
(PID.TID 0000.0001)                 1.275575795302040E+05,      /* J =  5 */
(PID.TID 0000.0001)                 1.211221950925184E+05,      /* J =  6 */
(PID.TID 0000.0001)                 1.145392419175564E+05,      /* J =  7 */
(PID.TID 0000.0001)                 1.078167403197357E+05       /* J =  8 */
(PID.TID 0000.0001)     ;
(PID.TID 0000.0001) dyC =  /* dyC(:,1,:,1) ( units: m ) */
(PID.TID 0000.0001)    10 @  2.223898532891175E+05              /* I =  1: 10 */
(PID.TID 0000.0001)     ;
(PID.TID 0000.0001) dyC =  /* dyC(1,:,1,:) ( units: m ) */
(PID.TID 0000.0001)     8 @  2.223898532891175E+05              /* J =  1:  8 */
(PID.TID 0000.0001)     ;
(PID.TID 0000.0001) dxV =  /* dxV(:,1,:,1) ( units: m ) */
(PID.TID 0000.0001)    10 @  1.544849730924338E+05              /* I =  1: 10 */
(PID.TID 0000.0001)     ;
(PID.TID 0000.0001) dxV =  /* dxV(1,:,1,:) ( units: m ) */
(PID.TID 0000.0001)                 1.544849730924338E+05,      /* J =  1 */
(PID.TID 0000.0001)                 1.488078573794047E+05,      /* J =  2 */
(PID.TID 0000.0001)                 1.429494422142520E+05,      /* J =  3 */
(PID.TID 0000.0001)                 1.369168651734348E+05,      /* J =  4 */
(PID.TID 0000.0001)                 1.307174760228300E+05,      /* J =  5 */
(PID.TID 0000.0001)                 1.243588277631750E+05,      /* J =  6 */
(PID.TID 0000.0001)                 1.178486674278995E+05,      /* J =  7 */
(PID.TID 0000.0001)                 1.111949266445588E+05       /* J =  8 */
(PID.TID 0000.0001)     ;
(PID.TID 0000.0001) dyU =  /* dyU(:,1,:,1) ( units: m ) */
(PID.TID 0000.0001)    10 @  2.223898532891175E+05              /* I =  1: 10 */
(PID.TID 0000.0001)     ;
(PID.TID 0000.0001) dyU =  /* dyU(1,:,1,:) ( units: m ) */
(PID.TID 0000.0001)     8 @  2.223898532891175E+05              /* J =  1:  8 */
(PID.TID 0000.0001)     ;
(PID.TID 0000.0001) rA  =  /* rA (:,1,:,1) ( units: m^2 ) */
(PID.TID 0000.0001)    10 @  3.372804882275630E+10              /* I =  1: 10 */
(PID.TID 0000.0001)     ;
(PID.TID 0000.0001) rA  =  /* rA (1,:,1,:) ( units: m^2 ) */
(PID.TID 0000.0001)                 3.372804882275630E+10,      /* J =  1 */
(PID.TID 0000.0001)                 3.244522605358471E+10,      /* J =  2 */
(PID.TID 0000.0001)                 3.112287377427108E+10,      /* J =  3 */
(PID.TID 0000.0001)                 2.976260306737437E+10,      /* J =  4 */
(PID.TID 0000.0001)                 2.836607121321784E+10,      /* J =  5 */
(PID.TID 0000.0001)                 2.693497967074614E+10,      /* J =  6 */
(PID.TID 0000.0001)                 2.547107200456132E+10,      /* J =  7 */
(PID.TID 0000.0001)                 2.397613176065682E+10       /* J =  8 */
(PID.TID 0000.0001)     ;
(PID.TID 0000.0001) rAw =  /* rAw(:,1,:,1) ( units: m^2 ) */
(PID.TID 0000.0001)    10 @  3.372804882275630E+10              /* I =  1: 10 */
(PID.TID 0000.0001)     ;
(PID.TID 0000.0001) rAw =  /* rAw(1,:,1,:) ( units: m^2 ) */
(PID.TID 0000.0001)                 3.372804882275630E+10,      /* J =  1 */
(PID.TID 0000.0001)                 3.244522605358471E+10,      /* J =  2 */
(PID.TID 0000.0001)                 3.112287377427108E+10,      /* J =  3 */
(PID.TID 0000.0001)                 2.976260306737437E+10,      /* J =  4 */
(PID.TID 0000.0001)                 2.836607121321784E+10,      /* J =  5 */
(PID.TID 0000.0001)                 2.693497967074614E+10,      /* J =  6 */
(PID.TID 0000.0001)                 2.547107200456132E+10,      /* J =  7 */
(PID.TID 0000.0001)                 2.397613176065682E+10       /* J =  8 */
(PID.TID 0000.0001)     ;
(PID.TID 0000.0001) rAs =  /* rAs(:,1,:,1) ( units: m^2 ) */
(PID.TID 0000.0001)    10 @  3.435414629417918E+10              /* I =  1: 10 */
(PID.TID 0000.0001)     ;
(PID.TID 0000.0001) rAs =  /* rAs(1,:,1,:) ( units: m^2 ) */
(PID.TID 0000.0001)                 3.435414629417918E+10,      /* J =  1 */
(PID.TID 0000.0001)                 3.309167746093097E+10,      /* J =  2 */
(PID.TID 0000.0001)                 3.178889151607872E+10,      /* J =  3 */
(PID.TID 0000.0001)                 3.044737570361747E+10,      /* J =  4 */
(PID.TID 0000.0001)                 2.906876445392020E+10,      /* J =  5 */
(PID.TID 0000.0001)                 2.765473739243563E+10,      /* J =  6 */
(PID.TID 0000.0001)                 2.620701729332415E+10,      /* J =  7 */
(PID.TID 0000.0001)                 2.472736798052209E+10       /* J =  8 */
(PID.TID 0000.0001)     ;
(PID.TID 0000.0001) globalArea = /* Integrated horizontal Area (m^2) */
(PID.TID 0000.0001)                 1.218932156708734E+12
(PID.TID 0000.0001)     ;
(PID.TID 0000.0001) // =======================================================
(PID.TID 0000.0001) // End of Model config. summary
(PID.TID 0000.0001) // =======================================================
(PID.TID 0000.0001) 
(PID.TID 0000.0001) == Packages configuration : Check & print summary ==
(PID.TID 0000.0001) 
(PID.TID 0000.0001) OBCS_CHECK: #define ALLOW_OBCS
(PID.TID 0000.0001) OBCS_CHECK: start summary:
(PID.TID 0000.0001) useOBCSprescribe = /* prescribe OB values */
(PID.TID 0000.0001)                   T
(PID.TID 0000.0001)     ;
(PID.TID 0000.0001) useOBCSbalance = /* balance the flow through OB */
(PID.TID 0000.0001)                   F
(PID.TID 0000.0001)     ;
(PID.TID 0000.0001) OBCS_uvApplyFac = /* Factor to apply to U,V 2nd column/row */
(PID.TID 0000.0001)                 1.000000000000000E+00
(PID.TID 0000.0001)     ;
(PID.TID 0000.0001) OBCS_u1_adv_T = /* Temp uses upwind adv-scheme @ OB */
(PID.TID 0000.0001)                       0
(PID.TID 0000.0001)     ;
(PID.TID 0000.0001) OBCS_u1_adv_S = /* Salt uses upwind adv-scheme @ OB */
(PID.TID 0000.0001)                       0
(PID.TID 0000.0001)     ;
(PID.TID 0000.0001) OBCS_monitorFreq = /* monitor output frequency [s] */
(PID.TID 0000.0001)                 1.000000000000000E+00
(PID.TID 0000.0001)     ;
(PID.TID 0000.0001) OBCS_monSelect = /* select group of variables to monitor */
(PID.TID 0000.0001)                       0
(PID.TID 0000.0001)     ;
(PID.TID 0000.0001) useOBCStides = /* apply tidal forcing through OB */
(PID.TID 0000.0001)                   F
(PID.TID 0000.0001)     ;
(PID.TID 0000.0001) tidalPeriod = /* (s) */
(PID.TID 0000.0001)    10 @  0.000000000000000E+00              /* I =  1: 10 */
(PID.TID 0000.0001)     ;
(PID.TID 0000.0001) OB_indexNone = /* null value for OB index (i.e. no OB) */
(PID.TID 0000.0001)                     -99
(PID.TID 0000.0001)     ;
(PID.TID 0000.0001) ======== Tile bi=   1 , bj=   1 ========
(PID.TID 0000.0001)  OB_Jn = /* Northern OB local indices */
(PID.TID 0000.0001)    13 @        8                            /* I = -3:  9 */
(PID.TID 0000.0001)  OB_Js = /* Southern OB local indices */
(PID.TID 0000.0001)    13 @        1                            /* I = -3:  9 */
(PID.TID 0000.0001)  OB_Ie = /* Eastern OB local indices */
(PID.TID 0000.0001)    16 @      -99                            /* J = -3: 12 */
(PID.TID 0000.0001)  OB_Iw = /* Western OB local indices */
(PID.TID 0000.0001)    16 @        1                            /* J = -3: 12 */
(PID.TID 0000.0001) ======== Tile bi=   2 , bj=   1 ========
(PID.TID 0000.0001)  OB_Jn = /* Northern OB local indices */
(PID.TID 0000.0001)    13 @        8                            /* I = -3:  9 */
(PID.TID 0000.0001)  OB_Js = /* Southern OB local indices */
(PID.TID 0000.0001)    13 @        1                            /* I = -3:  9 */
(PID.TID 0000.0001)  OB_Ie = /* Eastern OB local indices */
(PID.TID 0000.0001)    16 @        5                            /* J = -3: 12 */
(PID.TID 0000.0001)  OB_Iw = /* Western OB local indices */
(PID.TID 0000.0001)    16 @      -99                            /* J = -3: 12 */
(PID.TID 0000.0001) OBCS_CHECK: end summary.
(PID.TID 0000.0001) OBCS_CHECK: set-up OK
(PID.TID 0000.0001) OBCS_CHECK: check Inside Mask and OB locations: OK
(PID.TID 0000.0001) KPP_CHECK: #define ALLOW_KPP
(PID.TID 0000.0001)  kpp_freq = /* frequency of KPP calculation */
(PID.TID 0000.0001)                 3.600000000000000E+03
(PID.TID 0000.0001)     ;
(PID.TID 0000.0001) KPP_ghatUseTotalDiffus= /* non-local term fct of total diffus */
(PID.TID 0000.0001)                   T
(PID.TID 0000.0001)     ;
(PID.TID 0000.0001) KPPuseDoubleDiff = /* include double diffusive contrib */
(PID.TID 0000.0001)                   F
(PID.TID 0000.0001)     ;
(PID.TID 0000.0001) LimitHblStable = /* limits depth of hbl if stable cond.*/
(PID.TID 0000.0001)                   T
(PID.TID 0000.0001)     ;
(PID.TID 0000.0001)  minKPPhbl = /* minimum KPPhbl value [m] */
(PID.TID 0000.0001)                 5.000000000000000E+00
(PID.TID 0000.0001)     ;
(PID.TID 0000.0001)  epsln     = /* constant [-] */
(PID.TID 0000.0001)                 9.999999999999999E-21
(PID.TID 0000.0001)     ;
(PID.TID 0000.0001)  phepsi    = /* constant [-] */
(PID.TID 0000.0001)                 1.000000000000000E-10
(PID.TID 0000.0001)     ;
(PID.TID 0000.0001)  epsilon   = /* constant [-] */
(PID.TID 0000.0001)                 1.000000000000000E-01
(PID.TID 0000.0001)     ;
(PID.TID 0000.0001)  vonk      = /* Von Karmans constant [-] */
(PID.TID 0000.0001)                 4.000000000000000E-01
(PID.TID 0000.0001)     ;
(PID.TID 0000.0001)  dB_dz     = /* maximum N^2 in mixed layer [s^-2] */
(PID.TID 0000.0001)                 5.200000000000000E-05
(PID.TID 0000.0001)     ;
(PID.TID 0000.0001)  conc1     = /* scalar constant [-] */
(PID.TID 0000.0001)                 5.000000000000000E+00
(PID.TID 0000.0001)     ;
(PID.TID 0000.0001)  conam     = /* scalar constant [-] */
(PID.TID 0000.0001)                 1.257000000000000E+00
(PID.TID 0000.0001)     ;
(PID.TID 0000.0001)  concm     = /* scalar constant [-] */
(PID.TID 0000.0001)                 8.380000000000001E+00
(PID.TID 0000.0001)     ;
(PID.TID 0000.0001)  conc2     = /* scalar constant [-] */
(PID.TID 0000.0001)                 1.600000000000000E+01
(PID.TID 0000.0001)     ;
(PID.TID 0000.0001)  conas     = /* scalar constant [-] */
(PID.TID 0000.0001)                -2.886000000000000E+01
(PID.TID 0000.0001)     ;
(PID.TID 0000.0001)  concs     = /* scalar constant [-] */
(PID.TID 0000.0001)                 9.895999999999999E+01
(PID.TID 0000.0001)     ;
(PID.TID 0000.0001)  conc3     = /* scalar constant [-] */
(PID.TID 0000.0001)                 1.600000000000000E+01
(PID.TID 0000.0001)     ;
(PID.TID 0000.0001)  zetam     = /* scalar constant [-] */
(PID.TID 0000.0001)                -2.000000000000000E-01
(PID.TID 0000.0001)     ;
(PID.TID 0000.0001)  zetas     = /* scalar constant [-] */
(PID.TID 0000.0001)                -1.000000000000000E+00
(PID.TID 0000.0001)     ;
(PID.TID 0000.0001)  Ricr      = /* critical bulk Richardson Number [-] */
(PID.TID 0000.0001)                 3.000000000000000E-01
(PID.TID 0000.0001)     ;
(PID.TID 0000.0001)  cekman    = /* coeff for Ekman depth [-] */
(PID.TID 0000.0001)                 7.000000000000000E-01
(PID.TID 0000.0001)     ;
(PID.TID 0000.0001)  cmonob    = /* coeff for Monin-Obukhov depth [-] */
(PID.TID 0000.0001)                 1.000000000000000E+00
(PID.TID 0000.0001)     ;
(PID.TID 0000.0001)  concv     = /* buoyancy freq ratio [-] */
(PID.TID 0000.0001)                 1.800000000000000E+00
(PID.TID 0000.0001)     ;
(PID.TID 0000.0001)  hbf       = /* solar radiation depth ratio [-] */
(PID.TID 0000.0001)                 1.000000000000000E+00
(PID.TID 0000.0001)     ;
(PID.TID 0000.0001)  zmin      = /* minimum for zehat in table [m3/s3] */
(PID.TID 0000.0001)                -4.000000000000000E-07
(PID.TID 0000.0001)     ;
(PID.TID 0000.0001)  zmax      = /* maximum for zehat in table [m3/s3] */
(PID.TID 0000.0001)                 0.000000000000000E+00
(PID.TID 0000.0001)     ;
(PID.TID 0000.0001)  umin      = /* minimum for ustar in table [m/s] */
(PID.TID 0000.0001)                 0.000000000000000E+00
(PID.TID 0000.0001)     ;
(PID.TID 0000.0001)  umax      = /* maximum for ustar in table [m/s] */
(PID.TID 0000.0001)                 4.000000000000000E-02
(PID.TID 0000.0001)     ;
(PID.TID 0000.0001) num_v_smooth_Ri = /* number of vertical smoothing */
(PID.TID 0000.0001)                       0
(PID.TID 0000.0001)     ;
(PID.TID 0000.0001)  Riinfty   = /* shear instability Ri number limit [-] */
(PID.TID 0000.0001)                 7.000000000000000E-01
(PID.TID 0000.0001)     ;
(PID.TID 0000.0001)  BVSQcon   = /* Brunt-Vaisala squared (=N^2) [s^-2] */
(PID.TID 0000.0001)                -2.000000000000000E-05
(PID.TID 0000.0001)     ;
(PID.TID 0000.0001)  difm0     = /* max viscosity from shear instab. [m2/s] */
(PID.TID 0000.0001)                 5.000000000000000E-03
(PID.TID 0000.0001)     ;
(PID.TID 0000.0001)  difs0     = /* max diffusiv. from shear instab. [m2/s] */
(PID.TID 0000.0001)                 5.000000000000000E-03
(PID.TID 0000.0001)     ;
(PID.TID 0000.0001)  dift0     = /* max diffusiv. from shear instab. [m2/s] */
(PID.TID 0000.0001)                 5.000000000000000E-03
(PID.TID 0000.0001)     ;
(PID.TID 0000.0001)  difmcon   = /* convective viscosity [m2/s] */
(PID.TID 0000.0001)                 1.000000000000000E-01
(PID.TID 0000.0001)     ;
(PID.TID 0000.0001)  difscon   = /* convective diffusiv. [m2/s] */
(PID.TID 0000.0001)                 1.000000000000000E-01
(PID.TID 0000.0001)     ;
(PID.TID 0000.0001)  diftcon   = /* convective diffusiv. [m2/s] */
(PID.TID 0000.0001)                 1.000000000000000E-01
(PID.TID 0000.0001)     ;
(PID.TID 0000.0001)  Rrho0     = /* double diffusion density ratio [-] */
(PID.TID 0000.0001)                 1.900000000000000E+00
(PID.TID 0000.0001)     ;
(PID.TID 0000.0001)  dsfmax    = /* max diffusiv. for salt fingering [m2/s] */
(PID.TID 0000.0001)                 1.000000000000000E-02
(PID.TID 0000.0001)     ;
(PID.TID 0000.0001)  cstar     = /* coeff for non-locak transport [-] */
(PID.TID 0000.0001)                 1.000000000000000E+01
(PID.TID 0000.0001)     ;
(PID.TID 0000.0001) KPPwriteState = /* write KPP fields to file */
(PID.TID 0000.0001)                   T
(PID.TID 0000.0001)     ;
(PID.TID 0000.0001)  kpp_dumpFreq = /* dump freq of KPP output */
(PID.TID 0000.0001)                 0.000000000000000E+00
(PID.TID 0000.0001)     ;
(PID.TID 0000.0001)  kpp_taveFreq = /* time-averaging freq of KPP output */
(PID.TID 0000.0001)                 3.600000000000000E+04
(PID.TID 0000.0001)     ;
(PID.TID 0000.0001) 
(PID.TID 0000.0001) GMREDI_CHECK: #define GMREDI
(PID.TID 0000.0001) GM_AdvForm =     /* if FALSE => use SkewFlux Form */
(PID.TID 0000.0001)                   F
(PID.TID 0000.0001)     ;
(PID.TID 0000.0001) GM_InMomAsStress = /* if TRUE => apply as Eddy Stress */
(PID.TID 0000.0001)                   F
(PID.TID 0000.0001)     ;
(PID.TID 0000.0001) GM_AdvSeparate = /* Calc Bolus & Euler Adv. separately */
(PID.TID 0000.0001)                   F
(PID.TID 0000.0001)     ;
(PID.TID 0000.0001) GM_ExtraDiag =   /* Tensor Extra Diag (line 1&2) non 0 */
(PID.TID 0000.0001)                   F
(PID.TID 0000.0001)     ;
(PID.TID 0000.0001) GM_isopycK =    /* Background Isopyc. Diffusivity [m^2/s] */
(PID.TID 0000.0001)                 5.710000000000000E+02
(PID.TID 0000.0001)     ;
(PID.TID 0000.0001) GM_skewflx*K =  /* Background GM_SkewFlx Diffusivity [m^2/s] */
(PID.TID 0000.0001)                 5.710000000000000E+02
(PID.TID 0000.0001)     ;
(PID.TID 0000.0001) GM_advec*K =    /* Backg. GM-Advec(=Bolus) Diffusivity [m^2/s]*/
(PID.TID 0000.0001)                 0.000000000000000E+00
(PID.TID 0000.0001)     ;
(PID.TID 0000.0001) GM_Kmin_horiz = /* Minimum Horizontal Diffusivity [m^2/s] */
(PID.TID 0000.0001)                 0.000000000000000E+00
(PID.TID 0000.0001)     ;
(PID.TID 0000.0001) GM_Visbeck_alpha = /* Visbeck alpha coeff. [-] */
(PID.TID 0000.0001)                 0.000000000000000E+00
(PID.TID 0000.0001)     ;
(PID.TID 0000.0001) GM_Small_Number =  /* epsilon used in slope calc */
(PID.TID 0000.0001)                 9.999999999999999E-21
(PID.TID 0000.0001)     ;
(PID.TID 0000.0001) GM_slopeSqCutoff = /* Slope^2 cut-off value */
(PID.TID 0000.0001)                 1.000000000000000E+48
(PID.TID 0000.0001)     ;
(PID.TID 0000.0001) GM_taper_scheme =  /* Type of Tapering/Clipping scheme */
(PID.TID 0000.0001)               'ldd97                                   '
(PID.TID 0000.0001)     ;
(PID.TID 0000.0001) GM_maxSlope =  /* Maximum Slope (Tapering/Clipping) */
(PID.TID 0000.0001)                 1.000000000000000E-02
(PID.TID 0000.0001)     ;
(PID.TID 0000.0001) GM_facTrL2dz = /* Minimum Trans.Layer Thick. (factor of dz) */
(PID.TID 0000.0001)                 1.000000000000000E+00
(PID.TID 0000.0001)     ;
(PID.TID 0000.0001) GM_facTrL2ML = /* Max.Trans.Layer Thick. (factor of MxL Depth)*/
(PID.TID 0000.0001)                 5.000000000000000E+00
(PID.TID 0000.0001)     ;
(PID.TID 0000.0001) GM_maxTransLay = /* Maximum Transition Layer Thickness [m] */
(PID.TID 0000.0001)                 5.000000000000000E+02
(PID.TID 0000.0001)     ;
(PID.TID 0000.0001) GM_UseBVP = /* if TRUE => use bvp a la Ferrari et al. (2010) */
(PID.TID 0000.0001)                   F
(PID.TID 0000.0001)     ;
(PID.TID 0000.0001) GM_BVP_ModeNumber = /* Vertical mode number for BVP wave speed */
(PID.TID 0000.0001)                       1
(PID.TID 0000.0001)     ;
(PID.TID 0000.0001) GM_BVP_cMin = /* Minimum wave speed for BVP [m/s] */
(PID.TID 0000.0001)                 1.000000000000000E-01
(PID.TID 0000.0001)     ;
(PID.TID 0000.0001) GM_useSubMeso = /* if TRUE => use Sub-Meso param. (B.Fox-Kemper) */
(PID.TID 0000.0001)                   F
(PID.TID 0000.0001)     ;
(PID.TID 0000.0001) subMeso_Ceff = /* efficiency coeff. of Mixed-Layer Eddies [-] */
(PID.TID 0000.0001)                 7.000000000000001E-02
(PID.TID 0000.0001)     ;
(PID.TID 0000.0001) subMeso_invTau = /* inverse of Sub-Meso mixing time-scale [/s] */
(PID.TID 0000.0001)                 2.000000000000000E-06
(PID.TID 0000.0001)     ;
(PID.TID 0000.0001) subMeso_LfMin = /* minimum length-scale "Lf" [m] */
(PID.TID 0000.0001)                 1.000000000000000E+03
(PID.TID 0000.0001)     ;
(PID.TID 0000.0001) subMeso_Lmax = /* maximum grid-scale length [m] */
(PID.TID 0000.0001)                 1.100000000000000E+05
(PID.TID 0000.0001)     ;
(PID.TID 0000.0001) GM_useLeithQG = /* if TRUE => add QG Leith viscosity to GMRedi tensor */
(PID.TID 0000.0001)                   F
(PID.TID 0000.0001)     ;
(PID.TID 0000.0001) EXF_CHECK: #define ALLOW_EXF
(PID.TID 0000.0001) SEAICE_CHECK: #define ALLOW_SEAICE
(PID.TID 0000.0001) SALT_PLUME_CHECK: #define SALT_PLUME
(PID.TID 0000.0001) GAD_CHECK: #define ALLOW_GENERIC_ADVDIFF
(PID.TID 0000.0001) // =======================================================
(PID.TID 0000.0001) // Check Model config. (CONFIG_CHECK):
(PID.TID 0000.0001) // CONFIG_CHECK : Normal End
(PID.TID 0000.0001) // =======================================================
(PID.TID 0000.0001) 
(PID.TID 0000.0001)  MDS_READ_META: opening file: pickup.0000000001.meta
(PID.TID 0000.0001)  nRecords = 187 ; filePrec =  64 ; fileIter =      8760
(PID.TID 0000.0001)     nDims =   2 , dims:
(PID.TID 0000.0001)    1:  10   1  10
(PID.TID 0000.0001)    2:   8   1   8
(PID.TID 0000.0001)     nFlds =  11 , nFl3D =   8 , fields:
(PID.TID 0000.0001)  >Uvel    < >Vvel    < >Theta   < >Salt    < >GuNm1   < >GvNm1   < >GtNm1   < >GsNm1   < >EtaN    < >dEtaHdt < >EtaH    <
(PID.TID 0000.0001) missingVal=  1.00000000000000E+00 ; nTimRec =   1 , timeList:
(PID.TID 0000.0001)   3.153600000000E+07
(PID.TID 0000.0001) READ_MFLDS_3D_RL: read field: "Uvel    ", #   1 in fldList, rec=   1
(PID.TID 0000.0001)  MDS_READ_FIELD: opening global file: pickup.0000000001.data
(PID.TID 0000.0001) READ_MFLDS_3D_RL: read field: "Vvel    ", #   2 in fldList, rec=   2
(PID.TID 0000.0001)  MDS_READ_FIELD: opening global file: pickup.0000000001.data
(PID.TID 0000.0001) READ_MFLDS_3D_RL: read field: "Theta   ", #   3 in fldList, rec=   3
(PID.TID 0000.0001)  MDS_READ_FIELD: opening global file: pickup.0000000001.data
(PID.TID 0000.0001) READ_MFLDS_3D_RL: read field: "Salt    ", #   4 in fldList, rec=   4
(PID.TID 0000.0001)  MDS_READ_FIELD: opening global file: pickup.0000000001.data
(PID.TID 0000.0001) READ_MFLDS_3D_RL: read field: "GuNm1   ", #   5 in fldList, rec=   5
(PID.TID 0000.0001)  MDS_READ_FIELD: opening global file: pickup.0000000001.data
(PID.TID 0000.0001) READ_MFLDS_3D_RL: read field: "GvNm1   ", #   6 in fldList, rec=   6
(PID.TID 0000.0001)  MDS_READ_FIELD: opening global file: pickup.0000000001.data
(PID.TID 0000.0001) READ_MFLDS_3D_RL: read field: "EtaN    ", #   9 in fldList, rec= 185
(PID.TID 0000.0001)  MDS_READ_FIELD: opening global file: pickup.0000000001.data
(PID.TID 0000.0001) READ_MFLDS_CHECK: - normal end ; reset MFLDS file-name: pickup.0000000001
(PID.TID 0000.0001)  MDS_READ_META: opening file: pickup_seaice.0000000001.meta
(PID.TID 0000.0001)  nRecords =   8 ; filePrec =  64 ; fileIter =      8760
(PID.TID 0000.0001)     nDims =   2 , dims:
(PID.TID 0000.0001)    1:  10   1  10
(PID.TID 0000.0001)    2:   8   1   8
(PID.TID 0000.0001)     nFlds =   8 , nFl3D =   0 , fields:
(PID.TID 0000.0001)  >siTICE  < >siAREA  < >siHEFF  < >siHSNOW < >siHSALT < >siAGE   < >siUICE  < >siVICE  <
(PID.TID 0000.0001) missingVal=  1.00000000000000E+00 ; nTimRec =   1 , timeList:
(PID.TID 0000.0001)   3.153600000000E+07
(PID.TID 0000.0001) READ_MFLDS_3D_RL: field: "siTICES " missing in file: pickup_seaice.0000000001
(PID.TID 0000.0001) READ_MFLDS_LEV_RL: read field: "siTICE  ", #   1 in fldList, rec=   1
(PID.TID 0000.0001)  MDS_READ_FIELD: opening global file: pickup_seaice.0000000001.data
(PID.TID 0000.0001) READ_MFLDS_3D_RL: read field: "siAREA  ", #   2 in fldList, rec=   2
(PID.TID 0000.0001)  MDS_READ_FIELD: opening global file: pickup_seaice.0000000001.data
(PID.TID 0000.0001) READ_MFLDS_3D_RL: read field: "siHEFF  ", #   3 in fldList, rec=   3
(PID.TID 0000.0001)  MDS_READ_FIELD: opening global file: pickup_seaice.0000000001.data
(PID.TID 0000.0001) READ_MFLDS_3D_RL: read field: "siHSNOW ", #   4 in fldList, rec=   4
(PID.TID 0000.0001)  MDS_READ_FIELD: opening global file: pickup_seaice.0000000001.data
(PID.TID 0000.0001) READ_MFLDS_3D_RL: read field: "siHSALT ", #   5 in fldList, rec=   5
(PID.TID 0000.0001)  MDS_READ_FIELD: opening global file: pickup_seaice.0000000001.data
(PID.TID 0000.0001) READ_MFLDS_3D_RL: read field: "siUICE  ", #   7 in fldList, rec=   7
(PID.TID 0000.0001)  MDS_READ_FIELD: opening global file: pickup_seaice.0000000001.data
(PID.TID 0000.0001) READ_MFLDS_3D_RL: read field: "siVICE  ", #   8 in fldList, rec=   8
(PID.TID 0000.0001)  MDS_READ_FIELD: opening global file: pickup_seaice.0000000001.data
(PID.TID 0000.0001)  MDS_READ_SEC_XZ: opening global file: OBNu.seaice_obcs
(PID.TID 0000.0001)  MDS_READ_SEC_XZ: opening global file: OBNu.seaice_obcs
(PID.TID 0000.0001)  MDS_READ_SEC_XZ: opening global file: OBNv.seaice_obcs
(PID.TID 0000.0001)  MDS_READ_SEC_XZ: opening global file: OBNv.seaice_obcs
(PID.TID 0000.0001)  MDS_READ_SEC_XZ: opening global file: OBNt.seaice_obcs
(PID.TID 0000.0001)  MDS_READ_SEC_XZ: opening global file: OBNt.seaice_obcs
(PID.TID 0000.0001)  MDS_READ_SEC_XZ: opening global file: OBNs.seaice_obcs
(PID.TID 0000.0001)  MDS_READ_SEC_XZ: opening global file: OBNs.seaice_obcs
(PID.TID 0000.0001)  MDS_READ_SEC_XZ: opening global file: OBNa.seaice_obcs
(PID.TID 0000.0001)  MDS_READ_SEC_XZ: opening global file: OBNa.seaice_obcs
(PID.TID 0000.0001)  MDS_READ_SEC_XZ: opening global file: OBNh.seaice_obcs
(PID.TID 0000.0001)  MDS_READ_SEC_XZ: opening global file: OBNh.seaice_obcs
(PID.TID 0000.0001)  MDS_READ_SEC_XZ: opening global file: OBNsl.seaice_obcs
(PID.TID 0000.0001)  MDS_READ_SEC_XZ: opening global file: OBNsl.seaice_obcs
(PID.TID 0000.0001)  MDS_READ_SEC_XZ: opening global file: OBNsn.seaice_obcs
(PID.TID 0000.0001)  MDS_READ_SEC_XZ: opening global file: OBNsn.seaice_obcs
(PID.TID 0000.0001)  MDS_READ_SEC_XZ: opening global file: OBNuice.seaice_obcs
(PID.TID 0000.0001)  MDS_READ_SEC_XZ: opening global file: OBNuice.seaice_obcs
(PID.TID 0000.0001)  MDS_READ_SEC_XZ: opening global file: OBNvice.seaice_obcs
(PID.TID 0000.0001)  MDS_READ_SEC_XZ: opening global file: OBNvice.seaice_obcs
(PID.TID 0000.0001)  MDS_READ_SEC_XZ: opening global file: OBSu.seaice_obcs
(PID.TID 0000.0001)  MDS_READ_SEC_XZ: opening global file: OBSu.seaice_obcs
(PID.TID 0000.0001)  MDS_READ_SEC_XZ: opening global file: OBSv.seaice_obcs
(PID.TID 0000.0001)  MDS_READ_SEC_XZ: opening global file: OBSv.seaice_obcs
(PID.TID 0000.0001)  MDS_READ_SEC_XZ: opening global file: OBSt.seaice_obcs
(PID.TID 0000.0001)  MDS_READ_SEC_XZ: opening global file: OBSt.seaice_obcs
(PID.TID 0000.0001)  MDS_READ_SEC_XZ: opening global file: OBSs.seaice_obcs
(PID.TID 0000.0001)  MDS_READ_SEC_XZ: opening global file: OBSs.seaice_obcs
(PID.TID 0000.0001)  MDS_READ_SEC_XZ: opening global file: OBSa.seaice_obcs
(PID.TID 0000.0001)  MDS_READ_SEC_XZ: opening global file: OBSa.seaice_obcs
(PID.TID 0000.0001)  MDS_READ_SEC_XZ: opening global file: OBSh.seaice_obcs
(PID.TID 0000.0001)  MDS_READ_SEC_XZ: opening global file: OBSh.seaice_obcs
(PID.TID 0000.0001)  MDS_READ_SEC_XZ: opening global file: OBSsl.seaice_obcs
(PID.TID 0000.0001)  MDS_READ_SEC_XZ: opening global file: OBSsl.seaice_obcs
(PID.TID 0000.0001)  MDS_READ_SEC_XZ: opening global file: OBSsn.seaice_obcs
(PID.TID 0000.0001)  MDS_READ_SEC_XZ: opening global file: OBSsn.seaice_obcs
(PID.TID 0000.0001)  MDS_READ_SEC_XZ: opening global file: OBSuice.seaice_obcs
(PID.TID 0000.0001)  MDS_READ_SEC_XZ: opening global file: OBSuice.seaice_obcs
(PID.TID 0000.0001)  MDS_READ_SEC_XZ: opening global file: OBSvice.seaice_obcs
(PID.TID 0000.0001)  MDS_READ_SEC_XZ: opening global file: OBSvice.seaice_obcs
(PID.TID 0000.0001)  MDS_READ_SEC_YZ: opening global file: OBEu.seaice_obcs
(PID.TID 0000.0001)  MDS_READ_SEC_YZ: opening global file: OBEu.seaice_obcs
(PID.TID 0000.0001)  MDS_READ_SEC_YZ: opening global file: OBEv.seaice_obcs
(PID.TID 0000.0001)  MDS_READ_SEC_YZ: opening global file: OBEv.seaice_obcs
(PID.TID 0000.0001)  MDS_READ_SEC_YZ: opening global file: OBEt.seaice_obcs
(PID.TID 0000.0001)  MDS_READ_SEC_YZ: opening global file: OBEt.seaice_obcs
(PID.TID 0000.0001)  MDS_READ_SEC_YZ: opening global file: OBEs.seaice_obcs
(PID.TID 0000.0001)  MDS_READ_SEC_YZ: opening global file: OBEs.seaice_obcs
(PID.TID 0000.0001)  MDS_READ_SEC_YZ: opening global file: OBEa.seaice_obcs
(PID.TID 0000.0001)  MDS_READ_SEC_YZ: opening global file: OBEa.seaice_obcs
(PID.TID 0000.0001)  MDS_READ_SEC_YZ: opening global file: OBEh.seaice_obcs
(PID.TID 0000.0001)  MDS_READ_SEC_YZ: opening global file: OBEh.seaice_obcs
(PID.TID 0000.0001)  MDS_READ_SEC_YZ: opening global file: OBEsl.seaice_obcs
(PID.TID 0000.0001)  MDS_READ_SEC_YZ: opening global file: OBEsl.seaice_obcs
(PID.TID 0000.0001)  MDS_READ_SEC_YZ: opening global file: OBEsn.seaice_obcs
(PID.TID 0000.0001)  MDS_READ_SEC_YZ: opening global file: OBEsn.seaice_obcs
(PID.TID 0000.0001)  MDS_READ_SEC_YZ: opening global file: OBEuice.seaice_obcs
(PID.TID 0000.0001)  MDS_READ_SEC_YZ: opening global file: OBEuice.seaice_obcs
(PID.TID 0000.0001)  MDS_READ_SEC_YZ: opening global file: OBEvice.seaice_obcs
(PID.TID 0000.0001)  MDS_READ_SEC_YZ: opening global file: OBEvice.seaice_obcs
(PID.TID 0000.0001)  MDS_READ_SEC_YZ: opening global file: OBWu.seaice_obcs
(PID.TID 0000.0001)  MDS_READ_SEC_YZ: opening global file: OBWu.seaice_obcs
(PID.TID 0000.0001)  MDS_READ_SEC_YZ: opening global file: OBWv.seaice_obcs
(PID.TID 0000.0001)  MDS_READ_SEC_YZ: opening global file: OBWv.seaice_obcs
(PID.TID 0000.0001)  MDS_READ_SEC_YZ: opening global file: OBWt.seaice_obcs
(PID.TID 0000.0001)  MDS_READ_SEC_YZ: opening global file: OBWt.seaice_obcs
(PID.TID 0000.0001)  MDS_READ_SEC_YZ: opening global file: OBWs.seaice_obcs
(PID.TID 0000.0001)  MDS_READ_SEC_YZ: opening global file: OBWs.seaice_obcs
(PID.TID 0000.0001)  MDS_READ_SEC_YZ: opening global file: OBWa.seaice_obcs
(PID.TID 0000.0001)  MDS_READ_SEC_YZ: opening global file: OBWa.seaice_obcs
(PID.TID 0000.0001)  MDS_READ_SEC_YZ: opening global file: OBWh.seaice_obcs
(PID.TID 0000.0001)  MDS_READ_SEC_YZ: opening global file: OBWh.seaice_obcs
(PID.TID 0000.0001)  MDS_READ_SEC_YZ: opening global file: OBWsl.seaice_obcs
(PID.TID 0000.0001)  MDS_READ_SEC_YZ: opening global file: OBWsl.seaice_obcs
(PID.TID 0000.0001)  MDS_READ_SEC_YZ: opening global file: OBWsn.seaice_obcs
(PID.TID 0000.0001)  MDS_READ_SEC_YZ: opening global file: OBWsn.seaice_obcs
(PID.TID 0000.0001)  MDS_READ_SEC_YZ: opening global file: OBWuice.seaice_obcs
(PID.TID 0000.0001)  MDS_READ_SEC_YZ: opening global file: OBWuice.seaice_obcs
(PID.TID 0000.0001)  MDS_READ_SEC_YZ: opening global file: OBWvice.seaice_obcs
(PID.TID 0000.0001)  MDS_READ_SEC_YZ: opening global file: OBWvice.seaice_obcs
(PID.TID 0000.0001) // =======================================================
(PID.TID 0000.0001) // Model current state
(PID.TID 0000.0001) // =======================================================
(PID.TID 0000.0001) 
(PID.TID 0000.0001) // =======================================================
(PID.TID 0000.0001) // Begin MONITOR dynamic field statistics
(PID.TID 0000.0001) // =======================================================
(PID.TID 0000.0001) %MON time_tsnumber                =                     1
(PID.TID 0000.0001) %MON time_secondsf                =   3.6000000000000E+03
(PID.TID 0000.0001) %MON dynstat_eta_max              =   1.2148896464948E-01
(PID.TID 0000.0001) %MON dynstat_eta_min              =  -1.2294072390931E-01
(PID.TID 0000.0001) %MON dynstat_eta_mean             =  -4.0879193119835E-02
(PID.TID 0000.0001) %MON dynstat_eta_sd               =   5.5742455093350E-02
(PID.TID 0000.0001) %MON dynstat_eta_del2             =   7.2695686705960E-03
(PID.TID 0000.0001) %MON dynstat_uvel_max             =   2.2009639999218E-02
(PID.TID 0000.0001) %MON dynstat_uvel_min             =  -3.2116802195889E-02
(PID.TID 0000.0001) %MON dynstat_uvel_mean            =  -9.1185285022315E-05
(PID.TID 0000.0001) %MON dynstat_uvel_sd              =   3.4976244593631E-03
(PID.TID 0000.0001) %MON dynstat_uvel_del2            =   2.9167384814974E-04
(PID.TID 0000.0001) %MON dynstat_vvel_max             =   3.0230752565413E-02
(PID.TID 0000.0001) %MON dynstat_vvel_min             =  -7.2915596643288E-02
(PID.TID 0000.0001) %MON dynstat_vvel_mean            =  -6.4339951121684E-04
(PID.TID 0000.0001) %MON dynstat_vvel_sd              =   5.8216672818233E-03
(PID.TID 0000.0001) %MON dynstat_vvel_del2            =   3.8104852203407E-04
(PID.TID 0000.0001) %MON dynstat_wvel_max             =   7.8665957443216E-06
(PID.TID 0000.0001) %MON dynstat_wvel_min             =  -1.1229500461274E-05
(PID.TID 0000.0001) %MON dynstat_wvel_mean            =  -1.3881689619331E-06
(PID.TID 0000.0001) %MON dynstat_wvel_sd              =   3.2166084559292E-06
(PID.TID 0000.0001) %MON dynstat_wvel_del2            =   2.4442365591657E-07
(PID.TID 0000.0001) %MON dynstat_theta_max            =   6.0153181285526E+00
(PID.TID 0000.0001) %MON dynstat_theta_min            =  -1.8174415658729E+00
(PID.TID 0000.0001) %MON dynstat_theta_mean           =   3.1873608367779E+00
(PID.TID 0000.0001) %MON dynstat_theta_sd             =   7.9838030400804E-01
(PID.TID 0000.0001) %MON dynstat_theta_del2           =   4.3246801571569E-02
(PID.TID 0000.0001) %MON dynstat_salt_max             =   3.4939863335716E+01
(PID.TID 0000.0001) %MON dynstat_salt_min             =   3.2483378437535E+01
(PID.TID 0000.0001) %MON dynstat_salt_mean            =   3.4812208901733E+01
(PID.TID 0000.0001) %MON dynstat_salt_sd              =   3.1542158662177E-01
(PID.TID 0000.0001) %MON dynstat_salt_del2            =   9.5634326230734E-03
(PID.TID 0000.0001) %MON forcing_qnet_max             =   0.0000000000000E+00
(PID.TID 0000.0001) %MON forcing_qnet_min             =   0.0000000000000E+00
(PID.TID 0000.0001) %MON forcing_qnet_mean            =   0.0000000000000E+00
(PID.TID 0000.0001) %MON forcing_qnet_sd              =   0.0000000000000E+00
(PID.TID 0000.0001) %MON forcing_qnet_del2            =   0.0000000000000E+00
(PID.TID 0000.0001) %MON forcing_qsw_max              =   0.0000000000000E+00
(PID.TID 0000.0001) %MON forcing_qsw_min              =   0.0000000000000E+00
(PID.TID 0000.0001) %MON forcing_qsw_mean             =   0.0000000000000E+00
(PID.TID 0000.0001) %MON forcing_qsw_sd               =   0.0000000000000E+00
(PID.TID 0000.0001) %MON forcing_qsw_del2             =   0.0000000000000E+00
(PID.TID 0000.0001) %MON forcing_empmr_max            =   0.0000000000000E+00
(PID.TID 0000.0001) %MON forcing_empmr_min            =   0.0000000000000E+00
(PID.TID 0000.0001) %MON forcing_empmr_mean           =   0.0000000000000E+00
(PID.TID 0000.0001) %MON forcing_empmr_sd             =   0.0000000000000E+00
(PID.TID 0000.0001) %MON forcing_empmr_del2           =   0.0000000000000E+00
(PID.TID 0000.0001) %MON forcing_fu_max               =   0.0000000000000E+00
(PID.TID 0000.0001) %MON forcing_fu_min               =   0.0000000000000E+00
(PID.TID 0000.0001) %MON forcing_fu_mean              =   0.0000000000000E+00
(PID.TID 0000.0001) %MON forcing_fu_sd                =   0.0000000000000E+00
(PID.TID 0000.0001) %MON forcing_fu_del2              =   0.0000000000000E+00
(PID.TID 0000.0001) %MON forcing_fv_max               =   0.0000000000000E+00
(PID.TID 0000.0001) %MON forcing_fv_min               =   0.0000000000000E+00
(PID.TID 0000.0001) %MON forcing_fv_mean              =   0.0000000000000E+00
(PID.TID 0000.0001) %MON forcing_fv_sd                =   0.0000000000000E+00
(PID.TID 0000.0001) %MON forcing_fv_del2              =   0.0000000000000E+00
(PID.TID 0000.0001) %MON trAdv_CFL_u_max              =   0.0000000000000E+00
(PID.TID 0000.0001) %MON trAdv_CFL_v_max              =   0.0000000000000E+00
(PID.TID 0000.0001) %MON trAdv_CFL_w_max              =   0.0000000000000E+00
(PID.TID 0000.0001) %MON advcfl_uvel_max              =   9.5457721697401E-04
(PID.TID 0000.0001) %MON advcfl_vvel_max              =   1.1803422864558E-03
(PID.TID 0000.0001) %MON advcfl_wvel_max              =   4.4762225102375E-03
(PID.TID 0000.0001) %MON advcfl_W_hf_max              =   2.1797518062028E-03
(PID.TID 0000.0001) %MON pe_b_mean                    =   1.3734780738211E-05
(PID.TID 0000.0001) %MON ke_max                       =   2.6767791989545E-03
(PID.TID 0000.0001) %MON ke_mean                      =   1.8753922645156E-05
(PID.TID 0000.0001) %MON ke_vol                       =   2.0812333426156E+15
(PID.TID 0000.0001) %MON vort_r_min                   =  -5.8929501924827E-07
(PID.TID 0000.0001) %MON vort_r_max                   =   2.7119962230354E-07
(PID.TID 0000.0001) %MON vort_a_mean                  =   1.1459506466757E-04
(PID.TID 0000.0001) %MON vort_a_sd                    =   5.2713275139946E-06
(PID.TID 0000.0001) %MON vort_p_mean                  =   1.7066120158470E-04
(PID.TID 0000.0001) %MON vort_p_sd                    =   1.1051719579054E-04
(PID.TID 0000.0001) %MON surfExpan_theta_mean         =  -2.1257986902296E-06
(PID.TID 0000.0001) %MON surfExpan_salt_mean          =  -4.4770994678265E-06
(PID.TID 0000.0001) // =======================================================
(PID.TID 0000.0001) // End MONITOR dynamic field statistics
(PID.TID 0000.0001) // =======================================================
(PID.TID 0000.0001) // =======================================================
(PID.TID 0000.0001) // Begin OBCS MONITOR field statistics
(PID.TID 0000.0001) // =======================================================
(PID.TID 0000.0001) %MON obc_E_uVel_max               =   1.4242653050871E-02
(PID.TID 0000.0001) %MON obc_E_uVel_min               =  -1.9194674273765E-02
(PID.TID 0000.0001) %MON obc_E_uVel_mean              =  -4.9638201602628E-04
(PID.TID 0000.0001) %MON obc_E_uVel_sd                =   3.2297495133493E-03
(PID.TID 0000.0001) %MON obc_E_uVel_Int               =  -1.0249741557350E+06
(PID.TID 0000.0001) %MON obc_W_uVel_max               =   9.2070222731099E-03
(PID.TID 0000.0001) %MON obc_W_uVel_min               =  -9.4567048049434E-03
(PID.TID 0000.0001) %MON obc_W_uVel_mean              =   2.4843306482436E-06
(PID.TID 0000.0001) %MON obc_W_uVel_sd                =   3.3213373892182E-03
(PID.TID 0000.0001) %MON obc_W_uVel_Int               =   2.8729476275997E+02
(PID.TID 0000.0001) %MON obc_N_vVel_max               =   9.4107913849022E-03
(PID.TID 0000.0001) %MON obc_N_vVel_min               =  -3.4397775301259E-02
(PID.TID 0000.0001) %MON obc_N_vVel_mean              =   8.5814502424306E-06
(PID.TID 0000.0001) %MON obc_N_vVel_sd                =   8.2083963961428E-03
(PID.TID 0000.0001) %MON obc_N_vVel_Int               =   1.1259722016490E+03
(PID.TID 0000.0001) %MON obc_S_vVel_max               =   3.6520769995882E-03
(PID.TID 0000.0001) %MON obc_S_vVel_min               =  -4.6883787666845E-02
(PID.TID 0000.0001) %MON obc_S_vVel_mean              =  -1.3399915045992E-03
(PID.TID 0000.0001) %MON obc_S_vVel_sd                =   4.9499815188988E-03
(PID.TID 0000.0001) %MON obc_S_vVel_Int               =  -1.1655003922066E+06
(PID.TID 0000.0001) // =======================================================
(PID.TID 0000.0001) // End OBCS MONITOR field statistics
(PID.TID 0000.0001) // =======================================================
(PID.TID 0000.0001) // =======================================================
(PID.TID 0000.0001) // Begin MONITOR SEAICE statistics
(PID.TID 0000.0001) // =======================================================
(PID.TID 0000.0001) %MON seaice_tsnumber              =                     1
(PID.TID 0000.0001) %MON seaice_time_sec              =   3.6000000000000E+03
(PID.TID 0000.0001) %MON seaice_uice_max              =   1.4568452533446E-01
(PID.TID 0000.0001) %MON seaice_uice_min              =  -1.0756200511604E-01
(PID.TID 0000.0001) %MON seaice_uice_mean             =   4.8585159172492E-02
(PID.TID 0000.0001) %MON seaice_uice_sd               =   6.6090805174384E-02
(PID.TID 0000.0001) %MON seaice_uice_del2             =   4.2844099468594E-03
(PID.TID 0000.0001) %MON seaice_vice_max              =   6.6723729113493E-02
(PID.TID 0000.0001) %MON seaice_vice_min              =  -1.5313531754626E-01
(PID.TID 0000.0001) %MON seaice_vice_mean             =  -7.4694814381824E-02
(PID.TID 0000.0001) %MON seaice_vice_sd               =   5.5457098956354E-02
(PID.TID 0000.0001) %MON seaice_vice_del2             =   3.6329843897423E-03
(PID.TID 0000.0001) %MON seaice_area_max              =   1.0000000000000E+00
(PID.TID 0000.0001) %MON seaice_area_min              =   0.0000000000000E+00
(PID.TID 0000.0001) %MON seaice_area_mean             =   3.3456698460908E-01
(PID.TID 0000.0001) %MON seaice_area_sd               =   4.1347224280415E-01
(PID.TID 0000.0001) %MON seaice_area_del2             =   7.1860770429023E-02
(PID.TID 0000.0001) %MON seaice_heff_max              =   4.6387455454928E-01
(PID.TID 0000.0001) %MON seaice_heff_min              =   0.0000000000000E+00
(PID.TID 0000.0001) %MON seaice_heff_mean             =   7.7767294476537E-02
(PID.TID 0000.0001) %MON seaice_heff_sd               =   1.1759237506287E-01
(PID.TID 0000.0001) %MON seaice_heff_del2             =   1.4149876013564E-02
(PID.TID 0000.0001) %MON seaice_hsnow_max             =   8.1462875154471E-02
(PID.TID 0000.0001) %MON seaice_hsnow_min             =   0.0000000000000E+00
(PID.TID 0000.0001) %MON seaice_hsnow_mean            =   1.6890355006286E-02
(PID.TID 0000.0001) %MON seaice_hsnow_sd              =   2.4480004555514E-02
(PID.TID 0000.0001) %MON seaice_hsnow_del2            =   4.1995111454288E-03
(PID.TID 0000.0001) %MON seaice_hsalt_max             =   0.0000000000000E+00
(PID.TID 0000.0001) %MON seaice_hsalt_min             =   0.0000000000000E+00
(PID.TID 0000.0001) %MON seaice_hsalt_mean            =   0.0000000000000E+00
(PID.TID 0000.0001) %MON seaice_hsalt_sd              =   0.0000000000000E+00
(PID.TID 0000.0001) %MON seaice_hsalt_del2            =   0.0000000000000E+00
(PID.TID 0000.0001) // =======================================================
(PID.TID 0000.0001) // End MONITOR SEAICE statistics
(PID.TID 0000.0001) // =======================================================
(PID.TID 0000.0001)  MDS_READ_FIELD: opening global file: SSS_monthly.labsea1979
(PID.TID 0000.0001)  MDS_READ_FIELD: opening global file: SSS_monthly.labsea1979
(PID.TID 0000.0001)  MDS_READ_FIELD: opening global file: u10m.labsea1979
(PID.TID 0000.0001)  MDS_READ_FIELD: opening global file: u10m.labsea1979
(PID.TID 0000.0001)  MDS_READ_FIELD: opening global file: v10m.labsea1979
(PID.TID 0000.0001)  MDS_READ_FIELD: opening global file: v10m.labsea1979
(PID.TID 0000.0001)  MDS_READ_FIELD: opening global file: tair.labsea1979
(PID.TID 0000.0001)  MDS_READ_FIELD: opening global file: tair.labsea1979
(PID.TID 0000.0001)  MDS_READ_FIELD: opening global file: qa.labsea1979
(PID.TID 0000.0001)  MDS_READ_FIELD: opening global file: qa.labsea1979
(PID.TID 0000.0001)  MDS_READ_FIELD: opening global file: prate.labsea1979
(PID.TID 0000.0001)  MDS_READ_FIELD: opening global file: prate.labsea1979
(PID.TID 0000.0001)  MDS_READ_FIELD: opening global file: fsh.labsea1979
(PID.TID 0000.0001)  MDS_READ_FIELD: opening global file: fsh.labsea1979
(PID.TID 0000.0001)  MDS_READ_FIELD: opening global file: flo.labsea1979
(PID.TID 0000.0001)  MDS_READ_FIELD: opening global file: flo.labsea1979
(PID.TID 0000.0001) // =======================================================
(PID.TID 0000.0001) // Begin MONITOR EXF statistics
(PID.TID 0000.0001) // =======================================================
(PID.TID 0000.0001) %MON exf_tsnumber                 =                     1
(PID.TID 0000.0001) %MON exf_time_sec                 =   3.6000000000000E+03
(PID.TID 0000.0001) %MON exf_ustress_max              =   3.4554588519574E-02
(PID.TID 0000.0001) %MON exf_ustress_min              =   3.8356800698698E-03
(PID.TID 0000.0001) %MON exf_ustress_mean             =   1.8072313652040E-02
(PID.TID 0000.0001) %MON exf_ustress_sd               =   9.7531065507103E-03
(PID.TID 0000.0001) %MON exf_ustress_del2             =   3.7734351715846E-03
(PID.TID 0000.0001) %MON exf_vstress_max              =   6.9121459928481E-03
(PID.TID 0000.0001) %MON exf_vstress_min              =  -1.4660780016780E-02
(PID.TID 0000.0001) %MON exf_vstress_mean             =  -1.4432818808114E-03
(PID.TID 0000.0001) %MON exf_vstress_sd               =   5.4528050992260E-03
(PID.TID 0000.0001) %MON exf_vstress_del2             =   2.5561955466816E-03
(PID.TID 0000.0001) %MON exf_hflux_max                =   3.0362646171636E+02
(PID.TID 0000.0001) %MON exf_hflux_min                =   1.3268131574981E+00
(PID.TID 0000.0001) %MON exf_hflux_mean               =   1.3229950725007E+02
(PID.TID 0000.0001) %MON exf_hflux_sd                 =   1.0762700753292E+02
(PID.TID 0000.0001) %MON exf_hflux_del2               =   5.2152892413246E+01
(PID.TID 0000.0001) %MON exf_sflux_max                =   8.7747402288381E-09
(PID.TID 0000.0001) %MON exf_sflux_min                =  -5.9136159436657E-08
(PID.TID 0000.0001) %MON exf_sflux_mean               =  -2.1077571397702E-08
(PID.TID 0000.0001) %MON exf_sflux_sd                 =   2.1978423436831E-08
(PID.TID 0000.0001) %MON exf_sflux_del2               =   1.0219271644562E-08
(PID.TID 0000.0001) %MON exf_uwind_max                =   5.3640566334698E+00
(PID.TID 0000.0001) %MON exf_uwind_min                =   6.3865461579112E-01
(PID.TID 0000.0001) %MON exf_uwind_mean               =   3.0593522879030E+00
(PID.TID 0000.0001) %MON exf_uwind_sd                 =   1.4744357247427E+00
(PID.TID 0000.0001) %MON exf_uwind_del2               =   6.6854863735304E-01
(PID.TID 0000.0001) %MON exf_vwind_max                =   1.1557415265366E+00
(PID.TID 0000.0001) %MON exf_vwind_min                =  -2.2527607663896E+00
(PID.TID 0000.0001) %MON exf_vwind_mean               =  -2.5890197254668E-01
(PID.TID 0000.0001) %MON exf_vwind_sd                 =   8.9221997055781E-01
(PID.TID 0000.0001) %MON exf_vwind_del2               =   4.2226318477784E-01
(PID.TID 0000.0001) %MON exf_wspeed_max               =   5.3997777055552E+00
(PID.TID 0000.0001) %MON exf_wspeed_min               =   1.2176369740234E+00
(PID.TID 0000.0001) %MON exf_wspeed_mean              =   3.2204871040818E+00
(PID.TID 0000.0001) %MON exf_wspeed_sd                =   1.4230764728530E+00
(PID.TID 0000.0001) %MON exf_wspeed_del2              =   6.6592933088780E-01
(PID.TID 0000.0001) %MON exf_atemp_max                =   2.7815616290817E+02
(PID.TID 0000.0001) %MON exf_atemp_min                =   2.5102028856121E+02
(PID.TID 0000.0001) %MON exf_atemp_mean               =   2.6468954453896E+02
(PID.TID 0000.0001) %MON exf_atemp_sd                 =   9.4965604037859E+00
(PID.TID 0000.0001) %MON exf_atemp_del2               =   4.4705204619532E+00
(PID.TID 0000.0001) %MON exf_aqh_max                  =   4.9654881163281E-03
(PID.TID 0000.0001) %MON exf_aqh_min                  =   8.9437011651608E-04
(PID.TID 0000.0001) %MON exf_aqh_mean                 =   2.4683072174559E-03
(PID.TID 0000.0001) %MON exf_aqh_sd                   =   1.2817638144819E-03
(PID.TID 0000.0001) %MON exf_aqh_del2                 =   6.0168649038606E-04
(PID.TID 0000.0001) %MON exf_lwflux_max               =   1.3449471393860E+02
(PID.TID 0000.0001) %MON exf_lwflux_min               =   4.4271987066288E+01
(PID.TID 0000.0001) %MON exf_lwflux_mean              =   8.5110398692790E+01
(PID.TID 0000.0001) %MON exf_lwflux_sd                =   3.4375095691549E+01
(PID.TID 0000.0001) %MON exf_lwflux_del2              =   1.8013279766566E+01
(PID.TID 0000.0001) %MON exf_evap_max                 =   2.7552449701852E-08
(PID.TID 0000.0001) %MON exf_evap_min                 =  -1.6584688021880E-09
(PID.TID 0000.0001) %MON exf_evap_mean                =   1.0965046292413E-08
(PID.TID 0000.0001) %MON exf_evap_sd                  =   8.4900346745238E-09
(PID.TID 0000.0001) %MON exf_evap_del2                =   3.8913360557134E-09
(PID.TID 0000.0001) %MON exf_precip_max               =   5.9505298888682E-08
(PID.TID 0000.0001) %MON exf_precip_min               =   7.5144464615546E-09
(PID.TID 0000.0001) %MON exf_precip_mean              =   3.2042617690116E-08
(PID.TID 0000.0001) %MON exf_precip_sd                =   1.5074039568965E-08
(PID.TID 0000.0001) %MON exf_precip_del2              =   6.8495776502888E-09
(PID.TID 0000.0001) %MON exf_swflux_max               =  -2.6185689464163E+01
(PID.TID 0000.0001) %MON exf_swflux_min               =  -4.3130298511318E+01
(PID.TID 0000.0001) %MON exf_swflux_mean              =  -3.4027948904558E+01
(PID.TID 0000.0001) %MON exf_swflux_sd                =   5.3576873070070E+00
(PID.TID 0000.0001) %MON exf_swflux_del2              =   3.0946535536001E+00
(PID.TID 0000.0001) %MON exf_swdown_max               =   4.7922553901464E+01
(PID.TID 0000.0001) %MON exf_swdown_min               =   2.9095210515736E+01
(PID.TID 0000.0001) %MON exf_swdown_mean              =   3.7808832116175E+01
(PID.TID 0000.0001) %MON exf_swdown_sd                =   5.9529858966744E+00
(PID.TID 0000.0001) %MON exf_swdown_del2              =   3.4385039484445E+00
(PID.TID 0000.0001) %MON exf_lwdown_max               =   2.8604370784238E+02
(PID.TID 0000.0001) %MON exf_lwdown_min               =   1.7405251877165E+02
(PID.TID 0000.0001) %MON exf_lwdown_mean              =   2.2899297247569E+02
(PID.TID 0000.0001) %MON exf_lwdown_sd                =   3.6582083444799E+01
(PID.TID 0000.0001) %MON exf_lwdown_del2              =   2.5135762164677E+01
(PID.TID 0000.0001) %MON exf_climsss_max              =   3.4649188078166E+01
(PID.TID 0000.0001) %MON exf_climsss_min              =   2.5629877580320E+01
(PID.TID 0000.0001) %MON exf_climsss_mean             =   3.1807854529883E+01
(PID.TID 0000.0001) %MON exf_climsss_sd               =   2.3421795715802E+00
(PID.TID 0000.0001) %MON exf_climsss_del2             =   9.6893040172876E-01
(PID.TID 0000.0001) // =======================================================
(PID.TID 0000.0001) // End MONITOR EXF statistics
(PID.TID 0000.0001) // =======================================================
(PID.TID 0000.0001)  MDS_READ_SEC_XZ: opening global file: OBNu.seaice_obcs
(PID.TID 0000.0001)  MDS_READ_SEC_XZ: opening global file: OBNv.seaice_obcs
(PID.TID 0000.0001)  MDS_READ_SEC_XZ: opening global file: OBNt.seaice_obcs
(PID.TID 0000.0001)  MDS_READ_SEC_XZ: opening global file: OBNs.seaice_obcs
(PID.TID 0000.0001)  MDS_READ_SEC_XZ: opening global file: OBNa.seaice_obcs
(PID.TID 0000.0001)  MDS_READ_SEC_XZ: opening global file: OBNh.seaice_obcs
(PID.TID 0000.0001)  MDS_READ_SEC_XZ: opening global file: OBNsl.seaice_obcs
(PID.TID 0000.0001)  MDS_READ_SEC_XZ: opening global file: OBNsn.seaice_obcs
(PID.TID 0000.0001)  MDS_READ_SEC_XZ: opening global file: OBNuice.seaice_obcs
(PID.TID 0000.0001)  MDS_READ_SEC_XZ: opening global file: OBNvice.seaice_obcs
(PID.TID 0000.0001)  MDS_READ_SEC_XZ: opening global file: OBSu.seaice_obcs
(PID.TID 0000.0001)  MDS_READ_SEC_XZ: opening global file: OBSv.seaice_obcs
(PID.TID 0000.0001)  MDS_READ_SEC_XZ: opening global file: OBSt.seaice_obcs
(PID.TID 0000.0001)  MDS_READ_SEC_XZ: opening global file: OBSs.seaice_obcs
(PID.TID 0000.0001)  MDS_READ_SEC_XZ: opening global file: OBSa.seaice_obcs
(PID.TID 0000.0001)  MDS_READ_SEC_XZ: opening global file: OBSh.seaice_obcs
(PID.TID 0000.0001)  MDS_READ_SEC_XZ: opening global file: OBSsl.seaice_obcs
(PID.TID 0000.0001)  MDS_READ_SEC_XZ: opening global file: OBSsn.seaice_obcs
(PID.TID 0000.0001)  MDS_READ_SEC_XZ: opening global file: OBSuice.seaice_obcs
(PID.TID 0000.0001)  MDS_READ_SEC_XZ: opening global file: OBSvice.seaice_obcs
(PID.TID 0000.0001)  MDS_READ_SEC_YZ: opening global file: OBEu.seaice_obcs
(PID.TID 0000.0001)  MDS_READ_SEC_YZ: opening global file: OBEv.seaice_obcs
(PID.TID 0000.0001)  MDS_READ_SEC_YZ: opening global file: OBEt.seaice_obcs
(PID.TID 0000.0001)  MDS_READ_SEC_YZ: opening global file: OBEs.seaice_obcs
(PID.TID 0000.0001)  MDS_READ_SEC_YZ: opening global file: OBEa.seaice_obcs
(PID.TID 0000.0001)  MDS_READ_SEC_YZ: opening global file: OBEh.seaice_obcs
(PID.TID 0000.0001)  MDS_READ_SEC_YZ: opening global file: OBEsl.seaice_obcs
(PID.TID 0000.0001)  MDS_READ_SEC_YZ: opening global file: OBEsn.seaice_obcs
(PID.TID 0000.0001)  MDS_READ_SEC_YZ: opening global file: OBEuice.seaice_obcs
(PID.TID 0000.0001)  MDS_READ_SEC_YZ: opening global file: OBEvice.seaice_obcs
(PID.TID 0000.0001)  MDS_READ_SEC_YZ: opening global file: OBWu.seaice_obcs
(PID.TID 0000.0001)  MDS_READ_SEC_YZ: opening global file: OBWv.seaice_obcs
(PID.TID 0000.0001)  MDS_READ_SEC_YZ: opening global file: OBWt.seaice_obcs
(PID.TID 0000.0001)  MDS_READ_SEC_YZ: opening global file: OBWs.seaice_obcs
(PID.TID 0000.0001)  MDS_READ_SEC_YZ: opening global file: OBWa.seaice_obcs
(PID.TID 0000.0001)  MDS_READ_SEC_YZ: opening global file: OBWh.seaice_obcs
(PID.TID 0000.0001)  MDS_READ_SEC_YZ: opening global file: OBWsl.seaice_obcs
(PID.TID 0000.0001)  MDS_READ_SEC_YZ: opening global file: OBWsn.seaice_obcs
(PID.TID 0000.0001)  MDS_READ_SEC_YZ: opening global file: OBWuice.seaice_obcs
(PID.TID 0000.0001)  MDS_READ_SEC_YZ: opening global file: OBWvice.seaice_obcs
 SEAICE_LSR: Residual Initial ipass,Uice,Vice=    1  3.11307705E-02  2.79559928E-02
 SEAICE_LSR: Residual FrDrift U_fd,V_fd=  2.46022338E-02  2.70839044E-03
 SEAICE_LSR (ipass=   1) iters,dU,Resid=    26  3.53245211E-13  4.01870080E-14
 SEAICE_LSR (ipass=   1) iters,dV,Resid=    18  2.23432384E-13  1.51604543E-14
 SEAICE_LSR: Residual Initial ipass,Uice,Vice=    2  1.08172611E-02  9.89270086E-03
 SEAICE_LSR: Residual FrDrift U_fd,V_fd=  2.58282031E-02  5.82748152E-03
 SEAICE_LSR (ipass=   2) iters,dU,Resid=    28  2.33695008E-13  3.48278128E-14
 SEAICE_LSR (ipass=   2) iters,dV,Resid=    20  1.47395984E-13  2.13982481E-14
(PID.TID 0000.0001) SOLVE_FOR_PRESSURE: putPmEinXvector =    F
 cg2d: Sum(rhs),rhsMax =   2.43981455244258E+00  2.50004673067983E-01
(PID.TID 0000.0001)      cg2d_init_res =   2.52894528859426E+00
(PID.TID 0000.0001)      cg2d_iters(min,last) =      -1      25
(PID.TID 0000.0001)      cg2d_last_res =   3.90913966881326E-13
(PID.TID 0000.0001) // =======================================================
(PID.TID 0000.0001) // Begin MONITOR dynamic field statistics
(PID.TID 0000.0001) // =======================================================
(PID.TID 0000.0001) %MON time_tsnumber                =                     2
(PID.TID 0000.0001) %MON time_secondsf                =   7.2000000000000E+03
(PID.TID 0000.0001) %MON dynstat_eta_max              =   1.0208146447940E-01
(PID.TID 0000.0001) %MON dynstat_eta_min              =  -8.6560263432788E-02
(PID.TID 0000.0001) %MON dynstat_eta_mean             =  -3.4483978413180E-02
(PID.TID 0000.0001) %MON dynstat_eta_sd               =   4.0747388274070E-02
(PID.TID 0000.0001) %MON dynstat_eta_del2             =   4.6870133465009E-03
(PID.TID 0000.0001) %MON dynstat_uvel_max             =   3.1395701855892E-02
(PID.TID 0000.0001) %MON dynstat_uvel_min             =  -4.5766224378367E-02
(PID.TID 0000.0001) %MON dynstat_uvel_mean            =  -2.2248929222461E-04
(PID.TID 0000.0001) %MON dynstat_uvel_sd              =   3.8050480745986E-03
(PID.TID 0000.0001) %MON dynstat_uvel_del2            =   3.5664255313756E-04
(PID.TID 0000.0001) %MON dynstat_vvel_max             =   3.6179295497972E-02
(PID.TID 0000.0001) %MON dynstat_vvel_min             =  -6.7126701410344E-02
(PID.TID 0000.0001) %MON dynstat_vvel_mean            =  -3.2741491452790E-04
(PID.TID 0000.0001) %MON dynstat_vvel_sd              =   5.9729168214542E-03
(PID.TID 0000.0001) %MON dynstat_vvel_del2            =   4.7777192898404E-04
(PID.TID 0000.0001) %MON dynstat_wvel_max             =   2.3450836428080E-05
(PID.TID 0000.0001) %MON dynstat_wvel_min             =  -3.4044969848077E-05
(PID.TID 0000.0001) %MON dynstat_wvel_mean            =   1.7463603677407E-06
(PID.TID 0000.0001) %MON dynstat_wvel_sd              =   1.1992022458482E-05
(PID.TID 0000.0001) %MON dynstat_wvel_del2            =   6.2089244704573E-07
(PID.TID 0000.0001) %MON dynstat_theta_max            =   6.0148464061588E+00
(PID.TID 0000.0001) %MON dynstat_theta_min            =  -1.8175865696763E+00
(PID.TID 0000.0001) %MON dynstat_theta_mean           =   3.1873181881735E+00
(PID.TID 0000.0001) %MON dynstat_theta_sd             =   7.9841944861647E-01
(PID.TID 0000.0001) %MON dynstat_theta_del2           =   4.3233608276357E-02
(PID.TID 0000.0001) %MON dynstat_salt_max             =   3.4939863173026E+01
(PID.TID 0000.0001) %MON dynstat_salt_min             =   3.2482865790201E+01
(PID.TID 0000.0001) %MON dynstat_salt_mean            =   3.4812208711364E+01
(PID.TID 0000.0001) %MON dynstat_salt_sd              =   3.1542855196928E-01
(PID.TID 0000.0001) %MON dynstat_salt_del2            =   9.5568458145586E-03
(PID.TID 0000.0001) %MON forcing_qnet_max             =   3.0362526439149E+02
(PID.TID 0000.0001) %MON forcing_qnet_min             =   1.3268131574981E+00
(PID.TID 0000.0001) %MON forcing_qnet_mean            =   8.3294141424723E+01
(PID.TID 0000.0001) %MON forcing_qnet_sd              =   1.0018712734657E+02
(PID.TID 0000.0001) %MON forcing_qnet_del2            =   4.0760914208374E+01
(PID.TID 0000.0001) %MON forcing_qsw_max              =  -1.9705059226095E-03
(PID.TID 0000.0001) %MON forcing_qsw_min              =  -4.3130298511318E+01
(PID.TID 0000.0001) %MON forcing_qsw_mean             =  -2.3852643051619E+01
(PID.TID 0000.0001) %MON forcing_qsw_sd               =   1.5657978613353E+01
(PID.TID 0000.0001) %MON forcing_qsw_del2             =   2.4960709098158E+00
(PID.TID 0000.0001) %MON forcing_empmr_max            =   5.5815165044910E-04
(PID.TID 0000.0001) %MON forcing_empmr_min            =  -9.4124261296107E-05
(PID.TID 0000.0001) %MON forcing_empmr_mean           =   2.5409195921388E-05
(PID.TID 0000.0001) %MON forcing_empmr_sd             =   1.2496952858727E-04
(PID.TID 0000.0001) %MON forcing_empmr_del2           =   6.1103102733438E-05
(PID.TID 0000.0001) %MON forcing_fu_max               =   3.7234519999321E-02
(PID.TID 0000.0001) %MON forcing_fu_min               =   6.5246071290184E-03
(PID.TID 0000.0001) %MON forcing_fu_mean              =   2.0583498026673E-02
(PID.TID 0000.0001) %MON forcing_fu_sd                =   9.4261925091247E-03
(PID.TID 0000.0001) %MON forcing_fu_del2              =   3.6264058066594E-03
(PID.TID 0000.0001) %MON forcing_fv_max               =   6.2015324782159E-04
(PID.TID 0000.0001) %MON forcing_fv_min               =  -2.7977528295585E-02
(PID.TID 0000.0001) %MON forcing_fv_mean              =  -6.4922600740378E-03
(PID.TID 0000.0001) %MON forcing_fv_sd                =   8.6557200209003E-03
(PID.TID 0000.0001) %MON forcing_fv_del2              =   8.1945533952278E-04
(PID.TID 0000.0001) %MON trAdv_CFL_u_max              =   1.2917050745220E-03
(PID.TID 0000.0001) %MON trAdv_CFL_v_max              =   1.1116903659480E-03
(PID.TID 0000.0001) %MON trAdv_CFL_w_max              =   4.4416146240524E-03
(PID.TID 0000.0001) %MON advcfl_uvel_max              =   1.2916394962097E-03
(PID.TID 0000.0001) %MON advcfl_vvel_max              =   1.0866328724228E-03
(PID.TID 0000.0001) %MON advcfl_wvel_max              =   7.8726598982305E-03
(PID.TID 0000.0001) %MON advcfl_W_hf_max              =   4.8267094754975E-03
(PID.TID 0000.0001) %MON pe_b_mean                    =   8.1905567975970E-06
(PID.TID 0000.0001) %MON ke_max                       =   2.4392684586802E-03
(PID.TID 0000.0001) %MON ke_mean                      =   2.0384793754432E-05
(PID.TID 0000.0001) %MON ke_vol                       =   2.0812333426156E+15
(PID.TID 0000.0001) %MON vort_r_min                   =  -5.8508854169994E-07
(PID.TID 0000.0001) %MON vort_r_max                   =   2.9017121863356E-07
(PID.TID 0000.0001) %MON vort_a_mean                  =   1.1459530638008E-04
(PID.TID 0000.0001) %MON vort_a_sd                    =   5.2706358005843E-06
(PID.TID 0000.0001) %MON vort_p_mean                  =   1.7066156155611E-04
(PID.TID 0000.0001) %MON vort_p_sd                    =   1.1051407371222E-04
(PID.TID 0000.0001) %MON surfExpan_theta_mean         =   7.8655698795386E-06
(PID.TID 0000.0001) %MON surfExpan_salt_mean          =   6.1422560891336E-05
(PID.TID 0000.0001) // =======================================================
(PID.TID 0000.0001) // End MONITOR dynamic field statistics
(PID.TID 0000.0001) // =======================================================
(PID.TID 0000.0001) // =======================================================
(PID.TID 0000.0001) // Begin OBCS MONITOR field statistics
(PID.TID 0000.0001) // =======================================================
(PID.TID 0000.0001) %MON obc_E_uVel_max               =   1.5887133777142E-02
(PID.TID 0000.0001) %MON obc_E_uVel_min               =  -1.4387597329915E-02
(PID.TID 0000.0001) %MON obc_E_uVel_mean              =  -1.2117181589127E-03
(PID.TID 0000.0001) %MON obc_E_uVel_sd                =   2.5429300278294E-03
(PID.TID 0000.0001) %MON obc_E_uVel_Int               =  -2.5020644520178E+06
(PID.TID 0000.0001) %MON obc_W_uVel_max               =   7.4547496624291E-03
(PID.TID 0000.0001) %MON obc_W_uVel_min               =  -1.5265225432813E-02
(PID.TID 0000.0001) %MON obc_W_uVel_mean              =   1.0739927389435E-03
(PID.TID 0000.0001) %MON obc_W_uVel_sd                =   4.1434365311604E-03
(PID.TID 0000.0001) %MON obc_W_uVel_Int               =   1.2419944557656E+05
(PID.TID 0000.0001) %MON obc_N_vVel_max               =   1.1617552489042E-02
(PID.TID 0000.0001) %MON obc_N_vVel_min               =  -3.1334396451712E-02
(PID.TID 0000.0001) %MON obc_N_vVel_mean              =   4.5199859990951E-04
(PID.TID 0000.0001) %MON obc_N_vVel_sd                =   8.0401541133562E-03
(PID.TID 0000.0001) %MON obc_N_vVel_Int               =   5.9306742369250E+04
(PID.TID 0000.0001) %MON obc_S_vVel_max               =   2.8631365858018E-03
(PID.TID 0000.0001) %MON obc_S_vVel_min               =  -5.1312185823917E-02
(PID.TID 0000.0001) %MON obc_S_vVel_mean              =  -4.6170989019693E-04
(PID.TID 0000.0001) %MON obc_S_vVel_sd                =   5.6464756655201E-03
(PID.TID 0000.0001) %MON obc_S_vVel_Int               =  -4.0158691772540E+05
(PID.TID 0000.0001) // =======================================================
(PID.TID 0000.0001) // End OBCS MONITOR field statistics
(PID.TID 0000.0001) // =======================================================
(PID.TID 0000.0001) // =======================================================
(PID.TID 0000.0001) // Begin MONITOR SEAICE statistics
(PID.TID 0000.0001) // =======================================================
(PID.TID 0000.0001) %MON seaice_tsnumber              =                     2
(PID.TID 0000.0001) %MON seaice_time_sec              =   7.2000000000000E+03
(PID.TID 0000.0001) %MON seaice_uice_max              =   1.3430409378486E-01
(PID.TID 0000.0001) %MON seaice_uice_min              =  -7.2971820831299E-02
(PID.TID 0000.0001) %MON seaice_uice_mean             =   5.5427215478410E-02
(PID.TID 0000.0001) %MON seaice_uice_sd               =   4.3918384685914E-02
(PID.TID 0000.0001) %MON seaice_uice_del2             =   1.2559466653527E-02
(PID.TID 0000.0001) %MON seaice_vice_max              =   1.8422815461428E-02
(PID.TID 0000.0001) %MON seaice_vice_min              =  -1.1163940280676E-01
(PID.TID 0000.0001) %MON seaice_vice_mean             =  -4.7229199949481E-02
(PID.TID 0000.0001) %MON seaice_vice_sd               =   3.9598503649275E-02
(PID.TID 0000.0001) %MON seaice_vice_del2             =   3.1550311082178E-03
(PID.TID 0000.0001) %MON seaice_area_max              =   9.9821304468295E-01
(PID.TID 0000.0001) %MON seaice_area_min              =   0.0000000000000E+00
(PID.TID 0000.0001) %MON seaice_area_mean             =   3.3006133736041E-01
(PID.TID 0000.0001) %MON seaice_area_sd               =   4.0741019898994E-01
(PID.TID 0000.0001) %MON seaice_area_del2             =   7.0800314528614E-02
(PID.TID 0000.0001) %MON seaice_heff_max              =   4.5279522990162E-01
(PID.TID 0000.0001) %MON seaice_heff_min              =   0.0000000000000E+00
(PID.TID 0000.0001) %MON seaice_heff_mean             =   7.8097310411822E-02
(PID.TID 0000.0001) %MON seaice_heff_sd               =   1.1784405159363E-01
(PID.TID 0000.0001) %MON seaice_heff_del2             =   1.3755197384700E-02
(PID.TID 0000.0001) %MON seaice_hsnow_max             =   8.1485875463246E-02
(PID.TID 0000.0001) %MON seaice_hsnow_min             =   0.0000000000000E+00
(PID.TID 0000.0001) %MON seaice_hsnow_mean            =   1.6990648083928E-02
(PID.TID 0000.0001) %MON seaice_hsnow_sd              =   2.4569215187271E-02
(PID.TID 0000.0001) %MON seaice_hsnow_del2            =   4.2175903508144E-03
(PID.TID 0000.0001) %MON seaice_hsalt_max             =   1.9987600819376E+01
(PID.TID 0000.0001) %MON seaice_hsalt_min             =   0.0000000000000E+00
(PID.TID 0000.0001) %MON seaice_hsalt_mean            =   1.8010432606291E+00
(PID.TID 0000.0001) %MON seaice_hsalt_sd              =   3.9691379843887E+00
(PID.TID 0000.0001) %MON seaice_hsalt_del2            =   1.9085291603752E+00
(PID.TID 0000.0001) // =======================================================
(PID.TID 0000.0001) // End MONITOR SEAICE statistics
(PID.TID 0000.0001) // =======================================================
(PID.TID 0000.0001) // =======================================================
(PID.TID 0000.0001) // Begin MONITOR EXF statistics
(PID.TID 0000.0001) // =======================================================
(PID.TID 0000.0001) %MON exf_tsnumber                 =                     2
(PID.TID 0000.0001) %MON exf_time_sec                 =   7.2000000000000E+03
(PID.TID 0000.0001) %MON exf_ustress_max              =   3.4511148311621E-02
(PID.TID 0000.0001) %MON exf_ustress_min              =   3.8374730837065E-03
(PID.TID 0000.0001) %MON exf_ustress_mean             =   1.8066525487155E-02
(PID.TID 0000.0001) %MON exf_ustress_sd               =   9.7438235483443E-03
(PID.TID 0000.0001) %MON exf_ustress_del2             =   3.7665162453889E-03
(PID.TID 0000.0001) %MON exf_vstress_max              =   6.9084369338737E-03
(PID.TID 0000.0001) %MON exf_vstress_min              =  -1.4695922014341E-02
(PID.TID 0000.0001) %MON exf_vstress_mean             =  -1.4512266090438E-03
(PID.TID 0000.0001) %MON exf_vstress_sd               =   5.4596008432900E-03
(PID.TID 0000.0001) %MON exf_vstress_del2             =   2.5590147177015E-03
(PID.TID 0000.0001) %MON exf_hflux_max                =   3.0373467185335E+02
(PID.TID 0000.0001) %MON exf_hflux_min                =   1.4610480027101E+00
(PID.TID 0000.0001) %MON exf_hflux_mean               =   1.3236851491676E+02
(PID.TID 0000.0001) %MON exf_hflux_sd                 =   1.0763700321869E+02
(PID.TID 0000.0001) %MON exf_hflux_del2               =   5.2154760524012E+01
(PID.TID 0000.0001) %MON exf_sflux_max                =   8.7993416053998E-09
(PID.TID 0000.0001) %MON exf_sflux_min                =  -5.9112808356427E-08
(PID.TID 0000.0001) %MON exf_sflux_mean               =  -2.1072480496960E-08
(PID.TID 0000.0001) %MON exf_sflux_sd                 =   2.1983988833516E-08
(PID.TID 0000.0001) %MON exf_sflux_del2               =   1.0222691812788E-08
(PID.TID 0000.0001) %MON exf_uwind_max                =   5.3615644903131E+00
(PID.TID 0000.0001) %MON exf_uwind_min                =   6.3893064123685E-01
(PID.TID 0000.0001) %MON exf_uwind_mean               =   3.0586159036305E+00
(PID.TID 0000.0001) %MON exf_uwind_sd                 =   1.4730978258026E+00
(PID.TID 0000.0001) %MON exf_uwind_del2               =   6.1114036230914E-01
(PID.TID 0000.0001) %MON exf_vwind_max                =   1.1549970484822E+00
(PID.TID 0000.0001) %MON exf_vwind_min                =  -2.2573392062239E+00
(PID.TID 0000.0001) %MON exf_vwind_mean               =  -2.6028857469217E-01
(PID.TID 0000.0001) %MON exf_vwind_sd                 =   8.9327979366818E-01
(PID.TID 0000.0001) %MON exf_vwind_del2               =   4.2083017831403E-01
(PID.TID 0000.0001) %MON exf_wspeed_max               =   5.3971606819623E+00
(PID.TID 0000.0001) %MON exf_wspeed_min               =   1.2178056508362E+00
(PID.TID 0000.0001) %MON exf_wspeed_mean              =   3.2200724643846E+00
(PID.TID 0000.0001) %MON exf_wspeed_sd                =   1.4219636796798E+00
(PID.TID 0000.0001) %MON exf_wspeed_del2              =   6.6518589258455E-01
(PID.TID 0000.0001) %MON exf_atemp_max                =   2.7814940772552E+02
(PID.TID 0000.0001) %MON exf_atemp_min                =   2.5101112765953E+02
(PID.TID 0000.0001) %MON exf_atemp_mean               =   2.6468499484741E+02
(PID.TID 0000.0001) %MON exf_atemp_sd                 =   9.4989407989185E+00
(PID.TID 0000.0001) %MON exf_atemp_del2               =   4.4721497673665E+00
(PID.TID 0000.0001) %MON exf_aqh_max                  =   4.9631067404086E-03
(PID.TID 0000.0001) %MON exf_aqh_min                  =   8.9372847040942E-04
(PID.TID 0000.0001) %MON exf_aqh_mean                 =   2.4676404033270E-03
(PID.TID 0000.0001) %MON exf_aqh_sd                   =   1.2816313122703E-03
(PID.TID 0000.0001) %MON exf_aqh_del2                 =   6.0172866595941E-04
(PID.TID 0000.0001) %MON exf_lwflux_max               =   1.3448431322727E+02
(PID.TID 0000.0001) %MON exf_lwflux_min               =   4.4283155418075E+01
(PID.TID 0000.0001) %MON exf_lwflux_mean              =   8.5118211444618E+01
(PID.TID 0000.0001) %MON exf_lwflux_sd                =   3.4365070743920E+01
(PID.TID 0000.0001) %MON exf_lwflux_del2              =   1.8006817264784E+01
(PID.TID 0000.0001) %MON exf_evap_max                 =   2.7572044162143E-08
(PID.TID 0000.0001) %MON exf_evap_min                 =  -1.6493115978632E-09
(PID.TID 0000.0001) %MON exf_evap_mean                =   1.0965402799871E-08
(PID.TID 0000.0001) %MON exf_evap_sd                  =   8.4878714403905E-09
(PID.TID 0000.0001) %MON exf_evap_del2                =   3.8902474309239E-09
(PID.TID 0000.0001) %MON exf_precip_max               =   5.9498460337099E-08
(PID.TID 0000.0001) %MON exf_precip_min               =   7.5018961194897E-09
(PID.TID 0000.0001) %MON exf_precip_mean              =   3.2037883296831E-08
(PID.TID 0000.0001) %MON exf_precip_sd                =   1.5080499849368E-08
(PID.TID 0000.0001) %MON exf_precip_del2              =   6.8532700849896E-09
(PID.TID 0000.0001) %MON exf_swflux_max               =  -2.6155839663646E+01
(PID.TID 0000.0001) %MON exf_swflux_min               =  -4.3085196097952E+01
(PID.TID 0000.0001) %MON exf_swflux_mean              =  -3.3990532156621E+01
(PID.TID 0000.0001) %MON exf_swflux_sd                =   5.3553284830339E+00
(PID.TID 0000.0001) %MON exf_swflux_del2              =   3.0909436178235E+00
(PID.TID 0000.0001) %MON exf_swdown_max               =   4.7872440108836E+01
(PID.TID 0000.0001) %MON exf_swdown_min               =   2.9062044070718E+01
(PID.TID 0000.0001) %MON exf_swdown_mean              =   3.7767257951801E+01
(PID.TID 0000.0001) %MON exf_swdown_sd                =   5.9503649811487E+00
(PID.TID 0000.0001) %MON exf_swdown_del2              =   3.4343817975816E+00
(PID.TID 0000.0001) %MON exf_lwdown_max               =   2.8600321768672E+02
(PID.TID 0000.0001) %MON exf_lwdown_min               =   1.7400586304378E+02
(PID.TID 0000.0001) %MON exf_lwdown_mean              =   2.2897080402310E+02
(PID.TID 0000.0001) %MON exf_lwdown_sd                =   3.6582950086733E+01
(PID.TID 0000.0001) %MON exf_lwdown_del2              =   2.5135483095814E+01
(PID.TID 0000.0001) %MON exf_climsss_max              =   3.4649732662680E+01
(PID.TID 0000.0001) %MON exf_climsss_min              =   2.5633690860102E+01
(PID.TID 0000.0001) %MON exf_climsss_mean             =   3.1809148227269E+01
(PID.TID 0000.0001) %MON exf_climsss_sd               =   2.3421186631058E+00
(PID.TID 0000.0001) %MON exf_climsss_del2             =   9.6911334031996E-01
(PID.TID 0000.0001) // =======================================================
(PID.TID 0000.0001) // End MONITOR EXF statistics
(PID.TID 0000.0001) // =======================================================
(PID.TID 0000.0001)  MDS_READ_SEC_XZ: opening global file: OBNu.seaice_obcs
(PID.TID 0000.0001)  MDS_READ_SEC_XZ: opening global file: OBNv.seaice_obcs
(PID.TID 0000.0001)  MDS_READ_SEC_XZ: opening global file: OBNt.seaice_obcs
(PID.TID 0000.0001)  MDS_READ_SEC_XZ: opening global file: OBNs.seaice_obcs
(PID.TID 0000.0001)  MDS_READ_SEC_XZ: opening global file: OBNa.seaice_obcs
(PID.TID 0000.0001)  MDS_READ_SEC_XZ: opening global file: OBNh.seaice_obcs
(PID.TID 0000.0001)  MDS_READ_SEC_XZ: opening global file: OBNsl.seaice_obcs
(PID.TID 0000.0001)  MDS_READ_SEC_XZ: opening global file: OBNsn.seaice_obcs
(PID.TID 0000.0001)  MDS_READ_SEC_XZ: opening global file: OBNuice.seaice_obcs
(PID.TID 0000.0001)  MDS_READ_SEC_XZ: opening global file: OBNvice.seaice_obcs
(PID.TID 0000.0001)  MDS_READ_SEC_XZ: opening global file: OBSu.seaice_obcs
(PID.TID 0000.0001)  MDS_READ_SEC_XZ: opening global file: OBSv.seaice_obcs
(PID.TID 0000.0001)  MDS_READ_SEC_XZ: opening global file: OBSt.seaice_obcs
(PID.TID 0000.0001)  MDS_READ_SEC_XZ: opening global file: OBSs.seaice_obcs
(PID.TID 0000.0001)  MDS_READ_SEC_XZ: opening global file: OBSa.seaice_obcs
(PID.TID 0000.0001)  MDS_READ_SEC_XZ: opening global file: OBSh.seaice_obcs
(PID.TID 0000.0001)  MDS_READ_SEC_XZ: opening global file: OBSsl.seaice_obcs
(PID.TID 0000.0001)  MDS_READ_SEC_XZ: opening global file: OBSsn.seaice_obcs
(PID.TID 0000.0001)  MDS_READ_SEC_XZ: opening global file: OBSuice.seaice_obcs
(PID.TID 0000.0001)  MDS_READ_SEC_XZ: opening global file: OBSvice.seaice_obcs
(PID.TID 0000.0001)  MDS_READ_SEC_YZ: opening global file: OBEu.seaice_obcs
(PID.TID 0000.0001)  MDS_READ_SEC_YZ: opening global file: OBEv.seaice_obcs
(PID.TID 0000.0001)  MDS_READ_SEC_YZ: opening global file: OBEt.seaice_obcs
(PID.TID 0000.0001)  MDS_READ_SEC_YZ: opening global file: OBEs.seaice_obcs
(PID.TID 0000.0001)  MDS_READ_SEC_YZ: opening global file: OBEa.seaice_obcs
(PID.TID 0000.0001)  MDS_READ_SEC_YZ: opening global file: OBEh.seaice_obcs
(PID.TID 0000.0001)  MDS_READ_SEC_YZ: opening global file: OBEsl.seaice_obcs
(PID.TID 0000.0001)  MDS_READ_SEC_YZ: opening global file: OBEsn.seaice_obcs
(PID.TID 0000.0001)  MDS_READ_SEC_YZ: opening global file: OBEuice.seaice_obcs
(PID.TID 0000.0001)  MDS_READ_SEC_YZ: opening global file: OBEvice.seaice_obcs
(PID.TID 0000.0001)  MDS_READ_SEC_YZ: opening global file: OBWu.seaice_obcs
(PID.TID 0000.0001)  MDS_READ_SEC_YZ: opening global file: OBWv.seaice_obcs
(PID.TID 0000.0001)  MDS_READ_SEC_YZ: opening global file: OBWt.seaice_obcs
(PID.TID 0000.0001)  MDS_READ_SEC_YZ: opening global file: OBWs.seaice_obcs
(PID.TID 0000.0001)  MDS_READ_SEC_YZ: opening global file: OBWa.seaice_obcs
(PID.TID 0000.0001)  MDS_READ_SEC_YZ: opening global file: OBWh.seaice_obcs
(PID.TID 0000.0001)  MDS_READ_SEC_YZ: opening global file: OBWsl.seaice_obcs
(PID.TID 0000.0001)  MDS_READ_SEC_YZ: opening global file: OBWsn.seaice_obcs
(PID.TID 0000.0001)  MDS_READ_SEC_YZ: opening global file: OBWuice.seaice_obcs
(PID.TID 0000.0001)  MDS_READ_SEC_YZ: opening global file: OBWvice.seaice_obcs
 SEAICE_LSR: Residual Initial ipass,Uice,Vice=    1  9.40901759E-03  6.34021811E-03
 SEAICE_LSR: Residual FrDrift U_fd,V_fd=  2.55967839E-02  5.97329755E-03
 SEAICE_LSR (ipass=   1) iters,dU,Resid=    32  5.62116326E-13  9.78942254E-14
 SEAICE_LSR (ipass=   1) iters,dV,Resid=    18  8.02198585E-13  7.95015082E-14
 SEAICE_LSR: Residual Initial ipass,Uice,Vice=    2  4.84658414E-03  3.76027436E-03
 SEAICE_LSR: Residual FrDrift U_fd,V_fd=  2.19000685E-02  6.21209507E-03
 SEAICE_LSR (ipass=   2) iters,dU,Resid=    26  9.24624960E-13  1.48240554E-13
 SEAICE_LSR (ipass=   2) iters,dV,Resid=    18  6.49501286E-13  5.70854086E-14
 cg2d: Sum(rhs),rhsMax =   1.57056203318822E+00  4.15927343396454E-01
(PID.TID 0000.0001)      cg2d_init_res =   1.20910784766939E+00
(PID.TID 0000.0001)      cg2d_iters(min,last) =      -1      25
(PID.TID 0000.0001)      cg2d_last_res =   2.02502949303121E-13
(PID.TID 0000.0001) // =======================================================
(PID.TID 0000.0001) // Begin MONITOR dynamic field statistics
(PID.TID 0000.0001) // =======================================================
(PID.TID 0000.0001) %MON time_tsnumber                =                     3
(PID.TID 0000.0001) %MON time_secondsf                =   1.0800000000000E+04
(PID.TID 0000.0001) %MON dynstat_eta_max              =   6.7522432244279E-02
(PID.TID 0000.0001) %MON dynstat_eta_min              =  -1.0774247437791E-01
(PID.TID 0000.0001) %MON dynstat_eta_mean             =  -3.6930482978912E-02
(PID.TID 0000.0001) %MON dynstat_eta_sd               =   4.2656823509990E-02
(PID.TID 0000.0001) %MON dynstat_eta_del2             =   4.4919444340568E-03
(PID.TID 0000.0001) %MON dynstat_uvel_max             =   3.6580259431862E-02
(PID.TID 0000.0001) %MON dynstat_uvel_min             =  -4.8040790516547E-02
(PID.TID 0000.0001) %MON dynstat_uvel_mean            =  -1.8309116164659E-05
(PID.TID 0000.0001) %MON dynstat_uvel_sd              =   3.8351394043675E-03
(PID.TID 0000.0001) %MON dynstat_uvel_del2            =   4.2965196694702E-04
(PID.TID 0000.0001) %MON dynstat_vvel_max             =   2.9714821639990E-02
(PID.TID 0000.0001) %MON dynstat_vvel_min             =  -6.0860774681104E-02
(PID.TID 0000.0001) %MON dynstat_vvel_mean            =  -4.2984115572932E-04
(PID.TID 0000.0001) %MON dynstat_vvel_sd              =   5.3079883833119E-03
(PID.TID 0000.0001) %MON dynstat_vvel_del2            =   4.4157476119621E-04
(PID.TID 0000.0001) %MON dynstat_wvel_max             =   1.4565991580976E-05
(PID.TID 0000.0001) %MON dynstat_wvel_min             =  -2.9103141233667E-05
(PID.TID 0000.0001) %MON dynstat_wvel_mean            =  -5.7980287909503E-07
(PID.TID 0000.0001) %MON dynstat_wvel_sd              =   8.1603053466956E-06
(PID.TID 0000.0001) %MON dynstat_wvel_del2            =   5.0292034555801E-07
(PID.TID 0000.0001) %MON dynstat_theta_max            =   6.0144434977764E+00
(PID.TID 0000.0001) %MON dynstat_theta_min            =  -1.8177876991846E+00
(PID.TID 0000.0001) %MON dynstat_theta_mean           =   3.1872769625058E+00
(PID.TID 0000.0001) %MON dynstat_theta_sd             =   7.9846271450171E-01
(PID.TID 0000.0001) %MON dynstat_theta_del2           =   4.3179637398006E-02
(PID.TID 0000.0001) %MON dynstat_salt_max             =   3.4939862999977E+01
(PID.TID 0000.0001) %MON dynstat_salt_min             =   3.2482244238146E+01
(PID.TID 0000.0001) %MON dynstat_salt_mean            =   3.4812204734649E+01
(PID.TID 0000.0001) %MON dynstat_salt_sd              =   3.1543942855022E-01
(PID.TID 0000.0001) %MON dynstat_salt_del2            =   9.5428724773183E-03
(PID.TID 0000.0001) %MON forcing_qnet_max             =   4.6504004697137E+02
(PID.TID 0000.0001) %MON forcing_qnet_min             =   1.4610480027101E+00
(PID.TID 0000.0001) %MON forcing_qnet_mean            =   9.3889457888372E+01
(PID.TID 0000.0001) %MON forcing_qnet_sd              =   1.1860541519159E+02
(PID.TID 0000.0001) %MON forcing_qnet_del2            =   4.9579506048410E+01
(PID.TID 0000.0001) %MON forcing_qsw_max              =  -5.2191682725318E-02
(PID.TID 0000.0001) %MON forcing_qsw_min              =  -4.3085196097952E+01
(PID.TID 0000.0001) %MON forcing_qsw_mean             =  -2.3974067905300E+01
(PID.TID 0000.0001) %MON forcing_qsw_sd               =   1.5465190702357E+01
(PID.TID 0000.0001) %MON forcing_qsw_del2             =   2.4614516136282E+00
(PID.TID 0000.0001) %MON forcing_empmr_max            =   5.4965375414650E-04
(PID.TID 0000.0001) %MON forcing_empmr_min            =  -5.5667015815791E-04
(PID.TID 0000.0001) %MON forcing_empmr_mean           =  -5.9009594917546E-06
(PID.TID 0000.0001) %MON forcing_empmr_sd             =   1.7912495343321E-04
(PID.TID 0000.0001) %MON forcing_empmr_del2           =   8.5411961165942E-05
(PID.TID 0000.0001) %MON forcing_fu_max               =   3.9030112823448E-02
(PID.TID 0000.0001) %MON forcing_fu_min               =   4.7306609114836E-03
(PID.TID 0000.0001) %MON forcing_fu_mean              =   2.0923860734195E-02
(PID.TID 0000.0001) %MON forcing_fu_sd                =   9.5094688548889E-03
(PID.TID 0000.0001) %MON forcing_fu_del2              =   3.8070995269393E-03
(PID.TID 0000.0001) %MON forcing_fv_max               =   6.1616004481272E-04
(PID.TID 0000.0001) %MON forcing_fv_min               =  -2.7685267916423E-02
(PID.TID 0000.0001) %MON forcing_fv_mean              =  -6.0310833888361E-03
(PID.TID 0000.0001) %MON forcing_fv_sd                =   8.0775316257328E-03
(PID.TID 0000.0001) %MON forcing_fv_del2              =   8.0530304380683E-04
(PID.TID 0000.0001) %MON trAdv_CFL_u_max              =   1.3559023873424E-03
(PID.TID 0000.0001) %MON trAdv_CFL_v_max              =   1.0079198806973E-03
(PID.TID 0000.0001) %MON trAdv_CFL_w_max              =   3.4268303348680E-03
(PID.TID 0000.0001) %MON advcfl_uvel_max              =   1.3558335498097E-03
(PID.TID 0000.0001) %MON advcfl_vvel_max              =   9.8520137322604E-04
(PID.TID 0000.0001) %MON advcfl_wvel_max              =   6.9118064470231E-03
(PID.TID 0000.0001) %MON advcfl_W_hf_max              =   3.4268303348680E-03
(PID.TID 0000.0001) %MON pe_b_mean                    =   9.1505188005506E-06
(PID.TID 0000.0001) %MON ke_max                       =   1.8836803220171E-03
(PID.TID 0000.0001) %MON ke_mean                      =   1.7378389622228E-05
(PID.TID 0000.0001) %MON ke_vol                       =   2.0812333426156E+15
(PID.TID 0000.0001) %MON vort_r_min                   =  -5.8213434536498E-07
(PID.TID 0000.0001) %MON vort_r_max                   =   3.1416611666278E-07
(PID.TID 0000.0001) %MON vort_a_mean                  =   1.1459534636395E-04
(PID.TID 0000.0001) %MON vort_a_sd                    =   5.2710324446376E-06
(PID.TID 0000.0001) %MON vort_p_mean                  =   1.7066162110226E-04
(PID.TID 0000.0001) %MON vort_p_sd                    =   1.1051373780347E-04
(PID.TID 0000.0001) %MON surfExpan_theta_mean         =  -2.8942270146207E-06
(PID.TID 0000.0001) %MON surfExpan_salt_mean          =  -2.3349134130011E-05
(PID.TID 0000.0001) // =======================================================
(PID.TID 0000.0001) // End MONITOR dynamic field statistics
(PID.TID 0000.0001) // =======================================================
(PID.TID 0000.0001) // =======================================================
(PID.TID 0000.0001) // Begin OBCS MONITOR field statistics
(PID.TID 0000.0001) // =======================================================
(PID.TID 0000.0001) %MON obc_E_uVel_max               =   1.5771539881825E-02
(PID.TID 0000.0001) %MON obc_E_uVel_min               =  -1.4828299172223E-02
(PID.TID 0000.0001) %MON obc_E_uVel_mean              =  -2.6682150968501E-04
(PID.TID 0000.0001) %MON obc_E_uVel_sd                =   3.1236111196742E-03
(PID.TID 0000.0001) %MON obc_E_uVel_Int               =  -5.5095701051115E+05
(PID.TID 0000.0001) %MON obc_W_uVel_max               =   6.8001798354089E-03
(PID.TID 0000.0001) %MON obc_W_uVel_min               =  -1.8022853881121E-02
(PID.TID 0000.0001) %MON obc_W_uVel_mean              =  -2.1494028876007E-04
(PID.TID 0000.0001) %MON obc_W_uVel_sd                =   4.0736009807059E-03
(PID.TID 0000.0001) %MON obc_W_uVel_Int               =  -2.4856280427302E+04
(PID.TID 0000.0001) %MON obc_N_vVel_max               =   1.3537532649934E-02
(PID.TID 0000.0001) %MON obc_N_vVel_min               =  -3.1327553093433E-02
(PID.TID 0000.0001) %MON obc_N_vVel_mean              =   4.2621446618025E-04
(PID.TID 0000.0001) %MON obc_N_vVel_sd                =   7.9827300057633E-03
(PID.TID 0000.0001) %MON obc_N_vVel_Int               =   5.5923605836080E+04
(PID.TID 0000.0001) %MON obc_S_vVel_max               =   1.2111861724406E-03
(PID.TID 0000.0001) %MON obc_S_vVel_min               =  -4.7052156180143E-02
(PID.TID 0000.0001) %MON obc_S_vVel_mean              =  -1.4929542784743E-03
(PID.TID 0000.0001) %MON obc_S_vVel_sd                =   5.2190380977078E-03
(PID.TID 0000.0001) %MON obc_S_vVel_Int               =  -1.2985446483326E+06
(PID.TID 0000.0001) // =======================================================
(PID.TID 0000.0001) // End OBCS MONITOR field statistics
(PID.TID 0000.0001) // =======================================================
(PID.TID 0000.0001) // =======================================================
(PID.TID 0000.0001) // Begin MONITOR SEAICE statistics
(PID.TID 0000.0001) // =======================================================
(PID.TID 0000.0001) %MON seaice_tsnumber              =                     3
(PID.TID 0000.0001) %MON seaice_time_sec              =   1.0800000000000E+04
(PID.TID 0000.0001) %MON seaice_uice_max              =   1.3094302229160E-01
(PID.TID 0000.0001) %MON seaice_uice_min              =  -6.9543756544590E-02
(PID.TID 0000.0001) %MON seaice_uice_mean             =   5.1807438924912E-02
(PID.TID 0000.0001) %MON seaice_uice_sd               =   4.4600426756422E-02
(PID.TID 0000.0001) %MON seaice_uice_del2             =   1.2958264201247E-02
(PID.TID 0000.0001) %MON seaice_vice_max              =   2.5067459468348E-02
(PID.TID 0000.0001) %MON seaice_vice_min              =  -1.1174201220274E-01
(PID.TID 0000.0001) %MON seaice_vice_mean             =  -4.1480021300594E-02
(PID.TID 0000.0001) %MON seaice_vice_sd               =   3.8367677069913E-02
(PID.TID 0000.0001) %MON seaice_vice_del2             =   3.6404519391740E-03
(PID.TID 0000.0001) %MON seaice_area_max              =   9.9636216574960E-01
(PID.TID 0000.0001) %MON seaice_area_min              =   0.0000000000000E+00
(PID.TID 0000.0001) %MON seaice_area_mean             =   3.2563353570491E-01
(PID.TID 0000.0001) %MON seaice_area_sd               =   4.0256649407137E-01
(PID.TID 0000.0001) %MON seaice_area_del2             =   6.9788359457539E-02
(PID.TID 0000.0001) %MON seaice_heff_max              =   4.4388515898507E-01
(PID.TID 0000.0001) %MON seaice_heff_min              =   0.0000000000000E+00
(PID.TID 0000.0001) %MON seaice_heff_mean             =   7.8329499553382E-02
(PID.TID 0000.0001) %MON seaice_heff_sd               =   1.1838484172272E-01
(PID.TID 0000.0001) %MON seaice_heff_del2             =   1.3472853046049E-02
(PID.TID 0000.0001) %MON seaice_hsnow_max             =   8.1519022504381E-02
(PID.TID 0000.0001) %MON seaice_hsnow_min             =   0.0000000000000E+00
(PID.TID 0000.0001) %MON seaice_hsnow_mean            =   1.7089163750506E-02
(PID.TID 0000.0001) %MON seaice_hsnow_sd              =   2.4659501632780E-02
(PID.TID 0000.0001) %MON seaice_hsnow_del2            =   4.2353834128034E-03
(PID.TID 0000.0001) %MON seaice_hsalt_max             =   3.9654977831678E+01
(PID.TID 0000.0001) %MON seaice_hsalt_min             =   0.0000000000000E+00
(PID.TID 0000.0001) %MON seaice_hsalt_mean            =   3.6311762691501E+00
(PID.TID 0000.0001) %MON seaice_hsalt_sd              =   7.9355935493926E+00
(PID.TID 0000.0001) %MON seaice_hsalt_del2            =   3.7915872342260E+00
(PID.TID 0000.0001) // =======================================================
(PID.TID 0000.0001) // End MONITOR SEAICE statistics
(PID.TID 0000.0001) // =======================================================
(PID.TID 0000.0001) // =======================================================
(PID.TID 0000.0001) // Begin MONITOR EXF statistics
(PID.TID 0000.0001) // =======================================================
(PID.TID 0000.0001) %MON exf_tsnumber                 =                     3
(PID.TID 0000.0001) %MON exf_time_sec                 =   1.0800000000000E+04
(PID.TID 0000.0001) %MON exf_ustress_max              =   3.4467790682232E-02
(PID.TID 0000.0001) %MON exf_ustress_min              =   3.8392634714918E-03
(PID.TID 0000.0001) %MON exf_ustress_mean             =   1.8060020714423E-02
(PID.TID 0000.0001) %MON exf_ustress_sd               =   9.7353114193693E-03
(PID.TID 0000.0001) %MON exf_ustress_del2             =   3.7595323682378E-03
(PID.TID 0000.0001) %MON exf_vstress_max              =   6.9047367086817E-03
(PID.TID 0000.0001) %MON exf_vstress_min              =  -1.4731165990989E-02
(PID.TID 0000.0001) %MON exf_vstress_mean             =  -1.4589652804776E-03
(PID.TID 0000.0001) %MON exf_vstress_sd               =   5.4663183603407E-03
(PID.TID 0000.0001) %MON exf_vstress_del2             =   2.5617992023368E-03
(PID.TID 0000.0001) %MON exf_hflux_max                =   3.0325004471418E+02
(PID.TID 0000.0001) %MON exf_hflux_min                =   1.5967607859238E+00
(PID.TID 0000.0001) %MON exf_hflux_mean               =   1.3241478949052E+02
(PID.TID 0000.0001) %MON exf_hflux_sd                 =   1.0762014826477E+02
(PID.TID 0000.0001) %MON exf_hflux_del2               =   5.2135772544519E+01
(PID.TID 0000.0001) %MON exf_sflux_max                =   8.8222268930760E-09
(PID.TID 0000.0001) %MON exf_sflux_min                =  -5.9089194479940E-08
(PID.TID 0000.0001) %MON exf_sflux_mean               =  -2.1070364709696E-08
(PID.TID 0000.0001) %MON exf_sflux_sd                 =   2.1986613963921E-08
(PID.TID 0000.0001) %MON exf_sflux_del2               =   1.0224140617365E-08
(PID.TID 0000.0001) %MON exf_uwind_max                =   5.3590723471563E+00
(PID.TID 0000.0001) %MON exf_uwind_min                =   6.3920666668259E-01
(PID.TID 0000.0001) %MON exf_uwind_mean               =   3.0578795193580E+00
(PID.TID 0000.0001) %MON exf_uwind_sd                 =   1.4717641307970E+00
(PID.TID 0000.0001) %MON exf_uwind_del2               =   6.1021516169814E-01
(PID.TID 0000.0001) %MON exf_vwind_max                =   1.1542525704278E+00
(PID.TID 0000.0001) %MON exf_vwind_min                =  -2.2619176460583E+00
(PID.TID 0000.0001) %MON exf_vwind_mean               =  -2.6167517683765E-01
(PID.TID 0000.0001) %MON exf_vwind_sd                 =   8.9434199273265E-01
(PID.TID 0000.0001) %MON exf_vwind_del2               =   4.2132323784870E-01
(PID.TID 0000.0001) %MON exf_wspeed_max               =   5.3945438213498E+00
(PID.TID 0000.0001) %MON exf_wspeed_min               =   1.2179743674897E+00
(PID.TID 0000.0001) %MON exf_wspeed_mean              =   3.2196594534197E+00
(PID.TID 0000.0001) %MON exf_wspeed_sd                =   1.4208558384837E+00
(PID.TID 0000.0001) %MON exf_wspeed_del2              =   6.6444463630153E-01
(PID.TID 0000.0001) %MON exf_atemp_max                =   2.7814265254286E+02
(PID.TID 0000.0001) %MON exf_atemp_min                =   2.5100196675785E+02
(PID.TID 0000.0001) %MON exf_atemp_mean               =   2.6468044515586E+02
(PID.TID 0000.0001) %MON exf_atemp_sd                 =   9.5013224631643E+00
(PID.TID 0000.0001) %MON exf_atemp_del2               =   4.4737792582742E+00
(PID.TID 0000.0001) %MON exf_aqh_max                  =   4.9607253644890E-03
(PID.TID 0000.0001) %MON exf_aqh_min                  =   8.9308682430276E-04
(PID.TID 0000.0001) %MON exf_aqh_mean                 =   2.4669735891982E-03
(PID.TID 0000.0001) %MON exf_aqh_sd                   =   1.2814990509225E-03
(PID.TID 0000.0001) %MON exf_aqh_del2                 =   6.0177087695386E-04
(PID.TID 0000.0001) %MON exf_lwflux_max               =   1.3432628062024E+02
(PID.TID 0000.0001) %MON exf_lwflux_min               =   4.4294148796904E+01
(PID.TID 0000.0001) %MON exf_lwflux_mean              =   8.5119695346982E+01
(PID.TID 0000.0001) %MON exf_lwflux_sd                =   3.4349527804282E+01
(PID.TID 0000.0001) %MON exf_lwflux_del2              =   1.7995326298383E+01
(PID.TID 0000.0001) %MON exf_evap_max                 =   2.7591197810011E-08
(PID.TID 0000.0001) %MON exf_evap_min                 =  -1.6403739864428E-09
(PID.TID 0000.0001) %MON exf_evap_mean                =   1.0962784193850E-08
(PID.TID 0000.0001) %MON exf_evap_sd                  =   8.4819973002100E-09
(PID.TID 0000.0001) %MON exf_evap_del2                =   3.8862402621437E-09
(PID.TID 0000.0001) %MON exf_precip_max               =   5.9491621785516E-08
(PID.TID 0000.0001) %MON exf_precip_min               =   7.4893457774248E-09
(PID.TID 0000.0001) %MON exf_precip_mean              =   3.2033148903546E-08
(PID.TID 0000.0001) %MON exf_precip_sd                =   1.5086968075920E-08
(PID.TID 0000.0001) %MON exf_precip_del2              =   6.8569642463325E-09
(PID.TID 0000.0001) %MON exf_swflux_max               =  -2.6125989863130E+01
(PID.TID 0000.0001) %MON exf_swflux_min               =  -4.3040093684587E+01
(PID.TID 0000.0001) %MON exf_swflux_mean              =  -3.3953115408683E+01
(PID.TID 0000.0001) %MON exf_swflux_sd                =   5.3529725421105E+00
(PID.TID 0000.0001) %MON exf_swflux_del2              =   3.0872339958363E+00
(PID.TID 0000.0001) %MON exf_swdown_max               =   4.7822326316208E+01
(PID.TID 0000.0001) %MON exf_swdown_min               =   2.9028877625700E+01
(PID.TID 0000.0001) %MON exf_swdown_mean              =   3.7725683787426E+01
(PID.TID 0000.0001) %MON exf_swdown_sd                =   5.9477472690116E+00
(PID.TID 0000.0001) %MON exf_swdown_del2              =   3.4302599953736E+00
(PID.TID 0000.0001) %MON exf_lwdown_max               =   2.8596272753106E+02
(PID.TID 0000.0001) %MON exf_lwdown_min               =   1.7395920731591E+02
(PID.TID 0000.0001) %MON exf_lwdown_mean              =   2.2894863557051E+02
(PID.TID 0000.0001) %MON exf_lwdown_sd                =   3.6583823164761E+01
(PID.TID 0000.0001) %MON exf_lwdown_del2              =   2.5135205425235E+01
(PID.TID 0000.0001) %MON exf_climsss_max              =   3.4650277247194E+01
(PID.TID 0000.0001) %MON exf_climsss_min              =   2.5637504139885E+01
(PID.TID 0000.0001) %MON exf_climsss_mean             =   3.1810441924655E+01
(PID.TID 0000.0001) %MON exf_climsss_sd               =   2.3420589096563E+00
(PID.TID 0000.0001) %MON exf_climsss_del2             =   9.6929652021692E-01
(PID.TID 0000.0001) // =======================================================
(PID.TID 0000.0001) // End MONITOR EXF statistics
(PID.TID 0000.0001) // =======================================================
(PID.TID 0000.0001)  MDS_READ_SEC_XZ: opening global file: OBNu.seaice_obcs
(PID.TID 0000.0001)  MDS_READ_SEC_XZ: opening global file: OBNv.seaice_obcs
(PID.TID 0000.0001)  MDS_READ_SEC_XZ: opening global file: OBNt.seaice_obcs
(PID.TID 0000.0001)  MDS_READ_SEC_XZ: opening global file: OBNs.seaice_obcs
(PID.TID 0000.0001)  MDS_READ_SEC_XZ: opening global file: OBNa.seaice_obcs
(PID.TID 0000.0001)  MDS_READ_SEC_XZ: opening global file: OBNh.seaice_obcs
(PID.TID 0000.0001)  MDS_READ_SEC_XZ: opening global file: OBNsl.seaice_obcs
(PID.TID 0000.0001)  MDS_READ_SEC_XZ: opening global file: OBNsn.seaice_obcs
(PID.TID 0000.0001)  MDS_READ_SEC_XZ: opening global file: OBNuice.seaice_obcs
(PID.TID 0000.0001)  MDS_READ_SEC_XZ: opening global file: OBNvice.seaice_obcs
(PID.TID 0000.0001)  MDS_READ_SEC_XZ: opening global file: OBSu.seaice_obcs
(PID.TID 0000.0001)  MDS_READ_SEC_XZ: opening global file: OBSv.seaice_obcs
(PID.TID 0000.0001)  MDS_READ_SEC_XZ: opening global file: OBSt.seaice_obcs
(PID.TID 0000.0001)  MDS_READ_SEC_XZ: opening global file: OBSs.seaice_obcs
(PID.TID 0000.0001)  MDS_READ_SEC_XZ: opening global file: OBSa.seaice_obcs
(PID.TID 0000.0001)  MDS_READ_SEC_XZ: opening global file: OBSh.seaice_obcs
(PID.TID 0000.0001)  MDS_READ_SEC_XZ: opening global file: OBSsl.seaice_obcs
(PID.TID 0000.0001)  MDS_READ_SEC_XZ: opening global file: OBSsn.seaice_obcs
(PID.TID 0000.0001)  MDS_READ_SEC_XZ: opening global file: OBSuice.seaice_obcs
(PID.TID 0000.0001)  MDS_READ_SEC_XZ: opening global file: OBSvice.seaice_obcs
(PID.TID 0000.0001)  MDS_READ_SEC_YZ: opening global file: OBEu.seaice_obcs
(PID.TID 0000.0001)  MDS_READ_SEC_YZ: opening global file: OBEv.seaice_obcs
(PID.TID 0000.0001)  MDS_READ_SEC_YZ: opening global file: OBEt.seaice_obcs
(PID.TID 0000.0001)  MDS_READ_SEC_YZ: opening global file: OBEs.seaice_obcs
(PID.TID 0000.0001)  MDS_READ_SEC_YZ: opening global file: OBEa.seaice_obcs
(PID.TID 0000.0001)  MDS_READ_SEC_YZ: opening global file: OBEh.seaice_obcs
(PID.TID 0000.0001)  MDS_READ_SEC_YZ: opening global file: OBEsl.seaice_obcs
(PID.TID 0000.0001)  MDS_READ_SEC_YZ: opening global file: OBEsn.seaice_obcs
(PID.TID 0000.0001)  MDS_READ_SEC_YZ: opening global file: OBEuice.seaice_obcs
(PID.TID 0000.0001)  MDS_READ_SEC_YZ: opening global file: OBEvice.seaice_obcs
(PID.TID 0000.0001)  MDS_READ_SEC_YZ: opening global file: OBWu.seaice_obcs
(PID.TID 0000.0001)  MDS_READ_SEC_YZ: opening global file: OBWv.seaice_obcs
(PID.TID 0000.0001)  MDS_READ_SEC_YZ: opening global file: OBWt.seaice_obcs
(PID.TID 0000.0001)  MDS_READ_SEC_YZ: opening global file: OBWs.seaice_obcs
(PID.TID 0000.0001)  MDS_READ_SEC_YZ: opening global file: OBWa.seaice_obcs
(PID.TID 0000.0001)  MDS_READ_SEC_YZ: opening global file: OBWh.seaice_obcs
(PID.TID 0000.0001)  MDS_READ_SEC_YZ: opening global file: OBWsl.seaice_obcs
(PID.TID 0000.0001)  MDS_READ_SEC_YZ: opening global file: OBWsn.seaice_obcs
(PID.TID 0000.0001)  MDS_READ_SEC_YZ: opening global file: OBWuice.seaice_obcs
(PID.TID 0000.0001)  MDS_READ_SEC_YZ: opening global file: OBWvice.seaice_obcs
 SEAICE_LSR: Residual Initial ipass,Uice,Vice=    1  5.44780877E-03  5.07016637E-03
 SEAICE_LSR: Residual FrDrift U_fd,V_fd=  1.66971668E-02  6.05225737E-03
 SEAICE_LSR (ipass=   1) iters,dU,Resid=    34  2.79679058E-13  4.19041742E-14
 SEAICE_LSR (ipass=   1) iters,dV,Resid=    18  9.04762376E-13  7.63482085E-14
 SEAICE_LSR: Residual Initial ipass,Uice,Vice=    2  3.19513528E-03  3.01017045E-03
 SEAICE_LSR: Residual FrDrift U_fd,V_fd=  1.70651486E-02  6.59675846E-03
 SEAICE_LSR (ipass=   2) iters,dU,Resid=    34  5.21520327E-13  7.83775495E-14
 SEAICE_LSR (ipass=   2) iters,dV,Resid=    18  4.23230895E-13  4.05009004E-14
 cg2d: Sum(rhs),rhsMax =   1.60446575659979E+00  4.57779689751104E-01
(PID.TID 0000.0001)      cg2d_init_res =   2.18379874650951E-01
(PID.TID 0000.0001)      cg2d_iters(min,last) =      -1      23
(PID.TID 0000.0001)      cg2d_last_res =   4.27221170814565E-13
(PID.TID 0000.0001) // =======================================================
(PID.TID 0000.0001) // Begin MONITOR dynamic field statistics
(PID.TID 0000.0001) // =======================================================
(PID.TID 0000.0001) %MON time_tsnumber                =                     4
(PID.TID 0000.0001) %MON time_secondsf                =   1.4400000000000E+04
(PID.TID 0000.0001) %MON dynstat_eta_max              =   3.2110564950224E-02
(PID.TID 0000.0001) %MON dynstat_eta_min              =  -1.1871994624318E-01
(PID.TID 0000.0001) %MON dynstat_eta_mean             =  -4.1524020206469E-02
(PID.TID 0000.0001) %MON dynstat_eta_sd               =   4.4196441452671E-02
(PID.TID 0000.0001) %MON dynstat_eta_del2             =   4.8364543491647E-03
(PID.TID 0000.0001) %MON dynstat_uvel_max             =   3.7941306180872E-02
(PID.TID 0000.0001) %MON dynstat_uvel_min             =  -4.0312656173557E-02
(PID.TID 0000.0001) %MON dynstat_uvel_mean            =   1.2860148700787E-04
(PID.TID 0000.0001) %MON dynstat_uvel_sd              =   3.9725799967930E-03
(PID.TID 0000.0001) %MON dynstat_uvel_del2            =   4.9536687546977E-04
(PID.TID 0000.0001) %MON dynstat_vvel_max             =   2.4765269509446E-02
(PID.TID 0000.0001) %MON dynstat_vvel_min             =  -5.8500972138160E-02
(PID.TID 0000.0001) %MON dynstat_vvel_mean            =  -6.9635575790990E-04
(PID.TID 0000.0001) %MON dynstat_vvel_sd              =   4.8025185067973E-03
(PID.TID 0000.0001) %MON dynstat_vvel_del2            =   4.5706222029679E-04
(PID.TID 0000.0001) %MON dynstat_wvel_max             =   2.1038371936137E-05
(PID.TID 0000.0001) %MON dynstat_wvel_min             =  -4.6622302038104E-05
(PID.TID 0000.0001) %MON dynstat_wvel_mean            =  -1.7810094341414E-06
(PID.TID 0000.0001) %MON dynstat_wvel_sd              =   1.0932502721431E-05
(PID.TID 0000.0001) %MON dynstat_wvel_del2            =   7.2993007603402E-07
(PID.TID 0000.0001) %MON dynstat_theta_max            =   6.0139866770426E+00
(PID.TID 0000.0001) %MON dynstat_theta_min            =  -1.8179373453768E+00
(PID.TID 0000.0001) %MON dynstat_theta_mean           =   3.1872321055832E+00
(PID.TID 0000.0001) %MON dynstat_theta_sd             =   7.9852909123438E-01
(PID.TID 0000.0001) %MON dynstat_theta_del2           =   4.3134735676512E-02
(PID.TID 0000.0001) %MON dynstat_salt_max             =   3.4939862811077E+01
(PID.TID 0000.0001) %MON dynstat_salt_min             =   3.2481468022666E+01
(PID.TID 0000.0001) %MON dynstat_salt_mean            =   3.4812198155510E+01
(PID.TID 0000.0001) %MON dynstat_salt_sd              =   3.1545661251507E-01
(PID.TID 0000.0001) %MON dynstat_salt_del2            =   9.5305026714809E-03
(PID.TID 0000.0001) %MON forcing_qnet_max             =   4.6473717941796E+02
(PID.TID 0000.0001) %MON forcing_qnet_min             =   1.5967607859238E+00
(PID.TID 0000.0001) %MON forcing_qnet_mean            =   9.3773187311718E+01
(PID.TID 0000.0001) %MON forcing_qnet_sd              =   1.1852720588361E+02
(PID.TID 0000.0001) %MON forcing_qnet_del2            =   4.9506580352483E+01
(PID.TID 0000.0001) %MON forcing_qsw_max              =  -1.0135323478872E-01
(PID.TID 0000.0001) %MON forcing_qsw_min              =  -4.3040093684587E+01
(PID.TID 0000.0001) %MON forcing_qsw_mean             =  -2.4093100236897E+01
(PID.TID 0000.0001) %MON forcing_qsw_sd               =   1.5306798104947E+01
(PID.TID 0000.0001) %MON forcing_qsw_del2             =   2.4325199807375E+00
(PID.TID 0000.0001) %MON forcing_empmr_max            =   5.4209751339108E-04
(PID.TID 0000.0001) %MON forcing_empmr_min            =  -5.5721459952966E-04
(PID.TID 0000.0001) %MON forcing_empmr_mean           =  -5.0450135428743E-06
(PID.TID 0000.0001) %MON forcing_empmr_sd             =   1.7920644294515E-04
(PID.TID 0000.0001) %MON forcing_empmr_del2           =   8.4813802804243E-05
(PID.TID 0000.0001) %MON forcing_fu_max               =   3.6862717332192E-02
(PID.TID 0000.0001) %MON forcing_fu_min               =   4.2400972505436E-03
(PID.TID 0000.0001) %MON forcing_fu_mean              =   2.0538650833735E-02
(PID.TID 0000.0001) %MON forcing_fu_sd                =   9.5479931318390E-03
(PID.TID 0000.0001) %MON forcing_fu_del2              =   3.7107286831624E-03
(PID.TID 0000.0001) %MON forcing_fv_max               =   6.1214626728752E-04
(PID.TID 0000.0001) %MON forcing_fv_min               =  -2.7721993749135E-02
(PID.TID 0000.0001) %MON forcing_fv_mean              =  -5.7921588713682E-03
(PID.TID 0000.0001) %MON forcing_fv_sd                =   7.6395466374544E-03
(PID.TID 0000.0001) %MON forcing_fv_del2              =   7.6709402464495E-04
(PID.TID 0000.0001) %MON trAdv_CFL_u_max              =   1.1377836658831E-03
(PID.TID 0000.0001) %MON trAdv_CFL_v_max              =   9.6883901276526E-04
(PID.TID 0000.0001) %MON trAdv_CFL_w_max              =   3.0221125621599E-03
(PID.TID 0000.0001) %MON advcfl_uvel_max              =   1.1377259019754E-03
(PID.TID 0000.0001) %MON advcfl_vvel_max              =   9.4700138779975E-04
(PID.TID 0000.0001) %MON advcfl_wvel_max              =   7.0823734588134E-03
(PID.TID 0000.0001) %MON advcfl_W_hf_max              =   3.0221125621599E-03
(PID.TID 0000.0001) %MON pe_b_mean                    =   1.0570767655736E-05
(PID.TID 0000.0001) %MON ke_max                       =   1.6779031155900E-03
(PID.TID 0000.0001) %MON ke_mean                      =   1.5593898441253E-05
(PID.TID 0000.0001) %MON ke_vol                       =   2.0812333426156E+15
(PID.TID 0000.0001) %MON vort_r_min                   =  -5.9407399930778E-07
(PID.TID 0000.0001) %MON vort_r_max                   =   3.3983099352383E-07
(PID.TID 0000.0001) %MON vort_a_mean                  =   1.1459529858107E-04
(PID.TID 0000.0001) %MON vort_a_sd                    =   5.2713266256933E-06
(PID.TID 0000.0001) %MON vort_p_mean                  =   1.7066154994139E-04
(PID.TID 0000.0001) %MON vort_p_sd                    =   1.1051653154075E-04
(PID.TID 0000.0001) %MON surfExpan_theta_mean         =  -1.7542767001488E-06
(PID.TID 0000.0001) %MON surfExpan_salt_mean          =  -4.2975735461453E-05
(PID.TID 0000.0001) // =======================================================
(PID.TID 0000.0001) // End MONITOR dynamic field statistics
(PID.TID 0000.0001) // =======================================================
(PID.TID 0000.0001) // =======================================================
(PID.TID 0000.0001) // Begin OBCS MONITOR field statistics
(PID.TID 0000.0001) // =======================================================
(PID.TID 0000.0001) %MON obc_E_uVel_max               =   1.5055320225656E-02
(PID.TID 0000.0001) %MON obc_E_uVel_min               =  -2.1006641909480E-02
(PID.TID 0000.0001) %MON obc_E_uVel_mean              =  -2.1921387422590E-04
(PID.TID 0000.0001) %MON obc_E_uVel_sd                =   4.1936629969897E-03
(PID.TID 0000.0001) %MON obc_E_uVel_Int               =  -4.5265249023083E+05
(PID.TID 0000.0001) %MON obc_W_uVel_max               =   7.8391525894403E-03
(PID.TID 0000.0001) %MON obc_W_uVel_min               =  -2.1544605493546E-02
(PID.TID 0000.0001) %MON obc_W_uVel_mean              =  -1.0906891161889E-03
(PID.TID 0000.0001) %MON obc_W_uVel_sd                =   4.9947514808017E-03
(PID.TID 0000.0001) %MON obc_W_uVel_Int               =  -1.2613026011731E+05
(PID.TID 0000.0001) %MON obc_N_vVel_max               =   1.5023468062282E-02
(PID.TID 0000.0001) %MON obc_N_vVel_min               =  -3.2323099672794E-02
(PID.TID 0000.0001) %MON obc_N_vVel_mean              =   9.5606983554948E-04
(PID.TID 0000.0001) %MON obc_N_vVel_sd                =   8.2692207921070E-03
(PID.TID 0000.0001) %MON obc_N_vVel_Int               =   1.2544593597258E+05
(PID.TID 0000.0001) %MON obc_S_vVel_max               =   6.1266624834388E-04
(PID.TID 0000.0001) %MON obc_S_vVel_min               =  -4.8755627125502E-02
(PID.TID 0000.0001) %MON obc_S_vVel_mean              =  -2.0193710843611E-03
(PID.TID 0000.0001) %MON obc_S_vVel_sd                =   5.0054242958188E-03
(PID.TID 0000.0001) %MON obc_S_vVel_Int               =  -1.7564124718369E+06
(PID.TID 0000.0001) // =======================================================
(PID.TID 0000.0001) // End OBCS MONITOR field statistics
(PID.TID 0000.0001) // =======================================================
(PID.TID 0000.0001) // =======================================================
(PID.TID 0000.0001) // Begin MONITOR SEAICE statistics
(PID.TID 0000.0001) // =======================================================
(PID.TID 0000.0001) %MON seaice_tsnumber              =                     4
(PID.TID 0000.0001) %MON seaice_time_sec              =   1.4400000000000E+04
(PID.TID 0000.0001) %MON seaice_uice_max              =   1.3474714445083E-01
(PID.TID 0000.0001) %MON seaice_uice_min              =  -6.8224221467972E-02
(PID.TID 0000.0001) %MON seaice_uice_mean             =   5.3954161418037E-02
(PID.TID 0000.0001) %MON seaice_uice_sd               =   4.7045829095001E-02
(PID.TID 0000.0001) %MON seaice_uice_del2             =   1.4241474922737E-02
(PID.TID 0000.0001) %MON seaice_vice_max              =   1.8804143896112E-02
(PID.TID 0000.0001) %MON seaice_vice_min              =  -1.1341330409050E-01
(PID.TID 0000.0001) %MON seaice_vice_mean             =  -3.6155540926385E-02
(PID.TID 0000.0001) %MON seaice_vice_sd               =   3.4664153030964E-02
(PID.TID 0000.0001) %MON seaice_vice_del2             =   3.5903560756274E-03
(PID.TID 0000.0001) %MON seaice_area_max              =   9.9454429458705E-01
(PID.TID 0000.0001) %MON seaice_area_min              =   0.0000000000000E+00
(PID.TID 0000.0001) %MON seaice_area_mean             =   3.2158634935964E-01
(PID.TID 0000.0001) %MON seaice_area_sd               =   3.9849897574497E-01
(PID.TID 0000.0001) %MON seaice_area_del2             =   6.8879449775768E-02
(PID.TID 0000.0001) %MON seaice_heff_max              =   4.3683022766522E-01
(PID.TID 0000.0001) %MON seaice_heff_min              =   0.0000000000000E+00
(PID.TID 0000.0001) %MON seaice_heff_mean             =   7.8587872104779E-02
(PID.TID 0000.0001) %MON seaice_heff_sd               =   1.1907351625672E-01
(PID.TID 0000.0001) %MON seaice_heff_del2             =   1.3278838696816E-02
(PID.TID 0000.0001) %MON seaice_hsnow_max             =   8.1553881568427E-02
(PID.TID 0000.0001) %MON seaice_hsnow_min             =   0.0000000000000E+00
(PID.TID 0000.0001) %MON seaice_hsnow_mean            =   1.7185969284525E-02
(PID.TID 0000.0001) %MON seaice_hsnow_sd              =   2.4749680848123E-02
(PID.TID 0000.0001) %MON seaice_hsnow_del2            =   4.2532464614495E-03
(PID.TID 0000.0001) %MON seaice_hsalt_max             =   5.9046809661565E+01
(PID.TID 0000.0001) %MON seaice_hsalt_min             =   0.0000000000000E+00
(PID.TID 0000.0001) %MON seaice_hsalt_mean            =   5.4896962401686E+00
(PID.TID 0000.0001) %MON seaice_hsalt_sd              =   1.1907369975755E+01
(PID.TID 0000.0001) %MON seaice_hsalt_del2            =   5.6541088759091E+00
(PID.TID 0000.0001) // =======================================================
(PID.TID 0000.0001) // End MONITOR SEAICE statistics
(PID.TID 0000.0001) // =======================================================
(PID.TID 0000.0001) // =======================================================
(PID.TID 0000.0001) // Begin MONITOR EXF statistics
(PID.TID 0000.0001) // =======================================================
(PID.TID 0000.0001) %MON exf_tsnumber                 =                     4
(PID.TID 0000.0001) %MON exf_time_sec                 =   1.4400000000000E+04
(PID.TID 0000.0001) %MON exf_ustress_max              =   3.4425005537990E-02
(PID.TID 0000.0001) %MON exf_ustress_min              =   3.8410523080574E-03
(PID.TID 0000.0001) %MON exf_ustress_mean             =   1.8053399187224E-02
(PID.TID 0000.0001) %MON exf_ustress_sd               =   9.7269367211355E-03
(PID.TID 0000.0001) %MON exf_ustress_del2             =   3.7525088604672E-03
(PID.TID 0000.0001) %MON exf_vstress_max              =   6.9010354150621E-03
(PID.TID 0000.0001) %MON exf_vstress_min              =  -1.4766492240529E-02
(PID.TID 0000.0001) %MON exf_vstress_mean             =  -1.4666519053786E-03
(PID.TID 0000.0001) %MON exf_vstress_sd               =   5.4730170491698E-03
(PID.TID 0000.0001) %MON exf_vstress_del2             =   2.5645631360808E-03
(PID.TID 0000.0001) %MON exf_hflux_max                =   3.0276117602072E+02
(PID.TID 0000.0001) %MON exf_hflux_min                =   1.7331299566322E+00
(PID.TID 0000.0001) %MON exf_hflux_mean               =   1.3245936422308E+02
(PID.TID 0000.0001) %MON exf_hflux_sd                 =   1.0760307307948E+02
(PID.TID 0000.0001) %MON exf_hflux_del2               =   5.2117054368385E+01
(PID.TID 0000.0001) %MON exf_sflux_max                =   8.8437096210458E-09
(PID.TID 0000.0001) %MON exf_sflux_min                =  -5.9065464636600E-08
(PID.TID 0000.0001) %MON exf_sflux_mean               =  -2.1068424918859E-08
(PID.TID 0000.0001) %MON exf_sflux_sd                 =   2.1989188830842E-08
(PID.TID 0000.0001) %MON exf_sflux_del2               =   1.0225615860103E-08
(PID.TID 0000.0001) %MON exf_uwind_max                =   5.3565802039996E+00
(PID.TID 0000.0001) %MON exf_uwind_min                =   6.3948269212832E-01
(PID.TID 0000.0001) %MON exf_uwind_mean               =   3.0571431350855E+00
(PID.TID 0000.0001) %MON exf_uwind_sd                 =   1.4704346511650E+00
(PID.TID 0000.0001) %MON exf_uwind_del2               =   6.0929151542209E-01
(PID.TID 0000.0001) %MON exf_vwind_max                =   1.1535080923734E+00
(PID.TID 0000.0001) %MON exf_vwind_min                =  -2.2664960858926E+00
(PID.TID 0000.0001) %MON exf_vwind_mean               =  -2.6306177898313E-01
(PID.TID 0000.0001) %MON exf_vwind_sd                 =   8.9540655929560E-01
(PID.TID 0000.0001) %MON exf_vwind_del2               =   4.2181725841542E-01
(PID.TID 0000.0001) %MON exf_wspeed_max               =   5.3919271239551E+00
(PID.TID 0000.0001) %MON exf_wspeed_min               =   1.2181431239673E+00
(PID.TID 0000.0001) %MON exf_wspeed_mean              =   3.2192480735527E+00
(PID.TID 0000.0001) %MON exf_wspeed_sd                =   1.4197529569138E+00
(PID.TID 0000.0001) %MON exf_wspeed_del2              =   6.6370556836059E-01
(PID.TID 0000.0001) %MON exf_atemp_max                =   2.7813589736021E+02
(PID.TID 0000.0001) %MON exf_atemp_min                =   2.5099280585617E+02
(PID.TID 0000.0001) %MON exf_atemp_mean               =   2.6467589546430E+02
(PID.TID 0000.0001) %MON exf_atemp_sd                 =   9.5037053955692E+00
(PID.TID 0000.0001) %MON exf_atemp_del2               =   4.4754089344737E+00
(PID.TID 0000.0001) %MON exf_aqh_max                  =   4.9583439885695E-03
(PID.TID 0000.0001) %MON exf_aqh_min                  =   8.9244517819610E-04
(PID.TID 0000.0001) %MON exf_aqh_mean                 =   2.4663067750694E-03
(PID.TID 0000.0001) %MON exf_aqh_sd                   =   1.2813670305131E-03
(PID.TID 0000.0001) %MON exf_aqh_del2                 =   6.0181312336198E-04
(PID.TID 0000.0001) %MON exf_lwflux_max               =   1.3416717287855E+02
(PID.TID 0000.0001) %MON exf_lwflux_min               =   4.4303837072852E+01
(PID.TID 0000.0001) %MON exf_lwflux_mean              =   8.5120574385654E+01
(PID.TID 0000.0001) %MON exf_lwflux_sd                =   3.4334038067238E+01
(PID.TID 0000.0001) %MON exf_lwflux_del2              =   1.7983990876170E+01
(PID.TID 0000.0001) %MON exf_evap_max                 =   2.7610126650014E-08
(PID.TID 0000.0001) %MON exf_evap_min                 =  -1.6316540136032E-09
(PID.TID 0000.0001) %MON exf_evap_mean                =   1.0959989591402E-08
(PID.TID 0000.0001) %MON exf_evap_sd                  =   8.4762037284841E-09
(PID.TID 0000.0001) %MON exf_evap_del2                =   3.8822736243419E-09
(PID.TID 0000.0001) %MON exf_precip_max               =   5.9484783233933E-08
(PID.TID 0000.0001) %MON exf_precip_min               =   7.4767954353598E-09
(PID.TID 0000.0001) %MON exf_precip_mean              =   3.2028414510261E-08
(PID.TID 0000.0001) %MON exf_precip_sd                =   1.5093444238404E-08
(PID.TID 0000.0001) %MON exf_precip_del2              =   6.8606601315283E-09
(PID.TID 0000.0001) %MON exf_swflux_max               =  -2.6096140062614E+01
(PID.TID 0000.0001) %MON exf_swflux_min               =  -4.2994991271222E+01
(PID.TID 0000.0001) %MON exf_swflux_mean              =  -3.3915698660746E+01
(PID.TID 0000.0001) %MON exf_swflux_sd                =   5.3506194880451E+00
(PID.TID 0000.0001) %MON exf_swflux_del2              =   3.0835246887711E+00
(PID.TID 0000.0001) %MON exf_swdown_max               =   4.7772212523580E+01
(PID.TID 0000.0001) %MON exf_swdown_min               =   2.8995711180682E+01
(PID.TID 0000.0001) %MON exf_swdown_mean              =   3.7684109623051E+01
(PID.TID 0000.0001) %MON exf_swdown_sd                =   5.9451327644946E+00
(PID.TID 0000.0001) %MON exf_swdown_del2              =   3.4261385430790E+00
(PID.TID 0000.0001) %MON exf_lwdown_max               =   2.8592223737539E+02
(PID.TID 0000.0001) %MON exf_lwdown_min               =   1.7391255158805E+02
(PID.TID 0000.0001) %MON exf_lwdown_mean              =   2.2892646711791E+02
(PID.TID 0000.0001) %MON exf_lwdown_sd                =   3.6584702678422E+01
(PID.TID 0000.0001) %MON exf_lwdown_del2              =   2.5134929152987E+01
(PID.TID 0000.0001) %MON exf_climsss_max              =   3.4650821831708E+01
(PID.TID 0000.0001) %MON exf_climsss_min              =   2.5641317419667E+01
(PID.TID 0000.0001) %MON exf_climsss_mean             =   3.1811735622041E+01
(PID.TID 0000.0001) %MON exf_climsss_sd               =   2.3420003113202E+00
(PID.TID 0000.0001) %MON exf_climsss_del2             =   9.6947994128286E-01
(PID.TID 0000.0001) // =======================================================
(PID.TID 0000.0001) // End MONITOR EXF statistics
(PID.TID 0000.0001) // =======================================================
(PID.TID 0000.0001)  MDS_READ_SEC_XZ: opening global file: OBNu.seaice_obcs
(PID.TID 0000.0001)  MDS_READ_SEC_XZ: opening global file: OBNv.seaice_obcs
(PID.TID 0000.0001)  MDS_READ_SEC_XZ: opening global file: OBNt.seaice_obcs
(PID.TID 0000.0001)  MDS_READ_SEC_XZ: opening global file: OBNs.seaice_obcs
(PID.TID 0000.0001)  MDS_READ_SEC_XZ: opening global file: OBNa.seaice_obcs
(PID.TID 0000.0001)  MDS_READ_SEC_XZ: opening global file: OBNh.seaice_obcs
(PID.TID 0000.0001)  MDS_READ_SEC_XZ: opening global file: OBNsl.seaice_obcs
(PID.TID 0000.0001)  MDS_READ_SEC_XZ: opening global file: OBNsn.seaice_obcs
(PID.TID 0000.0001)  MDS_READ_SEC_XZ: opening global file: OBNuice.seaice_obcs
(PID.TID 0000.0001)  MDS_READ_SEC_XZ: opening global file: OBNvice.seaice_obcs
(PID.TID 0000.0001)  MDS_READ_SEC_XZ: opening global file: OBSu.seaice_obcs
(PID.TID 0000.0001)  MDS_READ_SEC_XZ: opening global file: OBSv.seaice_obcs
(PID.TID 0000.0001)  MDS_READ_SEC_XZ: opening global file: OBSt.seaice_obcs
(PID.TID 0000.0001)  MDS_READ_SEC_XZ: opening global file: OBSs.seaice_obcs
(PID.TID 0000.0001)  MDS_READ_SEC_XZ: opening global file: OBSa.seaice_obcs
(PID.TID 0000.0001)  MDS_READ_SEC_XZ: opening global file: OBSh.seaice_obcs
(PID.TID 0000.0001)  MDS_READ_SEC_XZ: opening global file: OBSsl.seaice_obcs
(PID.TID 0000.0001)  MDS_READ_SEC_XZ: opening global file: OBSsn.seaice_obcs
(PID.TID 0000.0001)  MDS_READ_SEC_XZ: opening global file: OBSuice.seaice_obcs
(PID.TID 0000.0001)  MDS_READ_SEC_XZ: opening global file: OBSvice.seaice_obcs
(PID.TID 0000.0001)  MDS_READ_SEC_YZ: opening global file: OBEu.seaice_obcs
(PID.TID 0000.0001)  MDS_READ_SEC_YZ: opening global file: OBEv.seaice_obcs
(PID.TID 0000.0001)  MDS_READ_SEC_YZ: opening global file: OBEt.seaice_obcs
(PID.TID 0000.0001)  MDS_READ_SEC_YZ: opening global file: OBEs.seaice_obcs
(PID.TID 0000.0001)  MDS_READ_SEC_YZ: opening global file: OBEa.seaice_obcs
(PID.TID 0000.0001)  MDS_READ_SEC_YZ: opening global file: OBEh.seaice_obcs
(PID.TID 0000.0001)  MDS_READ_SEC_YZ: opening global file: OBEsl.seaice_obcs
(PID.TID 0000.0001)  MDS_READ_SEC_YZ: opening global file: OBEsn.seaice_obcs
(PID.TID 0000.0001)  MDS_READ_SEC_YZ: opening global file: OBEuice.seaice_obcs
(PID.TID 0000.0001)  MDS_READ_SEC_YZ: opening global file: OBEvice.seaice_obcs
(PID.TID 0000.0001)  MDS_READ_SEC_YZ: opening global file: OBWu.seaice_obcs
(PID.TID 0000.0001)  MDS_READ_SEC_YZ: opening global file: OBWv.seaice_obcs
(PID.TID 0000.0001)  MDS_READ_SEC_YZ: opening global file: OBWt.seaice_obcs
(PID.TID 0000.0001)  MDS_READ_SEC_YZ: opening global file: OBWs.seaice_obcs
(PID.TID 0000.0001)  MDS_READ_SEC_YZ: opening global file: OBWa.seaice_obcs
(PID.TID 0000.0001)  MDS_READ_SEC_YZ: opening global file: OBWh.seaice_obcs
(PID.TID 0000.0001)  MDS_READ_SEC_YZ: opening global file: OBWsl.seaice_obcs
(PID.TID 0000.0001)  MDS_READ_SEC_YZ: opening global file: OBWsn.seaice_obcs
(PID.TID 0000.0001)  MDS_READ_SEC_YZ: opening global file: OBWuice.seaice_obcs
(PID.TID 0000.0001)  MDS_READ_SEC_YZ: opening global file: OBWvice.seaice_obcs
 SEAICE_LSR: Residual Initial ipass,Uice,Vice=    1  4.80762869E-03  4.10932354E-03
 SEAICE_LSR: Residual FrDrift U_fd,V_fd=  1.21529892E-02  8.73632231E-03
 SEAICE_LSR (ipass=   1) iters,dU,Resid=    34  8.96796526E-13  1.25671371E-13
 SEAICE_LSR (ipass=   1) iters,dV,Resid=    18  1.48520085E-13  1.57901632E-14
 SEAICE_LSR: Residual Initial ipass,Uice,Vice=    2  2.05128600E-03  2.79178391E-03
 SEAICE_LSR: Residual FrDrift U_fd,V_fd=  1.25745257E-02  9.83852325E-03
 SEAICE_LSR (ipass=   2) iters,dU,Resid=    34  6.63059885E-13  9.49626565E-14
 SEAICE_LSR (ipass=   2) iters,dV,Resid=    18  9.11909437E-14  9.19353314E-15
 cg2d: Sum(rhs),rhsMax =   1.78574256436818E+00  4.48427322454682E-01
(PID.TID 0000.0001)      cg2d_init_res =   9.76870393494260E-02
(PID.TID 0000.0001)      cg2d_iters(min,last) =      -1      23
(PID.TID 0000.0001)      cg2d_last_res =   4.02059160055652E-13
(PID.TID 0000.0001) // =======================================================
(PID.TID 0000.0001) // Begin MONITOR dynamic field statistics
(PID.TID 0000.0001) // =======================================================
(PID.TID 0000.0001) %MON time_tsnumber                =                     5
(PID.TID 0000.0001) %MON time_secondsf                =   1.8000000000000E+04
(PID.TID 0000.0001) %MON dynstat_eta_max              =   2.9210357608647E-02
(PID.TID 0000.0001) %MON dynstat_eta_min              =  -1.1975528280890E-01
(PID.TID 0000.0001) %MON dynstat_eta_mean             =  -4.5271338715182E-02
(PID.TID 0000.0001) %MON dynstat_eta_sd               =   4.3227137884183E-02
(PID.TID 0000.0001) %MON dynstat_eta_del2             =   4.8104037775797E-03
(PID.TID 0000.0001) %MON dynstat_uvel_max             =   4.0721060302194E-02
(PID.TID 0000.0001) %MON dynstat_uvel_min             =  -3.0978023873098E-02
(PID.TID 0000.0001) %MON dynstat_uvel_mean            =   1.1934896537392E-04
(PID.TID 0000.0001) %MON dynstat_uvel_sd              =   4.3390618795612E-03
(PID.TID 0000.0001) %MON dynstat_uvel_del2            =   5.7069708580174E-04
(PID.TID 0000.0001) %MON dynstat_vvel_max             =   2.3049274057023E-02
(PID.TID 0000.0001) %MON dynstat_vvel_min             =  -5.6618543856896E-02
(PID.TID 0000.0001) %MON dynstat_vvel_mean            =  -8.0878341638629E-04
(PID.TID 0000.0001) %MON dynstat_vvel_sd              =   4.7230546517530E-03
(PID.TID 0000.0001) %MON dynstat_vvel_del2            =   5.2629579296441E-04
(PID.TID 0000.0001) %MON dynstat_wvel_max             =   3.4340485996274E-05
(PID.TID 0000.0001) %MON dynstat_wvel_min             =  -5.9740627284748E-05
(PID.TID 0000.0001) %MON dynstat_wvel_mean            =  -2.5823983550323E-06
(PID.TID 0000.0001) %MON dynstat_wvel_sd              =   1.4078304825202E-05
(PID.TID 0000.0001) %MON dynstat_wvel_del2            =   9.5900143536475E-07
(PID.TID 0000.0001) %MON dynstat_theta_max            =   6.0136186829174E+00
(PID.TID 0000.0001) %MON dynstat_theta_min            =  -1.8180607420850E+00
(PID.TID 0000.0001) %MON dynstat_theta_mean           =   3.1871874793977E+00
(PID.TID 0000.0001) %MON dynstat_theta_sd             =   7.9860809713399E-01
(PID.TID 0000.0001) %MON dynstat_theta_del2           =   4.3093263089378E-02
(PID.TID 0000.0001) %MON dynstat_salt_max             =   3.4939862609691E+01
(PID.TID 0000.0001) %MON dynstat_salt_min             =   3.2480681836543E+01
(PID.TID 0000.0001) %MON dynstat_salt_mean            =   3.4812190783534E+01
(PID.TID 0000.0001) %MON dynstat_salt_sd              =   3.1547662033196E-01
(PID.TID 0000.0001) %MON dynstat_salt_del2            =   9.5194858062579E-03
(PID.TID 0000.0001) %MON forcing_qnet_max             =   4.6448576977207E+02
(PID.TID 0000.0001) %MON forcing_qnet_min             =   1.7331299566322E+00
(PID.TID 0000.0001) %MON forcing_qnet_mean            =   9.3689112628586E+01
(PID.TID 0000.0001) %MON forcing_qnet_sd              =   1.1845922854335E+02
(PID.TID 0000.0001) %MON forcing_qnet_del2            =   4.9454674377955E+01
(PID.TID 0000.0001) %MON forcing_qsw_max              =  -1.4938333938115E-01
(PID.TID 0000.0001) %MON forcing_qsw_min              =  -4.2994991271222E+01
(PID.TID 0000.0001) %MON forcing_qsw_mean             =  -2.4200631076364E+01
(PID.TID 0000.0001) %MON forcing_qsw_sd               =   1.5169710446860E+01
(PID.TID 0000.0001) %MON forcing_qsw_del2             =   2.4054104161353E+00
(PID.TID 0000.0001) %MON forcing_empmr_max            =   5.3501557372657E-04
(PID.TID 0000.0001) %MON forcing_empmr_min            =  -5.5798114183459E-04
(PID.TID 0000.0001) %MON forcing_empmr_mean           =  -4.3355230892066E-06
(PID.TID 0000.0001) %MON forcing_empmr_sd             =   1.7947492053679E-04
(PID.TID 0000.0001) %MON forcing_empmr_del2           =   8.4454623293157E-05
(PID.TID 0000.0001) %MON forcing_fu_max               =   3.5493335124974E-02
(PID.TID 0000.0001) %MON forcing_fu_min               =   4.1464923230055E-03
(PID.TID 0000.0001) %MON forcing_fu_mean              =   2.0298691295247E-02
(PID.TID 0000.0001) %MON forcing_fu_sd                =   9.5870273985253E-03
(PID.TID 0000.0001) %MON forcing_fu_del2              =   3.6667554222877E-03
(PID.TID 0000.0001) %MON forcing_fv_max               =   6.0812007151210E-04
(PID.TID 0000.0001) %MON forcing_fv_min               =  -2.6930754398980E-02
(PID.TID 0000.0001) %MON forcing_fv_mean              =  -5.6347852997643E-03
(PID.TID 0000.0001) %MON forcing_fv_sd                =   7.3968075684971E-03
(PID.TID 0000.0001) %MON forcing_fv_del2              =   7.8242168945967E-04
(PID.TID 0000.0001) %MON trAdv_CFL_u_max              =   1.0953820867474E-03
(PID.TID 0000.0001) %MON trAdv_CFL_v_max              =   9.3766397599298E-04
(PID.TID 0000.0001) %MON trAdv_CFL_w_max              =   3.0579979848783E-03
(PID.TID 0000.0001) %MON advcfl_uvel_max              =   1.0953264755169E-03
(PID.TID 0000.0001) %MON advcfl_vvel_max              =   9.1652903615095E-04
(PID.TID 0000.0001) %MON advcfl_wvel_max              =   5.3865163190562E-03
(PID.TID 0000.0001) %MON advcfl_W_hf_max              =   3.0579979848783E-03
(PID.TID 0000.0001) %MON pe_b_mean                    =   1.1262086690351E-05
(PID.TID 0000.0001) %MON ke_max                       =   1.6173476526130E-03
(PID.TID 0000.0001) %MON ke_mean                      =   1.6220685077155E-05
(PID.TID 0000.0001) %MON ke_vol                       =   2.0812333426156E+15
(PID.TID 0000.0001) %MON vort_r_min                   =  -5.9254357332067E-07
(PID.TID 0000.0001) %MON vort_r_max                   =   3.6810394344165E-07
(PID.TID 0000.0001) %MON vort_a_mean                  =   1.1459532562613E-04
(PID.TID 0000.0001) %MON vort_a_sd                    =   5.2712015072098E-06
(PID.TID 0000.0001) %MON vort_p_mean                  =   1.7066159021837E-04
(PID.TID 0000.0001) %MON vort_p_sd                    =   1.1051749282407E-04
(PID.TID 0000.0001) %MON surfExpan_theta_mean         =   2.6676296446829E-07
(PID.TID 0000.0001) %MON surfExpan_salt_mean          =  -3.4659006628512E-05
(PID.TID 0000.0001) // =======================================================
(PID.TID 0000.0001) // End MONITOR dynamic field statistics
(PID.TID 0000.0001) // =======================================================
(PID.TID 0000.0001) // =======================================================
(PID.TID 0000.0001) // Begin OBCS MONITOR field statistics
(PID.TID 0000.0001) // =======================================================
(PID.TID 0000.0001) %MON obc_E_uVel_max               =   1.4708673581481E-02
(PID.TID 0000.0001) %MON obc_E_uVel_min               =  -2.8972107917070E-02
(PID.TID 0000.0001) %MON obc_E_uVel_mean              =  -3.8792793300792E-04
(PID.TID 0000.0001) %MON obc_E_uVel_sd                =   5.6631681590713E-03
(PID.TID 0000.0001) %MON obc_E_uVel_Int               =  -8.0102842726632E+05
(PID.TID 0000.0001) %MON obc_W_uVel_max               =   1.1476527899504E-02
(PID.TID 0000.0001) %MON obc_W_uVel_min               =  -2.4759428575635E-02
(PID.TID 0000.0001) %MON obc_W_uVel_mean              =  -1.0559115432373E-03
(PID.TID 0000.0001) %MON obc_W_uVel_sd                =   6.2974940898310E-03
(PID.TID 0000.0001) %MON obc_W_uVel_Int               =  -1.2210848685715E+05
(PID.TID 0000.0001) %MON obc_N_vVel_max               =   1.5576710924506E-02
(PID.TID 0000.0001) %MON obc_N_vVel_min               =  -3.2434400171041E-02
(PID.TID 0000.0001) %MON obc_N_vVel_mean              =   1.3336812241459E-03
(PID.TID 0000.0001) %MON obc_N_vVel_sd                =   8.4165221230421E-03
(PID.TID 0000.0001) %MON obc_N_vVel_Int               =   1.7499233134563E+05
(PID.TID 0000.0001) %MON obc_S_vVel_max               =   2.0488649606705E-03
(PID.TID 0000.0001) %MON obc_S_vVel_min               =  -5.2185349166393E-02
(PID.TID 0000.0001) %MON obc_S_vVel_mean              =  -2.0381438377289E-03
(PID.TID 0000.0001) %MON obc_S_vVel_sd                =   5.0853668829259E-03
(PID.TID 0000.0001) %MON obc_S_vVel_Int               =  -1.7727406734247E+06
(PID.TID 0000.0001) // =======================================================
(PID.TID 0000.0001) // End OBCS MONITOR field statistics
(PID.TID 0000.0001) // =======================================================
(PID.TID 0000.0001) // =======================================================
(PID.TID 0000.0001) // Begin MONITOR SEAICE statistics
(PID.TID 0000.0001) // =======================================================
(PID.TID 0000.0001) %MON seaice_tsnumber              =                     5
(PID.TID 0000.0001) %MON seaice_time_sec              =   1.8000000000000E+04
(PID.TID 0000.0001) %MON seaice_uice_max              =   1.3921902212774E-01
(PID.TID 0000.0001) %MON seaice_uice_min              =  -6.8031609058380E-02
(PID.TID 0000.0001) %MON seaice_uice_mean             =   5.7910603499265E-02
(PID.TID 0000.0001) %MON seaice_uice_sd               =   4.8530052584023E-02
(PID.TID 0000.0001) %MON seaice_uice_del2             =   1.5023849621908E-02
(PID.TID 0000.0001) %MON seaice_vice_max              =   9.4237852239222E-03
(PID.TID 0000.0001) %MON seaice_vice_min              =  -1.1501451581717E-01
(PID.TID 0000.0001) %MON seaice_vice_mean             =  -3.4046654471173E-02
(PID.TID 0000.0001) %MON seaice_vice_sd               =   3.2643443587381E-02
(PID.TID 0000.0001) %MON seaice_vice_del2             =   3.9242192833131E-03
(PID.TID 0000.0001) %MON seaice_area_max              =   9.9276381391898E-01
(PID.TID 0000.0001) %MON seaice_area_min              =   0.0000000000000E+00
(PID.TID 0000.0001) %MON seaice_area_mean             =   3.1787977383337E-01
(PID.TID 0000.0001) %MON seaice_area_sd               =   3.9504769447824E-01
(PID.TID 0000.0001) %MON seaice_area_del2             =   6.8033660982005E-02
(PID.TID 0000.0001) %MON seaice_heff_max              =   4.3118404380708E-01
(PID.TID 0000.0001) %MON seaice_heff_min              =   0.0000000000000E+00
(PID.TID 0000.0001) %MON seaice_heff_mean             =   7.8879203112510E-02
(PID.TID 0000.0001) %MON seaice_heff_sd               =   1.1985441038614E-01
(PID.TID 0000.0001) %MON seaice_heff_del2             =   1.3145751076818E-02
(PID.TID 0000.0001) %MON seaice_hsnow_max             =   8.1584580362708E-02
(PID.TID 0000.0001) %MON seaice_hsnow_min             =   0.0000000000000E+00
(PID.TID 0000.0001) %MON seaice_hsnow_mean            =   1.7244074416165E-02
(PID.TID 0000.0001) %MON seaice_hsnow_sd              =   2.4829257301503E-02
(PID.TID 0000.0001) %MON seaice_hsnow_del2            =   4.2905636803984E-03
(PID.TID 0000.0001) %MON seaice_hsalt_max             =   7.8181570245762E+01
(PID.TID 0000.0001) %MON seaice_hsalt_min             =  -3.4694469519536E-18
(PID.TID 0000.0001) %MON seaice_hsalt_mean            =   7.3758695210006E+00
(PID.TID 0000.0001) %MON seaice_hsalt_sd              =   1.5889743072229E+01
(PID.TID 0000.0001) %MON seaice_hsalt_del2            =   7.4990560799281E+00
(PID.TID 0000.0001) // =======================================================
(PID.TID 0000.0001) // End MONITOR SEAICE statistics
(PID.TID 0000.0001) // =======================================================
(PID.TID 0000.0001) // =======================================================
(PID.TID 0000.0001) // Begin MONITOR EXF statistics
(PID.TID 0000.0001) // =======================================================
(PID.TID 0000.0001) %MON exf_tsnumber                 =                     5
(PID.TID 0000.0001) %MON exf_time_sec                 =   1.8000000000000E+04
(PID.TID 0000.0001) %MON exf_ustress_max              =   3.4382437692244E-02
(PID.TID 0000.0001) %MON exf_ustress_min              =   3.8428401840905E-03
(PID.TID 0000.0001) %MON exf_ustress_mean             =   1.8046592794718E-02
(PID.TID 0000.0001) %MON exf_ustress_sd               =   9.7186306233815E-03
(PID.TID 0000.0001) %MON exf_ustress_del2             =   3.7454137686085E-03
(PID.TID 0000.0001) %MON exf_vstress_max              =   6.8973389078799E-03
(PID.TID 0000.0001) %MON exf_vstress_min              =  -1.4801922187063E-02
(PID.TID 0000.0001) %MON exf_vstress_mean             =  -1.4742934031978E-03
(PID.TID 0000.0001) %MON exf_vstress_sd               =   5.4797102797940E-03
(PID.TID 0000.0001) %MON exf_vstress_del2             =   2.5673041646437E-03
(PID.TID 0000.0001) %MON exf_hflux_max                =   3.0228770928060E+02
(PID.TID 0000.0001) %MON exf_hflux_min                =   1.8697580394620E+00
(PID.TID 0000.0001) %MON exf_hflux_mean               =   1.3249921459731E+02
(PID.TID 0000.0001) %MON exf_hflux_sd                 =   1.0758447840827E+02
(PID.TID 0000.0001) %MON exf_hflux_del2               =   5.2097110424783E+01
(PID.TID 0000.0001) %MON exf_sflux_max                =   8.8646118511774E-09
(PID.TID 0000.0001) %MON exf_sflux_min                =  -5.9041689865132E-08
(PID.TID 0000.0001) %MON exf_sflux_mean               =  -2.1067028137446E-08
(PID.TID 0000.0001) %MON exf_sflux_sd                 =   2.1991545005424E-08
(PID.TID 0000.0001) %MON exf_sflux_del2               =   1.0227055169398E-08
(PID.TID 0000.0001) %MON exf_uwind_max                =   5.3540880608428E+00
(PID.TID 0000.0001) %MON exf_uwind_min                =   6.3975871757406E-01
(PID.TID 0000.0001) %MON exf_uwind_mean               =   3.0564067508130E+00
(PID.TID 0000.0001) %MON exf_uwind_sd                 =   1.4691093983507E+00
(PID.TID 0000.0001) %MON exf_uwind_del2               =   6.0836943056052E-01
(PID.TID 0000.0001) %MON exf_vwind_max                =   1.1527636143191E+00
(PID.TID 0000.0001) %MON exf_vwind_min                =  -2.2710745257269E+00
(PID.TID 0000.0001) %MON exf_vwind_mean               =  -2.6444838112862E-01
(PID.TID 0000.0001) %MON exf_vwind_sd                 =   8.9647348492279E-01
(PID.TID 0000.0001) %MON exf_vwind_del2               =   4.2231223664153E-01
(PID.TID 0000.0001) %MON exf_wspeed_max               =   5.3893105900161E+00
(PID.TID 0000.0001) %MON exf_wspeed_min               =   1.2183119202524E+00
(PID.TID 0000.0001) %MON exf_wspeed_mean              =   3.2188383271704E+00
(PID.TID 0000.0001) %MON exf_wspeed_sd                =   1.4186550425412E+00
(PID.TID 0000.0001) %MON exf_wspeed_del2              =   6.6296869507609E-01
(PID.TID 0000.0001) %MON exf_atemp_max                =   2.7812914217756E+02
(PID.TID 0000.0001) %MON exf_atemp_min                =   2.5098364495449E+02
(PID.TID 0000.0001) %MON exf_atemp_mean               =   2.6467134577275E+02
(PID.TID 0000.0001) %MON exf_atemp_sd                 =   9.5060895951796E+00
(PID.TID 0000.0001) %MON exf_atemp_del2               =   4.4770387957626E+00
(PID.TID 0000.0001) %MON exf_aqh_max                  =   4.9559626126499E-03
(PID.TID 0000.0001) %MON exf_aqh_min                  =   8.9180353208944E-04
(PID.TID 0000.0001) %MON exf_aqh_mean                 =   2.4656399609405E-03
(PID.TID 0000.0001) %MON exf_aqh_sd                   =   1.2812352511166E-03
(PID.TID 0000.0001) %MON exf_aqh_del2                 =   6.0185540517630E-04
(PID.TID 0000.0001) %MON exf_lwflux_max               =   1.3401188557415E+02
(PID.TID 0000.0001) %MON exf_lwflux_min               =   4.4313895606925E+01
(PID.TID 0000.0001) %MON exf_lwflux_mean              =   8.5119976328531E+01
(PID.TID 0000.0001) %MON exf_lwflux_sd                =   3.4317979953794E+01
(PID.TID 0000.0001) %MON exf_lwflux_del2              =   1.7972236509041E+01
(PID.TID 0000.0001) %MON exf_evap_max                 =   2.7629044095875E-08
(PID.TID 0000.0001) %MON exf_evap_min                 =  -1.6231312975355E-09
(PID.TID 0000.0001) %MON exf_evap_mean                =   1.0956651979530E-08
(PID.TID 0000.0001) %MON exf_evap_sd                  =   8.4703931023565E-09
(PID.TID 0000.0001) %MON exf_evap_del2                =   3.8782140690489E-09
(PID.TID 0000.0001) %MON exf_precip_max               =   5.9477944682351E-08
(PID.TID 0000.0001) %MON exf_precip_min               =   7.4642450932949E-09
(PID.TID 0000.0001) %MON exf_precip_mean              =   3.2023680116976E-08
(PID.TID 0000.0001) %MON exf_precip_sd                =   1.5099928326610E-08
(PID.TID 0000.0001) %MON exf_precip_del2              =   6.8643577377926E-09
(PID.TID 0000.0001) %MON exf_swflux_max               =  -2.6066290262097E+01
(PID.TID 0000.0001) %MON exf_swflux_min               =  -4.2949888857857E+01
(PID.TID 0000.0001) %MON exf_swflux_mean              =  -3.3878281912809E+01
(PID.TID 0000.0001) %MON exf_swflux_sd                =   5.3482693246481E+00
(PID.TID 0000.0001) %MON exf_swflux_del2              =   3.0798156977657E+00
(PID.TID 0000.0001) %MON exf_swdown_max               =   4.7722098730952E+01
(PID.TID 0000.0001) %MON exf_swdown_min               =   2.8962544735664E+01
(PID.TID 0000.0001) %MON exf_swdown_mean              =   3.7642535458676E+01
(PID.TID 0000.0001) %MON exf_swdown_sd                =   5.9425214718313E+00
(PID.TID 0000.0001) %MON exf_swdown_del2              =   3.4220174419619E+00
(PID.TID 0000.0001) %MON exf_lwdown_max               =   2.8588174721973E+02
(PID.TID 0000.0001) %MON exf_lwdown_min               =   1.7386589586018E+02
(PID.TID 0000.0001) %MON exf_lwdown_mean              =   2.2890429866532E+02
(PID.TID 0000.0001) %MON exf_lwdown_sd                =   3.6585588627253E+01
(PID.TID 0000.0001) %MON exf_lwdown_del2              =   2.5134654279117E+01
(PID.TID 0000.0001) %MON exf_climsss_max              =   3.4651366416222E+01
(PID.TID 0000.0001) %MON exf_climsss_min              =   2.5645130699450E+01
(PID.TID 0000.0001) %MON exf_climsss_mean             =   3.1813029319426E+01
(PID.TID 0000.0001) %MON exf_climsss_sd               =   2.3419428681841E+00
(PID.TID 0000.0001) %MON exf_climsss_del2             =   9.6966360338091E-01
(PID.TID 0000.0001) // =======================================================
(PID.TID 0000.0001) // End MONITOR EXF statistics
(PID.TID 0000.0001) // =======================================================
(PID.TID 0000.0001)  MDS_READ_SEC_XZ: opening global file: OBNu.seaice_obcs
(PID.TID 0000.0001)  MDS_READ_SEC_XZ: opening global file: OBNv.seaice_obcs
(PID.TID 0000.0001)  MDS_READ_SEC_XZ: opening global file: OBNt.seaice_obcs
(PID.TID 0000.0001)  MDS_READ_SEC_XZ: opening global file: OBNs.seaice_obcs
(PID.TID 0000.0001)  MDS_READ_SEC_XZ: opening global file: OBNa.seaice_obcs
(PID.TID 0000.0001)  MDS_READ_SEC_XZ: opening global file: OBNh.seaice_obcs
(PID.TID 0000.0001)  MDS_READ_SEC_XZ: opening global file: OBNsl.seaice_obcs
(PID.TID 0000.0001)  MDS_READ_SEC_XZ: opening global file: OBNsn.seaice_obcs
(PID.TID 0000.0001)  MDS_READ_SEC_XZ: opening global file: OBNuice.seaice_obcs
(PID.TID 0000.0001)  MDS_READ_SEC_XZ: opening global file: OBNvice.seaice_obcs
(PID.TID 0000.0001)  MDS_READ_SEC_XZ: opening global file: OBSu.seaice_obcs
(PID.TID 0000.0001)  MDS_READ_SEC_XZ: opening global file: OBSv.seaice_obcs
(PID.TID 0000.0001)  MDS_READ_SEC_XZ: opening global file: OBSt.seaice_obcs
(PID.TID 0000.0001)  MDS_READ_SEC_XZ: opening global file: OBSs.seaice_obcs
(PID.TID 0000.0001)  MDS_READ_SEC_XZ: opening global file: OBSa.seaice_obcs
(PID.TID 0000.0001)  MDS_READ_SEC_XZ: opening global file: OBSh.seaice_obcs
(PID.TID 0000.0001)  MDS_READ_SEC_XZ: opening global file: OBSsl.seaice_obcs
(PID.TID 0000.0001)  MDS_READ_SEC_XZ: opening global file: OBSsn.seaice_obcs
(PID.TID 0000.0001)  MDS_READ_SEC_XZ: opening global file: OBSuice.seaice_obcs
(PID.TID 0000.0001)  MDS_READ_SEC_XZ: opening global file: OBSvice.seaice_obcs
(PID.TID 0000.0001)  MDS_READ_SEC_YZ: opening global file: OBEu.seaice_obcs
(PID.TID 0000.0001)  MDS_READ_SEC_YZ: opening global file: OBEv.seaice_obcs
(PID.TID 0000.0001)  MDS_READ_SEC_YZ: opening global file: OBEt.seaice_obcs
(PID.TID 0000.0001)  MDS_READ_SEC_YZ: opening global file: OBEs.seaice_obcs
(PID.TID 0000.0001)  MDS_READ_SEC_YZ: opening global file: OBEa.seaice_obcs
(PID.TID 0000.0001)  MDS_READ_SEC_YZ: opening global file: OBEh.seaice_obcs
(PID.TID 0000.0001)  MDS_READ_SEC_YZ: opening global file: OBEsl.seaice_obcs
(PID.TID 0000.0001)  MDS_READ_SEC_YZ: opening global file: OBEsn.seaice_obcs
(PID.TID 0000.0001)  MDS_READ_SEC_YZ: opening global file: OBEuice.seaice_obcs
(PID.TID 0000.0001)  MDS_READ_SEC_YZ: opening global file: OBEvice.seaice_obcs
(PID.TID 0000.0001)  MDS_READ_SEC_YZ: opening global file: OBWu.seaice_obcs
(PID.TID 0000.0001)  MDS_READ_SEC_YZ: opening global file: OBWv.seaice_obcs
(PID.TID 0000.0001)  MDS_READ_SEC_YZ: opening global file: OBWt.seaice_obcs
(PID.TID 0000.0001)  MDS_READ_SEC_YZ: opening global file: OBWs.seaice_obcs
(PID.TID 0000.0001)  MDS_READ_SEC_YZ: opening global file: OBWa.seaice_obcs
(PID.TID 0000.0001)  MDS_READ_SEC_YZ: opening global file: OBWh.seaice_obcs
(PID.TID 0000.0001)  MDS_READ_SEC_YZ: opening global file: OBWsl.seaice_obcs
(PID.TID 0000.0001)  MDS_READ_SEC_YZ: opening global file: OBWsn.seaice_obcs
(PID.TID 0000.0001)  MDS_READ_SEC_YZ: opening global file: OBWuice.seaice_obcs
(PID.TID 0000.0001)  MDS_READ_SEC_YZ: opening global file: OBWvice.seaice_obcs
 SEAICE_LSR: Residual Initial ipass,Uice,Vice=    1  4.67707945E-03  2.65054219E-03
 SEAICE_LSR: Residual FrDrift U_fd,V_fd=  1.18812101E-02  1.02757241E-02
 SEAICE_LSR (ipass=   1) iters,dU,Resid=    36  2.82947277E-13  3.91305452E-14
 SEAICE_LSR (ipass=   1) iters,dV,Resid=    18  9.52293799E-14  8.67057056E-15
 SEAICE_LSR: Residual Initial ipass,Uice,Vice=    2  1.39358179E-03  1.55688260E-03
 SEAICE_LSR: Residual FrDrift U_fd,V_fd=  1.20755989E-02  1.05591784E-02
 SEAICE_LSR (ipass=   2) iters,dU,Resid=    34  5.79349069E-13  8.31829268E-14
 SEAICE_LSR (ipass=   2) iters,dV,Resid=    18  6.01185768E-14  5.17501118E-15
 cg2d: Sum(rhs),rhsMax =   1.90317495100540E+00  4.45585683222768E-01
(PID.TID 0000.0001)      cg2d_init_res =   4.08846595730243E-02
(PID.TID 0000.0001)      cg2d_iters(min,last) =      -1      22
(PID.TID 0000.0001)      cg2d_last_res =   9.65886947079185E-13
(PID.TID 0000.0001) // =======================================================
(PID.TID 0000.0001) // Begin MONITOR dynamic field statistics
(PID.TID 0000.0001) // =======================================================
(PID.TID 0000.0001) %MON time_tsnumber                =                     6
(PID.TID 0000.0001) %MON time_secondsf                =   2.1600000000000E+04
(PID.TID 0000.0001) %MON dynstat_eta_max              =   2.6384935445224E-02
(PID.TID 0000.0001) %MON dynstat_eta_min              =  -1.2013227468176E-01
(PID.TID 0000.0001) %MON dynstat_eta_mean             =  -4.7942686026720E-02
(PID.TID 0000.0001) %MON dynstat_eta_sd               =   4.2143571678049E-02
(PID.TID 0000.0001) %MON dynstat_eta_del2             =   4.8032294522367E-03
(PID.TID 0000.0001) %MON dynstat_uvel_max             =   4.0967816362285E-02
(PID.TID 0000.0001) %MON dynstat_uvel_min             =  -3.6727920174599E-02
(PID.TID 0000.0001) %MON dynstat_uvel_mean            =   6.3978760121147E-05
(PID.TID 0000.0001) %MON dynstat_uvel_sd              =   4.9211908448971E-03
(PID.TID 0000.0001) %MON dynstat_uvel_del2            =   6.5378721490617E-04
(PID.TID 0000.0001) %MON dynstat_vvel_max             =   2.4469871312415E-02
(PID.TID 0000.0001) %MON dynstat_vvel_min             =  -5.6353695690632E-02
(PID.TID 0000.0001) %MON dynstat_vvel_mean            =  -7.7307673009439E-04
(PID.TID 0000.0001) %MON dynstat_vvel_sd              =   4.9121611892922E-03
(PID.TID 0000.0001) %MON dynstat_vvel_del2            =   6.1144471366800E-04
(PID.TID 0000.0001) %MON dynstat_wvel_max             =   5.3787539317633E-05
(PID.TID 0000.0001) %MON dynstat_wvel_min             =  -7.0840460548859E-05
(PID.TID 0000.0001) %MON dynstat_wvel_mean            =  -3.4542503309158E-06
(PID.TID 0000.0001) %MON dynstat_wvel_sd              =   1.7345882349998E-05
(PID.TID 0000.0001) %MON dynstat_wvel_del2            =   1.1786137997726E-06
(PID.TID 0000.0001) %MON dynstat_theta_max            =   6.0133346637364E+00
(PID.TID 0000.0001) %MON dynstat_theta_min            =  -1.8181734065383E+00
(PID.TID 0000.0001) %MON dynstat_theta_mean           =   3.1871464083674E+00
(PID.TID 0000.0001) %MON dynstat_theta_sd             =   7.9868612990009E-01
(PID.TID 0000.0001) %MON dynstat_theta_del2           =   4.3051192917235E-02
(PID.TID 0000.0001) %MON dynstat_salt_max             =   3.4939862398241E+01
(PID.TID 0000.0001) %MON dynstat_salt_min             =   3.2479880848196E+01
(PID.TID 0000.0001) %MON dynstat_salt_mean            =   3.4812183404777E+01
(PID.TID 0000.0001) %MON dynstat_salt_sd              =   3.1549617638034E-01
(PID.TID 0000.0001) %MON dynstat_salt_del2            =   9.5092735223399E-03
(PID.TID 0000.0001) %MON forcing_qnet_max             =   4.6421674163056E+02
(PID.TID 0000.0001) %MON forcing_qnet_min             =   1.8697580394620E+00
(PID.TID 0000.0001) %MON forcing_qnet_mean            =   9.3578633698722E+01
(PID.TID 0000.0001) %MON forcing_qnet_sd              =   1.1841063113617E+02
(PID.TID 0000.0001) %MON forcing_qnet_del2            =   4.9407513127648E+01
(PID.TID 0000.0001) %MON forcing_qsw_max              =  -1.9601276252883E-01
(PID.TID 0000.0001) %MON forcing_qsw_min              =  -4.2949888857857E+01
(PID.TID 0000.0001) %MON forcing_qsw_mean             =  -2.4296972668371E+01
(PID.TID 0000.0001) %MON forcing_qsw_sd               =   1.5049706959491E+01
(PID.TID 0000.0001) %MON forcing_qsw_del2             =   2.3794239949191E+00
(PID.TID 0000.0001) %MON forcing_empmr_max            =   5.2828144512617E-04
(PID.TID 0000.0001) %MON forcing_empmr_min            =  -5.5875213415569E-04
(PID.TID 0000.0001) %MON forcing_empmr_mean           =  -3.5738252930105E-06
(PID.TID 0000.0001) %MON forcing_empmr_sd             =   1.7984736368037E-04
(PID.TID 0000.0001) %MON forcing_empmr_del2           =   8.4129451207922E-05
(PID.TID 0000.0001) %MON forcing_fu_max               =   3.5868004452450E-02
(PID.TID 0000.0001) %MON forcing_fu_min               =   4.0768908326727E-03
(PID.TID 0000.0001) %MON forcing_fu_mean              =   2.0157837108290E-02
(PID.TID 0000.0001) %MON forcing_fu_sd                =   9.5898905224933E-03
(PID.TID 0000.0001) %MON forcing_fu_del2              =   3.6484844415212E-03
(PID.TID 0000.0001) %MON forcing_fv_max               =   6.0409508593500E-04
(PID.TID 0000.0001) %MON forcing_fv_min               =  -2.5944712543564E-02
(PID.TID 0000.0001) %MON forcing_fv_mean              =  -5.5277631524166E-03
(PID.TID 0000.0001) %MON forcing_fv_sd                =   7.2591926771941E-03
(PID.TID 0000.0001) %MON forcing_fv_del2              =   7.6523883976220E-04
(PID.TID 0000.0001) %MON trAdv_CFL_u_max              =   1.1020197372903E-03
(PID.TID 0000.0001) %MON trAdv_CFL_v_max              =   9.3046483048765E-04
(PID.TID 0000.0001) %MON trAdv_CFL_w_max              =   3.1174620043645E-03
(PID.TID 0000.0001) %MON advcfl_uvel_max              =   1.1019637890743E-03
(PID.TID 0000.0001) %MON advcfl_vvel_max              =   9.1224172994318E-04
(PID.TID 0000.0001) %MON advcfl_wvel_max              =   2.8131466710256E-03
(PID.TID 0000.0001) %MON advcfl_W_hf_max              =   3.1174620043645E-03
(PID.TID 0000.0001) %MON pe_b_mean                    =   1.1711935021848E-05
(PID.TID 0000.0001) %MON ke_max                       =   1.6248761245739E-03
(PID.TID 0000.0001) %MON ke_mean                      =   1.8737173122798E-05
(PID.TID 0000.0001) %MON ke_vol                       =   2.0812333426156E+15
(PID.TID 0000.0001) %MON vort_r_min                   =  -5.8170272237045E-07
(PID.TID 0000.0001) %MON vort_r_max                   =   3.8184498023528E-07
(PID.TID 0000.0001) %MON vort_a_mean                  =   1.1459534918479E-04
(PID.TID 0000.0001) %MON vort_a_sd                    =   5.2710521416455E-06
(PID.TID 0000.0001) %MON vort_p_mean                  =   1.7066162530322E-04
(PID.TID 0000.0001) %MON vort_p_sd                    =   1.1051770405690E-04
(PID.TID 0000.0001) %MON surfExpan_theta_mean         =   6.1966046893727E-07
(PID.TID 0000.0001) %MON surfExpan_salt_mean          =  -2.4593205574948E-05
(PID.TID 0000.0001) // =======================================================
(PID.TID 0000.0001) // End MONITOR dynamic field statistics
(PID.TID 0000.0001) // =======================================================
(PID.TID 0000.0001) // =======================================================
(PID.TID 0000.0001) // Begin OBCS MONITOR field statistics
(PID.TID 0000.0001) // =======================================================
(PID.TID 0000.0001) %MON obc_E_uVel_max               =   1.5196190215647E-02
(PID.TID 0000.0001) %MON obc_E_uVel_min               =  -3.6727920174599E-02
(PID.TID 0000.0001) %MON obc_E_uVel_mean              =  -4.4418895776611E-04
(PID.TID 0000.0001) %MON obc_E_uVel_sd                =   7.1840489387000E-03
(PID.TID 0000.0001) %MON obc_E_uVel_Int               =  -9.1720124274008E+05
(PID.TID 0000.0001) %MON obc_W_uVel_max               =   1.8005758523941E-02
(PID.TID 0000.0001) %MON obc_W_uVel_min               =  -2.7252623811364E-02
(PID.TID 0000.0001) %MON obc_W_uVel_mean              =  -6.3465182588866E-04
(PID.TID 0000.0001) %MON obc_W_uVel_sd                =   7.6776894306928E-03
(PID.TID 0000.0001) %MON obc_W_uVel_Int               =  -7.3392865753505E+04
(PID.TID 0000.0001) %MON obc_N_vVel_max               =   1.5229964628816E-02
(PID.TID 0000.0001) %MON obc_N_vVel_min               =  -3.2034579664469E-02
(PID.TID 0000.0001) %MON obc_N_vVel_mean              =   1.1833664477493E-03
(PID.TID 0000.0001) %MON obc_N_vVel_sd                =   8.5601217363373E-03
(PID.TID 0000.0001) %MON obc_N_vVel_Int               =   1.5526952751432E+05
(PID.TID 0000.0001) %MON obc_S_vVel_max               =   4.4600074179471E-03
(PID.TID 0000.0001) %MON obc_S_vVel_min               =  -5.6353695690632E-02
(PID.TID 0000.0001) %MON obc_S_vVel_mean              =  -1.8315353998245E-03
(PID.TID 0000.0001) %MON obc_S_vVel_sd                =   5.2679812136830E-03
(PID.TID 0000.0001) %MON obc_S_vVel_Int               =  -1.5930363882973E+06
(PID.TID 0000.0001) // =======================================================
(PID.TID 0000.0001) // End OBCS MONITOR field statistics
(PID.TID 0000.0001) // =======================================================
(PID.TID 0000.0001) // =======================================================
(PID.TID 0000.0001) // Begin MONITOR SEAICE statistics
(PID.TID 0000.0001) // =======================================================
(PID.TID 0000.0001) %MON seaice_tsnumber              =                     6
(PID.TID 0000.0001) %MON seaice_time_sec              =   2.1600000000000E+04
(PID.TID 0000.0001) %MON seaice_uice_max              =   1.4430799150395E-01
(PID.TID 0000.0001) %MON seaice_uice_min              =  -6.7570216953754E-02
(PID.TID 0000.0001) %MON seaice_uice_mean             =   6.1690056252106E-02
(PID.TID 0000.0001) %MON seaice_uice_sd               =   4.9724367633606E-02
(PID.TID 0000.0001) %MON seaice_uice_del2             =   1.5566692135601E-02
(PID.TID 0000.0001) %MON seaice_vice_max              =  -1.5521424449913E-04
(PID.TID 0000.0001) %MON seaice_vice_min              =  -1.1594454944134E-01
(PID.TID 0000.0001) %MON seaice_vice_mean             =  -3.4019731673366E-02
(PID.TID 0000.0001) %MON seaice_vice_sd               =   3.1747695540397E-02
(PID.TID 0000.0001) %MON seaice_vice_del2             =   4.3211663629670E-03
(PID.TID 0000.0001) %MON seaice_area_max              =   9.9103342987196E-01
(PID.TID 0000.0001) %MON seaice_area_min              =   0.0000000000000E+00
(PID.TID 0000.0001) %MON seaice_area_mean             =   3.1448245550676E-01
(PID.TID 0000.0001) %MON seaice_area_sd               =   3.9209891970790E-01
(PID.TID 0000.0001) %MON seaice_area_del2             =   6.7232519142229E-02
(PID.TID 0000.0001) %MON seaice_heff_max              =   4.2667951707018E-01
(PID.TID 0000.0001) %MON seaice_heff_min              =   0.0000000000000E+00
(PID.TID 0000.0001) %MON seaice_heff_mean             =   7.9208730656396E-02
(PID.TID 0000.0001) %MON seaice_heff_sd               =   1.2069474105379E-01
(PID.TID 0000.0001) %MON seaice_heff_del2             =   1.3062892988034E-02
(PID.TID 0000.0001) %MON seaice_hsnow_max             =   8.1608664235776E-02
(PID.TID 0000.0001) %MON seaice_hsnow_min             =   0.0000000000000E+00
(PID.TID 0000.0001) %MON seaice_hsnow_mean            =   1.7232783981717E-02
(PID.TID 0000.0001) %MON seaice_hsnow_sd              =   2.4863739922476E-02
(PID.TID 0000.0001) %MON seaice_hsnow_del2            =   4.3205758652454E-03
(PID.TID 0000.0001) %MON seaice_hsalt_max             =   9.7058929475883E+01
(PID.TID 0000.0001) %MON seaice_hsalt_min             =   0.0000000000000E+00
(PID.TID 0000.0001) %MON seaice_hsalt_mean            =   9.2909285165024E+00
(PID.TID 0000.0001) %MON seaice_hsalt_sd              =   1.9885637757971E+01
(PID.TID 0000.0001) %MON seaice_hsalt_del2            =   9.3279891960164E+00
(PID.TID 0000.0001) // =======================================================
(PID.TID 0000.0001) // End MONITOR SEAICE statistics
(PID.TID 0000.0001) // =======================================================
(PID.TID 0000.0001) %CHECKPOINT         6 ckptA
(PID.TID 0000.0001)   Seconds in section "ALL                    [THE_MODEL_MAIN]":
(PID.TID 0000.0001)           User time:  0.48813500534743071
(PID.TID 0000.0001)         System time:   3.6313999444246292E-002
(PID.TID 0000.0001)     Wall clock time:  0.52483391761779785
(PID.TID 0000.0001)          No. starts:           1
(PID.TID 0000.0001)           No. stops:           1
(PID.TID 0000.0001)   Seconds in section "INITIALISE_FIXED       [THE_MODEL_MAIN]":
(PID.TID 0000.0001)           User time:   7.7437999658286572E-002
(PID.TID 0000.0001)         System time:   2.4473000317811966E-002
(PID.TID 0000.0001)     Wall clock time:  0.10227608680725098
(PID.TID 0000.0001)          No. starts:           1
(PID.TID 0000.0001)           No. stops:           1
(PID.TID 0000.0001)   Seconds in section "THE_MAIN_LOOP          [THE_MODEL_MAIN]":
(PID.TID 0000.0001)           User time:  0.41065798699855804
(PID.TID 0000.0001)         System time:   1.1838000267744064E-002
(PID.TID 0000.0001)     Wall clock time:  0.42252492904663086
(PID.TID 0000.0001)          No. starts:           1
(PID.TID 0000.0001)           No. stops:           1
(PID.TID 0000.0001)   Seconds in section "INITIALISE_VARIA    [THE_MAIN_LOOP]":
(PID.TID 0000.0001)           User time:   2.3979999125003815E-002
(PID.TID 0000.0001)         System time:   3.9460007101297379E-003
(PID.TID 0000.0001)     Wall clock time:   2.7929067611694336E-002
(PID.TID 0000.0001)          No. starts:           1
(PID.TID 0000.0001)           No. stops:           1
(PID.TID 0000.0001)   Seconds in section "MAIN LOOP           [THE_MAIN_LOOP]":
(PID.TID 0000.0001)           User time:  0.38665499538183212
(PID.TID 0000.0001)         System time:   7.8860018402338028E-003
(PID.TID 0000.0001)     Wall clock time:  0.39457106590270996
(PID.TID 0000.0001)          No. starts:           1
(PID.TID 0000.0001)           No. stops:           1
(PID.TID 0000.0001)   Seconds in section "MAIN_DO_LOOP        [THE_MAIN_LOOP]":
(PID.TID 0000.0001)           User time:  0.38661601394414902
(PID.TID 0000.0001)         System time:   7.8829992562532425E-003
(PID.TID 0000.0001)     Wall clock time:  0.39452886581420898
(PID.TID 0000.0001)          No. starts:           5
(PID.TID 0000.0001)           No. stops:           5
(PID.TID 0000.0001)   Seconds in section "FORWARD_STEP        [MAIN_DO_LOOP]":
(PID.TID 0000.0001)           User time:  0.38655298948287964
(PID.TID 0000.0001)         System time:   7.8799985349178314E-003
(PID.TID 0000.0001)     Wall clock time:  0.39446187019348145
(PID.TID 0000.0001)          No. starts:           5
(PID.TID 0000.0001)           No. stops:           5
(PID.TID 0000.0001)   Seconds in section "LOAD_FIELDS_DRIVER  [FORWARD_STEP]":
(PID.TID 0000.0001)           User time:   6.1629787087440491E-003
(PID.TID 0000.0001)         System time:   4.8999860882759094E-004
(PID.TID 0000.0001)     Wall clock time:   6.6528320312500000E-003
(PID.TID 0000.0001)          No. starts:           5
(PID.TID 0000.0001)           No. stops:           5
(PID.TID 0000.0001)   Seconds in section "EXF_GETFORCING     [LOAD_FLDS_DRIVER]":
(PID.TID 0000.0001)           User time:   5.9380307793617249E-003
(PID.TID 0000.0001)         System time:   4.6599842607975006E-004
(PID.TID 0000.0001)     Wall clock time:   6.4129829406738281E-003
(PID.TID 0000.0001)          No. starts:           5
(PID.TID 0000.0001)           No. stops:           5
(PID.TID 0000.0001)   Seconds in section "EXTERNAL_FLDS_LOAD [LOAD_FLDS_DRIVER]":
(PID.TID 0000.0001)           User time:   9.7997486591339111E-005
(PID.TID 0000.0001)         System time:   1.7000362277030945E-005
(PID.TID 0000.0001)     Wall clock time:   1.1396408081054688E-004
(PID.TID 0000.0001)          No. starts:           5
(PID.TID 0000.0001)           No. stops:           5
(PID.TID 0000.0001)   Seconds in section "DO_ATMOSPHERIC_PHYS [FORWARD_STEP]":
(PID.TID 0000.0001)           User time:   4.5023858547210693E-005
(PID.TID 0000.0001)         System time:   2.0004808902740479E-006
(PID.TID 0000.0001)     Wall clock time:   4.6968460083007812E-005
(PID.TID 0000.0001)          No. starts:           5
(PID.TID 0000.0001)           No. stops:           5
(PID.TID 0000.0001)   Seconds in section "DO_OCEANIC_PHYS     [FORWARD_STEP]":
(PID.TID 0000.0001)           User time:  0.15691199898719788
(PID.TID 0000.0001)         System time:   3.2000243663787842E-005
(PID.TID 0000.0001)     Wall clock time:  0.15697979927062988
(PID.TID 0000.0001)          No. starts:           5
(PID.TID 0000.0001)           No. stops:           5
(PID.TID 0000.0001)   Seconds in section "SEAICE_MODEL    [DO_OCEANIC_PHYS]":
(PID.TID 0000.0001)           User time:   3.4515015780925751E-002
(PID.TID 0000.0001)         System time:   0.0000000000000000
(PID.TID 0000.0001)     Wall clock time:   3.4517049789428711E-002
(PID.TID 0000.0001)          No. starts:           5
(PID.TID 0000.0001)           No. stops:           5
(PID.TID 0000.0001)   Seconds in section "SEAICE_DYNSOLVER   [SEAICE_MODEL]":
(PID.TID 0000.0001)           User time:   2.7100995182991028E-002
(PID.TID 0000.0001)         System time:   0.0000000000000000
(PID.TID 0000.0001)     Wall clock time:   2.7108669281005859E-002
(PID.TID 0000.0001)          No. starts:           5
(PID.TID 0000.0001)           No. stops:           5
(PID.TID 0000.0001)   Seconds in section "KPP_CALC [DO_OCEANIC_PHYS]":
(PID.TID 0000.0001)           User time:   8.4598042070865631E-002
(PID.TID 0000.0001)         System time:   0.0000000000000000
(PID.TID 0000.0001)     Wall clock time:   8.4630727767944336E-002
(PID.TID 0000.0001)          No. starts:          10
(PID.TID 0000.0001)           No. stops:          10
(PID.TID 0000.0001)   Seconds in section "DYNAMICS            [FORWARD_STEP]":
(PID.TID 0000.0001)           User time:   7.3549002408981323E-002
(PID.TID 0000.0001)         System time:   0.0000000000000000
(PID.TID 0000.0001)     Wall clock time:   7.3558092117309570E-002
(PID.TID 0000.0001)          No. starts:           5
(PID.TID 0000.0001)           No. stops:           5
(PID.TID 0000.0001)   Seconds in section "SOLVE_FOR_PRESSURE  [FORWARD_STEP]":
(PID.TID 0000.0001)           User time:   5.1929652690887451E-003
(PID.TID 0000.0001)         System time:   0.0000000000000000
(PID.TID 0000.0001)     Wall clock time:   5.1975250244140625E-003
(PID.TID 0000.0001)          No. starts:           5
(PID.TID 0000.0001)           No. stops:           5
(PID.TID 0000.0001)   Seconds in section "MOM_CORRECTION_STEP [FORWARD_STEP]":
(PID.TID 0000.0001)           User time:   4.1850209236145020E-003
(PID.TID 0000.0001)         System time:   0.0000000000000000
(PID.TID 0000.0001)     Wall clock time:   4.1873455047607422E-003
(PID.TID 0000.0001)          No. starts:           5
(PID.TID 0000.0001)           No. stops:           5
(PID.TID 0000.0001)   Seconds in section "INTEGR_CONTINUITY   [FORWARD_STEP]":
(PID.TID 0000.0001)           User time:   1.6699880361557007E-003
(PID.TID 0000.0001)         System time:   0.0000000000000000
(PID.TID 0000.0001)     Wall clock time:   1.6739368438720703E-003
(PID.TID 0000.0001)          No. starts:           5
(PID.TID 0000.0001)           No. stops:           5
(PID.TID 0000.0001)   Seconds in section "BLOCKING_EXCHANGES  [FORWARD_STEP]":
(PID.TID 0000.0001)           User time:   4.8740059137344360E-003
(PID.TID 0000.0001)         System time:   6.1001628637313843E-005
(PID.TID 0000.0001)     Wall clock time:   4.9402713775634766E-003
(PID.TID 0000.0001)          No. starts:          10
(PID.TID 0000.0001)           No. stops:          10
(PID.TID 0000.0001)   Seconds in section "THERMODYNAMICS      [FORWARD_STEP]":
(PID.TID 0000.0001)           User time:  0.11132000386714935
(PID.TID 0000.0001)         System time:   3.6430004984140396E-003
(PID.TID 0000.0001)     Wall clock time:  0.11497378349304199
(PID.TID 0000.0001)          No. starts:           5
(PID.TID 0000.0001)           No. stops:           5
(PID.TID 0000.0001)   Seconds in section "TRC_CORRECTION_STEP [FORWARD_STEP]":
(PID.TID 0000.0001)           User time:   3.3989548683166504E-005
(PID.TID 0000.0001)         System time:   1.0021030902862549E-006
(PID.TID 0000.0001)     Wall clock time:   3.4093856811523438E-005
(PID.TID 0000.0001)          No. starts:           5
(PID.TID 0000.0001)           No. stops:           5
(PID.TID 0000.0001)   Seconds in section "DO_STATEVARS_TAVE   [FORWARD_STEP]":
(PID.TID 0000.0001)           User time:   5.1540285348892212E-003
(PID.TID 0000.0001)         System time:   0.0000000000000000
(PID.TID 0000.0001)     Wall clock time:   5.1598548889160156E-003
(PID.TID 0000.0001)          No. starts:           5
(PID.TID 0000.0001)           No. stops:           5
(PID.TID 0000.0001)   Seconds in section "MONITOR             [FORWARD_STEP]":
(PID.TID 0000.0001)           User time:   1.1464953422546387E-002
(PID.TID 0000.0001)         System time:   0.0000000000000000
(PID.TID 0000.0001)     Wall clock time:   1.1469841003417969E-002
(PID.TID 0000.0001)          No. starts:           5
(PID.TID 0000.0001)           No. stops:           5
(PID.TID 0000.0001)   Seconds in section "DO_THE_MODEL_IO     [FORWARD_STEP]":
(PID.TID 0000.0001)           User time:   3.8349777460098267E-003
(PID.TID 0000.0001)         System time:   3.5280026495456696E-003
(PID.TID 0000.0001)     Wall clock time:   7.3699951171875000E-003
(PID.TID 0000.0001)          No. starts:           5
(PID.TID 0000.0001)           No. stops:           5
(PID.TID 0000.0001)   Seconds in section "DO_WRITE_PICKUP     [FORWARD_STEP]":
(PID.TID 0000.0001)           User time:   1.4919787645339966E-003
(PID.TID 0000.0001)         System time:   1.0899826884269714E-004
(PID.TID 0000.0001)     Wall clock time:   1.6033649444580078E-003
(PID.TID 0000.0001)          No. starts:           5
(PID.TID 0000.0001)           No. stops:           5
(PID.TID 0000.0001) // ======================================================
(PID.TID 0000.0001) // Tile <-> Tile communication statistics
(PID.TID 0000.0001) // ======================================================
(PID.TID 0000.0001) // o Tile number: 000001
(PID.TID 0000.0001) //         No. X exchanges =              0
(PID.TID 0000.0001) //            Max. X spins =              0
(PID.TID 0000.0001) //            Min. X spins =     1000000000
(PID.TID 0000.0001) //          Total. X spins =              0
(PID.TID 0000.0001) //            Avg. X spins =       0.00E+00
(PID.TID 0000.0001) //         No. Y exchanges =              0
(PID.TID 0000.0001) //            Max. Y spins =              0
(PID.TID 0000.0001) //            Min. Y spins =     1000000000
(PID.TID 0000.0001) //          Total. Y spins =              0
(PID.TID 0000.0001) //            Avg. Y spins =       0.00E+00
(PID.TID 0000.0001) // o Tile number: 000002
(PID.TID 0000.0001) //         No. X exchanges =              0
(PID.TID 0000.0001) //            Max. X spins =              0
(PID.TID 0000.0001) //            Min. X spins =     1000000000
(PID.TID 0000.0001) //          Total. X spins =              0
(PID.TID 0000.0001) //            Avg. X spins =       0.00E+00
(PID.TID 0000.0001) //         No. Y exchanges =              0
(PID.TID 0000.0001) //            Max. Y spins =              0
(PID.TID 0000.0001) //            Min. Y spins =     1000000000
(PID.TID 0000.0001) //          Total. Y spins =              0
(PID.TID 0000.0001) //            Avg. Y spins =       0.00E+00
(PID.TID 0000.0001) // o Thread number: 000001
(PID.TID 0000.0001) //            No. barriers =           6278
(PID.TID 0000.0001) //      Max. barrier spins =              1
(PID.TID 0000.0001) //      Min. barrier spins =              1
(PID.TID 0000.0001) //     Total barrier spins =           6278
(PID.TID 0000.0001) //      Avg. barrier spins =       1.00E+00
PROGRAM MAIN: Execution ended Normally
