(PID.TID 0000.0001) 
(PID.TID 0000.0001) // ======================================================
(PID.TID 0000.0001) //                      MITgcm UV
(PID.TID 0000.0001) //                      =========
(PID.TID 0000.0001) // ======================================================
(PID.TID 0000.0001) // execution environment starting up...
(PID.TID 0000.0001) 
(PID.TID 0000.0001) // MITgcmUV version:  checkpoint65z
(PID.TID 0000.0001) // Build user:        jmc
(PID.TID 0000.0001) // Build host:        baudelaire
(PID.TID 0000.0001) // Build date:        Thu Oct  6 12:17:54 EDT 2016
(PID.TID 0000.0001) 
(PID.TID 0000.0001) // =======================================================
(PID.TID 0000.0001) // Execution Environment parameter file "eedata"
(PID.TID 0000.0001) // =======================================================
(PID.TID 0000.0001) ># Example "eedata" file
(PID.TID 0000.0001) ># Lines beginning "#" are comments
(PID.TID 0000.0001) ># nTx - No. threads per process in X
(PID.TID 0000.0001) ># nTy - No. threads per process in Y
(PID.TID 0000.0001) > &EEPARMS
(PID.TID 0000.0001) > /
(PID.TID 0000.0001) ># Note: Some systems use & as the
(PID.TID 0000.0001) ># namelist terminator. Other systems
(PID.TID 0000.0001) ># use a / character (as shown here).
(PID.TID 0000.0001) 
(PID.TID 0000.0001) // =======================================================
(PID.TID 0000.0001) // Computational Grid Specification ( see files "SIZE.h" )
(PID.TID 0000.0001) //                                  ( and "eedata"       )
(PID.TID 0000.0001) // =======================================================
(PID.TID 0000.0001)      nPx =    1 ; /* No. processes in X */
(PID.TID 0000.0001)      nPy =    1 ; /* No. processes in Y */
(PID.TID 0000.0001)      nSx =    2 ; /* No. tiles in X per process */
(PID.TID 0000.0001)      nSy =    1 ; /* No. tiles in Y per process */
(PID.TID 0000.0001)      sNx =   30 ; /* Tile size in X */
(PID.TID 0000.0001)      sNy =    1 ; /* Tile size in Y */
(PID.TID 0000.0001)      OLx =    2 ; /* Tile overlap distance in X */
(PID.TID 0000.0001)      OLy =    2 ; /* Tile overlap distance in Y */
(PID.TID 0000.0001)      nTx =    1 ; /* No. threads in X per process */
(PID.TID 0000.0001)      nTy =    1 ; /* No. threads in Y per process */
(PID.TID 0000.0001)       Nr =   20 ; /* No. levels in the vertical   */
(PID.TID 0000.0001)       Nx =   60 ; /* Total domain size in X ( = nPx*nSx*sNx ) */
(PID.TID 0000.0001)       Ny =    1 ; /* Total domain size in Y ( = nPy*nSy*sNy ) */
(PID.TID 0000.0001)   nTiles =    2 ; /* Total no. tiles per process ( = nSx*nSy ) */
(PID.TID 0000.0001)   nProcs =    1 ; /* Total no. processes ( = nPx*nPy ) */
(PID.TID 0000.0001) nThreads =    1 ; /* Total no. threads per process ( = nTx*nTy ) */
(PID.TID 0000.0001) usingMPI =    F ; /* Flag used to control whether MPI is in use */
(PID.TID 0000.0001)                   /*  note: To execute a program with MPI calls */
(PID.TID 0000.0001)                   /*  it must be launched appropriately e.g     */
(PID.TID 0000.0001)                   /*  "mpirun -np 64 ......"                    */
(PID.TID 0000.0001) useCoupler=    F ;/* Flag used to control communications with   */
(PID.TID 0000.0001)                   /*  other model components, through a coupler */
(PID.TID 0000.0001) debugMode =    F ; /* print debug msg. (sequence of S/R calls)  */
(PID.TID 0000.0001) printMapIncludesZeros=    F ; /* print zeros in Std.Output maps */
(PID.TID 0000.0001) maxLengthPrt1D=   65 /* maxLength of 1D array printed to StdOut */
(PID.TID 0000.0001) 
(PID.TID 0000.0001) // ======================================================
(PID.TID 0000.0001) // Mapping of tiles to threads
(PID.TID 0000.0001) // ======================================================
(PID.TID 0000.0001) // -o- Thread   1, tiles (   1:   2,   1:   1)
(PID.TID 0000.0001) 
(PID.TID 0000.0001) // ======================================================
(PID.TID 0000.0001) // Tile <-> Tile connectvity table
(PID.TID 0000.0001) // ======================================================
(PID.TID 0000.0001) // Tile number: 000001 (process no. = 000000)
(PID.TID 0000.0001) //        WEST: Tile = 000002, Process = 000000, Comm = put
(PID.TID 0000.0001) //                bi = 000002, bj = 000001
(PID.TID 0000.0001) //        EAST: Tile = 000002, Process = 000000, Comm = put
(PID.TID 0000.0001) //                bi = 000002, bj = 000001
(PID.TID 0000.0001) //       SOUTH: Tile = 000001, Process = 000000, Comm = put
(PID.TID 0000.0001) //                bi = 000001, bj = 000001
(PID.TID 0000.0001) //       NORTH: Tile = 000001, Process = 000000, Comm = put
(PID.TID 0000.0001) //                bi = 000001, bj = 000001
(PID.TID 0000.0001) // Tile number: 000002 (process no. = 000000)
(PID.TID 0000.0001) //        WEST: Tile = 000001, Process = 000000, Comm = put
(PID.TID 0000.0001) //                bi = 000001, bj = 000001
(PID.TID 0000.0001) //        EAST: Tile = 000001, Process = 000000, Comm = put
(PID.TID 0000.0001) //                bi = 000001, bj = 000001
(PID.TID 0000.0001) //       SOUTH: Tile = 000002, Process = 000000, Comm = put
(PID.TID 0000.0001) //                bi = 000002, bj = 000001
(PID.TID 0000.0001) //       NORTH: Tile = 000002, Process = 000000, Comm = put
(PID.TID 0000.0001) //                bi = 000002, bj = 000001
(PID.TID 0000.0001) 
(PID.TID 0000.0001)  INI_PARMS: opening model parameter file "data"
(PID.TID 0000.0001)  OPEN_COPY_DATA_FILE: opening file data
(PID.TID 0000.0001) // =======================================================
(PID.TID 0000.0001) // Parameter file "data"
(PID.TID 0000.0001) // =======================================================
(PID.TID 0000.0001) ># ====================
(PID.TID 0000.0001) ># | Model parameters |
(PID.TID 0000.0001) ># ====================
(PID.TID 0000.0001) >#
(PID.TID 0000.0001) ># Continuous equation parameters
(PID.TID 0000.0001) > &PARM01
(PID.TID 0000.0001) > Tref = 0.04842, 0.0433231, 0.0382263, 0.0331295,
(PID.TID 0000.0001) >        0.0280326, 0.0229358, 0.0178389, 0.0127421,
(PID.TID 0000.0001) >        0.00764526, 0.00254842, -0.00254842, -0.00764526,
(PID.TID 0000.0001) >       -0.0127421, -0.0178389, -0.0229358, -0.0280326,
(PID.TID 0000.0001) >       -0.0331295, -0.0382263, -0.0433231, -0.04842,
(PID.TID 0000.0001) > sRef= 20*35.,
(PID.TID 0000.0001) > viscAz=1.E-5,
(PID.TID 0000.0001) > viscAh=1.E-5,
(PID.TID 0000.0001) > no_slip_sides=.FALSE.,
(PID.TID 0000.0001) > no_slip_bottom=.FALSE.,
(PID.TID 0000.0001) > diffKhT=1.E-5
(PID.TID 0000.0001) > diffKzT=1.E-5,
(PID.TID 0000.0001) > implicitDiffusion=.TRUE.
(PID.TID 0000.0001) > implicitViscosity=.TRUE.
(PID.TID 0000.0001) > f0=0.0,
(PID.TID 0000.0001) > beta=0.E-11,
(PID.TID 0000.0001) > eosType='LINEAR',
(PID.TID 0000.0001) > tAlpha=2.E-4,
(PID.TID 0000.0001) > sBeta =0.E-4,
(PID.TID 0000.0001) > gravity=9.81,
(PID.TID 0000.0001) > implicitFreeSurface=.TRUE.,
(PID.TID 0000.0001) > exactConserv=.TRUE.
(PID.TID 0000.0001) > nonHydrostatic=.FALSE.,
(PID.TID 0000.0001) > hFacMin=0.2,
(PID.TID 0000.0001) > implicSurfPress=0.5,
(PID.TID 0000.0001) > implicDiv2DFlow=0.5,
(PID.TID 0000.0001) > nonlinFreeSurf=3,
(PID.TID 0000.0001) > hFacInf=0.2,
(PID.TID 0000.0001) > hFacSup=1.8,
(PID.TID 0000.0001) > saltStepping=.FALSE.,
(PID.TID 0000.0001) >#- not safe to use globalFiles in multi-processors runs
(PID.TID 0000.0001) >#globalFiles=.TRUE.,
(PID.TID 0000.0001) > readBinaryPrec=64,
(PID.TID 0000.0001) > writeBinaryPrec=64,
(PID.TID 0000.0001) > writeStatePrec=64,
(PID.TID 0000.0001) > /
(PID.TID 0000.0001) >
(PID.TID 0000.0001) ># Elliptic solver parameters
(PID.TID 0000.0001) > &PARM02
(PID.TID 0000.0001) > cg2dMaxIters=1000,
(PID.TID 0000.0001) > cg2dTargetResidual=1.E-13,
(PID.TID 0000.0001) > cg3dMaxIters=400,
(PID.TID 0000.0001) > cg3dTargetResidual=1.E-13,
(PID.TID 0000.0001) > /
(PID.TID 0000.0001) >
(PID.TID 0000.0001) ># Time stepping parameters
(PID.TID 0000.0001) > &PARM03
(PID.TID 0000.0001) > nIter0=0,
(PID.TID 0000.0001) > nTimeSteps=300,
(PID.TID 0000.0001) > deltaT=450.,
(PID.TID 0000.0001) > abEps=0.1,
(PID.TID 0000.0001) > pChkptFreq=0.,
(PID.TID 0000.0001) > chkptFreq=0.,
(PID.TID 0000.0001) > dumpFreq=86400.,
(PID.TID 0000.0001) > monitorFreq=7200.,
(PID.TID 0000.0001) > monitorSelect=2,
(PID.TID 0000.0001) > /
(PID.TID 0000.0001) >
(PID.TID 0000.0001) ># Gridding parameters
(PID.TID 0000.0001) > &PARM04
(PID.TID 0000.0001) > usingCartesianGrid=.TRUE.,
(PID.TID 0000.0001) > delXfile='delXvar',
(PID.TID 0000.0001) > delY=5.E3,
(PID.TID 0000.0001) > delZ=20*10.,
(PID.TID 0000.0001) > /
(PID.TID 0000.0001) >
(PID.TID 0000.0001) ># Input datasets
(PID.TID 0000.0001) > &PARM05
(PID.TID 0000.0001) > hydrogThetaFile='T.init',
(PID.TID 0000.0001) > bathyFile='topog.slope',
(PID.TID 0000.0001) > /
(PID.TID 0000.0001) 
(PID.TID 0000.0001)  INI_PARMS ; starts to read PARM01
(PID.TID 0000.0001)  INI_PARMS ; read PARM01 : OK
(PID.TID 0000.0001)  INI_PARMS ; starts to read PARM02
(PID.TID 0000.0001)  INI_PARMS ; read PARM02 : OK
(PID.TID 0000.0001)  INI_PARMS ; starts to read PARM03
(PID.TID 0000.0001)  INI_PARMS ; read PARM03 : OK
(PID.TID 0000.0001)  INI_PARMS ; starts to read PARM04
(PID.TID 0000.0001)  INI_PARMS ; read PARM04 : OK
(PID.TID 0000.0001)  INI_PARMS ; starts to read PARM05
(PID.TID 0000.0001)  INI_PARMS ; read PARM05 : OK
(PID.TID 0000.0001)  INI_PARMS: finished reading file "data"
(PID.TID 0000.0001)  PACKAGES_BOOT: opening data.pkg
(PID.TID 0000.0001)  OPEN_COPY_DATA_FILE: opening file data.pkg
(PID.TID 0000.0001) // =======================================================
(PID.TID 0000.0001) // Parameter file "data.pkg"
(PID.TID 0000.0001) // =======================================================
(PID.TID 0000.0001) ># Packages
(PID.TID 0000.0001) > &PACKAGES
(PID.TID 0000.0001) > useOBCS=.TRUE.,
(PID.TID 0000.0001) > useKL10=.TRUE.,
(PID.TID 0000.0001) > /
(PID.TID 0000.0001) 
(PID.TID 0000.0001)  PACKAGES_BOOT: finished reading data.pkg
(PID.TID 0000.0001)  PACKAGES_BOOT: On/Off package Summary
 --------  pkgs with a standard "usePKG" On/Off switch in "data.pkg":  --------
 pkg/obcs                 compiled   and   used ( useOBCS                  = T )
 pkg/kl10                 compiled   and   used ( useKL10                  = T )
 pkg/mnc                  compiled but not used ( useMNC                   = F )
 -------- pkgs without standard "usePKG" On/Off switch in "data.pkg":  --------
 pkg/generic_advdiff      compiled   and   used ( useGAD                   = T )
 pkg/mom_common           compiled   and   used ( momStepping              = T )
 pkg/mom_vecinv           compiled but not used ( +vectorInvariantMomentum = F )
 pkg/mom_fluxform         compiled   and   used ( & not vectorInvariantMom = T )
 pkg/monitor              compiled   and   used ( monitorFreq > 0.         = T )
 pkg/timeave              compiled but not used ( taveFreq > 0.            = F )
 pkg/debug                compiled but not used ( debugMode                = F )
 pkg/rw                   compiled   and   used
 pkg/mdsio                compiled   and   used
(PID.TID 0000.0001)  PACKAGES_BOOT: End of package Summary
(PID.TID 0000.0001) 
(PID.TID 0000.0001)  OBCS_READPARMS: opening data.obcs
(PID.TID 0000.0001)  OPEN_COPY_DATA_FILE: opening file data.obcs
(PID.TID 0000.0001) // =======================================================
(PID.TID 0000.0001) // Parameter file "data.obcs"
(PID.TID 0000.0001) // =======================================================
(PID.TID 0000.0001) ># Open-boundaries
(PID.TID 0000.0001) > &OBCS_PARM01
(PID.TID 0000.0001) > OB_Ieast=-1,
(PID.TID 0000.0001) > OB_Iwest=1,
(PID.TID 0000.0001) > /
(PID.TID 0000.0001) >
(PID.TID 0000.0001) 
(PID.TID 0000.0001)  OBCS_READPARMS: finished reading data.obcs
(PID.TID 0000.0001)  OB_indexUnset = /* unset OB index value (i.e. no OB) */
(PID.TID 0000.0001)                       0
(PID.TID 0000.0001)     ;
(PID.TID 0000.0001)  Northern OB global indices : OB_Jnorth =
(PID.TID 0000.0001)    60 @        0                            /* I =  1: 60 */
(PID.TID 0000.0001)  Southern OB global indices : OB_Jsouth =
(PID.TID 0000.0001)    60 @        0                            /* I =  1: 60 */
(PID.TID 0000.0001)  Eastern  OB global indices : OB_Ieast =
(PID.TID 0000.0001)                      60                     /* J =  1 */
(PID.TID 0000.0001)  Western  OB global indices : OB_Iwest =
(PID.TID 0000.0001)                       1                     /* J =  1 */
(PID.TID 0000.0001) 
(PID.TID 0000.0001)  KL10_READPARMS: opening data.kl10
(PID.TID 0000.0001)  OPEN_COPY_DATA_FILE: opening file data.kl10
(PID.TID 0000.0001) // =======================================================
(PID.TID 0000.0001) // Parameter file "data.kl10"
(PID.TID 0000.0001) // =======================================================
(PID.TID 0000.0001) ># =====================================================================
(PID.TID 0000.0001) ># | Parameters for Klymak and Legg (2010) vertical mixing scheme      |
(PID.TID 0000.0001) ># =====================================================================
(PID.TID 0000.0001) > &KL10_PARM01
(PID.TID 0000.0001) > KLwriteState=.TRUE.,
(PID.TID 0000.0001) ># keep commented if you want the same average frequency as the other snapshots
(PID.TID 0000.0001) >  KLtaveFreq=44640.,
(PID.TID 0000.0001) ># KLdumpFreq=1240.,
(PID.TID 0000.0001) > KLviscMax=300.
(PID.TID 0000.0001) > /
(PID.TID 0000.0001) 
(PID.TID 0000.0001)  KL10_READPARMS: finished reading data.kl10
(PID.TID 0000.0001) SET_PARMS: done
(PID.TID 0000.0001)  MDS_READVEC_LOC: open file: delXvar
(PID.TID 0000.0001) S/R LOAD_GRID_SPACING: delX loaded from file: delXvar
(PID.TID 0000.0001) Enter INI_VERTICAL_GRID: setInterFDr=    T ; setCenterDr=    F
(PID.TID 0000.0001) %MON XC_max                       =   1.2972950819672E+04
(PID.TID 0000.0001) %MON XC_min                       =   1.0901639344262E+02
(PID.TID 0000.0001) %MON XC_mean                      =   6.5409836065574E+03
(PID.TID 0000.0001) %MON XC_sd                        =   3.7759141042143E+03
(PID.TID 0000.0001) %MON XG_max                       =   1.2863934426229E+04
(PID.TID 0000.0001) %MON XG_min                       =   0.0000000000000E+00
(PID.TID 0000.0001) %MON XG_mean                      =   6.4319672131147E+03
(PID.TID 0000.0001) %MON XG_sd                        =   3.7759141042143E+03
(PID.TID 0000.0001) %MON DXC_max                      =   2.1803278688525E+02
(PID.TID 0000.0001) %MON DXC_min                      =   2.1803278688525E+02
(PID.TID 0000.0001) %MON DXC_mean                     =   2.1803278688525E+02
(PID.TID 0000.0001) %MON DXC_sd                       =   1.4210854715202E-13
(PID.TID 0000.0001) %MON DXF_max                      =   2.1803278688525E+02
(PID.TID 0000.0001) %MON DXF_min                      =   2.1803278688525E+02
(PID.TID 0000.0001) %MON DXF_mean                     =   2.1803278688525E+02
(PID.TID 0000.0001) %MON DXF_sd                       =   1.4210854715202E-13
(PID.TID 0000.0001) %MON DXG_max                      =   2.1803278688525E+02
(PID.TID 0000.0001) %MON DXG_min                      =   2.1803278688525E+02
(PID.TID 0000.0001) %MON DXG_mean                     =   2.1803278688525E+02
(PID.TID 0000.0001) %MON DXG_sd                       =   1.4210854715202E-13
(PID.TID 0000.0001) %MON DXV_max                      =   2.1803278688525E+02
(PID.TID 0000.0001) %MON DXV_min                      =   2.1803278688525E+02
(PID.TID 0000.0001) %MON DXV_mean                     =   2.1803278688525E+02
(PID.TID 0000.0001) %MON DXV_sd                       =   1.4210854715202E-13
(PID.TID 0000.0001) %MON YC_max                       =   2.5000000000000E+03
(PID.TID 0000.0001) %MON YC_min                       =   2.5000000000000E+03
(PID.TID 0000.0001) %MON YC_mean                      =   2.5000000000000E+03
(PID.TID 0000.0001) %MON YC_sd                        =   0.0000000000000E+00
(PID.TID 0000.0001) %MON YG_max                       =   0.0000000000000E+00
(PID.TID 0000.0001) %MON YG_min                       =   0.0000000000000E+00
(PID.TID 0000.0001) %MON YG_mean                      =   0.0000000000000E+00
(PID.TID 0000.0001) %MON YG_sd                        =   0.0000000000000E+00
(PID.TID 0000.0001) %MON DYC_max                      =   5.0000000000000E+03
(PID.TID 0000.0001) %MON DYC_min                      =   5.0000000000000E+03
(PID.TID 0000.0001) %MON DYC_mean                     =   5.0000000000000E+03
(PID.TID 0000.0001) %MON DYC_sd                       =   0.0000000000000E+00
(PID.TID 0000.0001) %MON DYF_max                      =   5.0000000000000E+03
(PID.TID 0000.0001) %MON DYF_min                      =   5.0000000000000E+03
(PID.TID 0000.0001) %MON DYF_mean                     =   5.0000000000000E+03
(PID.TID 0000.0001) %MON DYF_sd                       =   0.0000000000000E+00
(PID.TID 0000.0001) %MON DYG_max                      =   5.0000000000000E+03
(PID.TID 0000.0001) %MON DYG_min                      =   5.0000000000000E+03
(PID.TID 0000.0001) %MON DYG_mean                     =   5.0000000000000E+03
(PID.TID 0000.0001) %MON DYG_sd                       =   0.0000000000000E+00
(PID.TID 0000.0001) %MON DYU_max                      =   5.0000000000000E+03
(PID.TID 0000.0001) %MON DYU_min                      =   5.0000000000000E+03
(PID.TID 0000.0001) %MON DYU_mean                     =   5.0000000000000E+03
(PID.TID 0000.0001) %MON DYU_sd                       =   0.0000000000000E+00
(PID.TID 0000.0001) %MON RA_max                       =   1.0901639344262E+06
(PID.TID 0000.0001) %MON RA_min                       =   1.0901639344262E+06
(PID.TID 0000.0001) %MON RA_mean                      =   1.0901639344262E+06
(PID.TID 0000.0001) %MON RA_sd                        =   0.0000000000000E+00
(PID.TID 0000.0001) %MON RAW_max                      =   1.0901639344262E+06
(PID.TID 0000.0001) %MON RAW_min                      =   1.0901639344262E+06
(PID.TID 0000.0001) %MON RAW_mean                     =   1.0901639344262E+06
(PID.TID 0000.0001) %MON RAW_sd                       =   0.0000000000000E+00
(PID.TID 0000.0001) %MON RAS_max                      =   1.0901639344262E+06
(PID.TID 0000.0001) %MON RAS_min                      =   1.0901639344262E+06
(PID.TID 0000.0001) %MON RAS_mean                     =   1.0901639344262E+06
(PID.TID 0000.0001) %MON RAS_sd                       =   0.0000000000000E+00
(PID.TID 0000.0001) %MON RAZ_max                      =   1.0901639344262E+06
(PID.TID 0000.0001) %MON RAZ_min                      =   1.0901639344262E+06
(PID.TID 0000.0001) %MON RAZ_mean                     =   1.0901639344262E+06
(PID.TID 0000.0001) %MON RAZ_sd                       =   0.0000000000000E+00
(PID.TID 0000.0001) %MON AngleCS_max                  =   1.0000000000000E+00
(PID.TID 0000.0001) %MON AngleCS_min                  =   1.0000000000000E+00
(PID.TID 0000.0001) %MON AngleCS_mean                 =   1.0000000000000E+00
(PID.TID 0000.0001) %MON AngleCS_sd                   =   0.0000000000000E+00
(PID.TID 0000.0001) %MON AngleSN_max                  =   0.0000000000000E+00
(PID.TID 0000.0001) %MON AngleSN_min                  =   0.0000000000000E+00
(PID.TID 0000.0001) %MON AngleSN_mean                 =   0.0000000000000E+00
(PID.TID 0000.0001) %MON AngleSN_sd                   =   0.0000000000000E+00
(PID.TID 0000.0001)  MDS_READ_FIELD: opening global file: topog.slope
(PID.TID 0000.0001) // =======================================================
(PID.TID 0000.0001) // Field Model R_low (ini_masks_etc)
(PID.TID 0000.0001) // CMIN =         -2.000000000000000E+02
(PID.TID 0000.0001) // CMAX =         -4.000000000000000E+01
(PID.TID 0000.0001) // CINT =          5.925925925925926E+00
(PID.TID 0000.0001) // SYMBOLS (CMIN->CMAX): -abcdefghijklmnopqrstuvwxyz+
(PID.TID 0000.0001) //                  0.0: .
(PID.TID 0000.0001) // RANGE I (Lo:Hi:Step):(    -1:    62:     1)
(PID.TID 0000.0001) // RANGE J (Lo:Hi:Step):(     3:    -1:    -1)
(PID.TID 0000.0001) // RANGE K (Lo:Hi:Step):(   1:   1:   1)
(PID.TID 0000.0001) // =======================================================
(PID.TID 0000.0001) K =   1
(PID.TID 0000.0001) //                I=8       I=18      I=28      I=34      I=44      I=54
(PID.TID 0000.0001) // |--J--|101234567|901234567|901234567|901290123|567890123|567890123|56789012
(PID.TID 0000.0001) //      3 +.-----------abcdefghikkmnopqrstvwstvwxyz++++++++++++++++++++++++.--
(PID.TID 0000.0001) //      2 +.-----------abcdefghikkmnopqrstvwstvwxyz++++++++++++++++++++++++.--
(PID.TID 0000.0001) //      1 +.-----------abcdefghikkmnopqrstvwstvwxyz++++++++++++++++++++++++.--
(PID.TID 0000.0001) //      0 +.-----------abcdefghikkmnopqrstvwstvwxyz++++++++++++++++++++++++.--
(PID.TID 0000.0001) //     -1 +.-----------abcdefghikkmnopqrstvwstvwxyz++++++++++++++++++++++++.--
(PID.TID 0000.0001) // =======================================================
(PID.TID 0000.0001) // END OF FIELD                                          =
(PID.TID 0000.0001) // =======================================================
(PID.TID 0000.0001) 
(PID.TID 0000.0001) // =======================================================
(PID.TID 0000.0001) // Field Model Ro_surf (ini_masks_etc)
(PID.TID 0000.0001) // CMIN =          1.000000000000000E+32
(PID.TID 0000.0001) // CMAX =         -1.000000000000000E+32
(PID.TID 0000.0001) // CINT =          0.000000000000000E+00
(PID.TID 0000.0001) // SYMBOLS (CMIN->CMAX): -abcdefghijklmnopqrstuvwxyz+
(PID.TID 0000.0001) //                  0.0: .
(PID.TID 0000.0001) // RANGE I (Lo:Hi:Step):(    -1:    62:     1)
(PID.TID 0000.0001) // RANGE J (Lo:Hi:Step):(     3:    -1:    -1)
(PID.TID 0000.0001) // RANGE K (Lo:Hi:Step):(   1:   1:   1)
(PID.TID 0000.0001) // =======================================================
(PID.TID 0000.0001) // =======================================================
(PID.TID 0000.0001) // END OF FIELD                                          =
(PID.TID 0000.0001) // =======================================================
(PID.TID 0000.0001) 
(PID.TID 0000.0001) // =======================================================
(PID.TID 0000.0001) // Field hFacC at iteration          0
(PID.TID 0000.0001) // CMIN =          1.000000000000000E+00
(PID.TID 0000.0001) // CMAX =          1.000000000000000E+00
(PID.TID 0000.0001) // CINT =          0.000000000000000E+00
(PID.TID 0000.0001) // SYMBOLS (CMIN->CMAX): -abcdefghijklmnopqrstuvwxyz+
(PID.TID 0000.0001) //                  0.0: .
(PID.TID 0000.0001) // RANGE I (Lo:Hi:Step):(    -1:    62:     1)
(PID.TID 0000.0001) // RANGE J (Lo:Hi:Step):(     3:    -1:    -1)
(PID.TID 0000.0001) // RANGE K (Lo:Hi:Step):(   1:   1:   1)
(PID.TID 0000.0001) // =======================================================
(PID.TID 0000.0001) // =======================================================
(PID.TID 0000.0001) // END OF FIELD                                          =
(PID.TID 0000.0001) // =======================================================
(PID.TID 0000.0001) 
(PID.TID 0000.0001) // =======================================================
(PID.TID 0000.0001) // Field hFacW at iteration          0
(PID.TID 0000.0001) // CMIN =          1.000000000000000E+00
(PID.TID 0000.0001) // CMAX =          1.000000000000000E+00
(PID.TID 0000.0001) // CINT =          0.000000000000000E+00
(PID.TID 0000.0001) // SYMBOLS (CMIN->CMAX): -abcdefghijklmnopqrstuvwxyz+
(PID.TID 0000.0001) //                  0.0: .
(PID.TID 0000.0001) // RANGE I (Lo:Hi:Step):(    -1:    62:     1)
(PID.TID 0000.0001) // RANGE J (Lo:Hi:Step):(     3:    -1:    -1)
(PID.TID 0000.0001) // RANGE K (Lo:Hi:Step):(   1:   1:   1)
(PID.TID 0000.0001) // =======================================================
(PID.TID 0000.0001) // =======================================================
(PID.TID 0000.0001) // END OF FIELD                                          =
(PID.TID 0000.0001) // =======================================================
(PID.TID 0000.0001) 
(PID.TID 0000.0001) // =======================================================
(PID.TID 0000.0001) // Field hFacS at iteration          0
(PID.TID 0000.0001) // CMIN =          1.000000000000000E+00
(PID.TID 0000.0001) // CMAX =          1.000000000000000E+00
(PID.TID 0000.0001) // CINT =          0.000000000000000E+00
(PID.TID 0000.0001) // SYMBOLS (CMIN->CMAX): -abcdefghijklmnopqrstuvwxyz+
(PID.TID 0000.0001) //                  0.0: .
(PID.TID 0000.0001) // RANGE I (Lo:Hi:Step):(    -1:    62:     1)
(PID.TID 0000.0001) // RANGE J (Lo:Hi:Step):(     3:    -1:    -1)
(PID.TID 0000.0001) // RANGE K (Lo:Hi:Step):(   1:   1:   1)
(PID.TID 0000.0001) // =======================================================
(PID.TID 0000.0001) // =======================================================
(PID.TID 0000.0001) // END OF FIELD                                          =
(PID.TID 0000.0001) // =======================================================
(PID.TID 0000.0001) 
(PID.TID 0000.0001) GAD_INIT_FIXED: GAD_OlMinSize=  1  0  1
(PID.TID 0000.0001) 
(PID.TID 0000.0001) // ===================================
(PID.TID 0000.0001) // GAD parameters :
(PID.TID 0000.0001) // ===================================
(PID.TID 0000.0001) tempAdvScheme =   /* Temp. Horiz.Advection scheme selector */
(PID.TID 0000.0001)                       2
(PID.TID 0000.0001)     ;
(PID.TID 0000.0001) tempVertAdvScheme =   /* Temp. Vert. Advection scheme selector */
(PID.TID 0000.0001)                       2
(PID.TID 0000.0001)     ;
(PID.TID 0000.0001) tempMultiDimAdvec =   /* use Muti-Dim Advec method for Temp */
(PID.TID 0000.0001)                   F
(PID.TID 0000.0001)     ;
(PID.TID 0000.0001) tempSOM_Advection = /* use 2nd Order Moment Advection for Temp */
(PID.TID 0000.0001)                   F
(PID.TID 0000.0001)     ;
(PID.TID 0000.0001) AdamsBashforthGt = /* apply Adams-Bashforth extrapolation on Gt */
(PID.TID 0000.0001)                   T
(PID.TID 0000.0001)     ;
(PID.TID 0000.0001) AdamsBashforth_T = /* apply Adams-Bashforth extrapolation on Temp */
(PID.TID 0000.0001)                   F
(PID.TID 0000.0001)     ;
(PID.TID 0000.0001) saltAdvScheme =   /* Salt. Horiz.advection scheme selector */
(PID.TID 0000.0001)                       2
(PID.TID 0000.0001)     ;
(PID.TID 0000.0001) saltVertAdvScheme =   /* Salt. Vert. Advection scheme selector */
(PID.TID 0000.0001)                       2
(PID.TID 0000.0001)     ;
(PID.TID 0000.0001) saltMultiDimAdvec =   /* use Muti-Dim Advec method for Salt */
(PID.TID 0000.0001)                   F
(PID.TID 0000.0001)     ;
(PID.TID 0000.0001) saltSOM_Advection = /* use 2nd Order Moment Advection for Salt */
(PID.TID 0000.0001)                   F
(PID.TID 0000.0001)     ;
(PID.TID 0000.0001) AdamsBashforthGs = /* apply Adams-Bashforth extrapolation on Gs */
(PID.TID 0000.0001)                   F
(PID.TID 0000.0001)     ;
(PID.TID 0000.0001) AdamsBashforth_S = /* apply Adams-Bashforth extrapolation on Salt */
(PID.TID 0000.0001)                   F
(PID.TID 0000.0001)     ;
(PID.TID 0000.0001) // ===================================
(PID.TID 0000.0001) %MON fCori_max                    =   0.0000000000000E+00
(PID.TID 0000.0001) %MON fCori_min                    =   0.0000000000000E+00
(PID.TID 0000.0001) %MON fCori_mean                   =   0.0000000000000E+00
(PID.TID 0000.0001) %MON fCori_sd                     =   0.0000000000000E+00
(PID.TID 0000.0001) %MON fCoriG_max                   =   0.0000000000000E+00
(PID.TID 0000.0001) %MON fCoriG_min                   =   0.0000000000000E+00
(PID.TID 0000.0001) %MON fCoriG_mean                  =   0.0000000000000E+00
(PID.TID 0000.0001) %MON fCoriG_sd                    =   0.0000000000000E+00
(PID.TID 0000.0001) %MON fCoriCos_max                 =   0.0000000000000E+00
(PID.TID 0000.0001) %MON fCoriCos_min                 =   0.0000000000000E+00
(PID.TID 0000.0001) %MON fCoriCos_mean                =   0.0000000000000E+00
(PID.TID 0000.0001) %MON fCoriCos_sd                  =   0.0000000000000E+00
(PID.TID 0000.0001) INI_CG2D: CG2D normalisation factor =  8.7213114754098383E-04
(PID.TID 0000.0001) 
(PID.TID 0000.0001) // =======================================================
(PID.TID 0000.0001) // Model configuration
(PID.TID 0000.0001) // =======================================================
(PID.TID 0000.0001) //
(PID.TID 0000.0001) // "Physical" paramters ( PARM01 in namelist )
(PID.TID 0000.0001) //
(PID.TID 0000.0001) buoyancyRelation = /* Type of relation to get Buoyancy */
(PID.TID 0000.0001)               'OCEANIC'
(PID.TID 0000.0001)     ;
(PID.TID 0000.0001) fluidIsAir   =  /* fluid major constituent is Air */
(PID.TID 0000.0001)                   F
(PID.TID 0000.0001)     ;
(PID.TID 0000.0001) fluidIsWater =  /* fluid major constituent is Water */
(PID.TID 0000.0001)                   T
(PID.TID 0000.0001)     ;
(PID.TID 0000.0001) usingPCoords =  /* use p (or p*) vertical coordinate */
(PID.TID 0000.0001)                   F
(PID.TID 0000.0001)     ;
(PID.TID 0000.0001) usingZCoords =  /* use z (or z*) vertical coordinate */
(PID.TID 0000.0001)                   T
(PID.TID 0000.0001)     ;
(PID.TID 0000.0001) tRef =   /* Reference temperature profile ( oC or K ) */
(PID.TID 0000.0001)                 4.842000000000000E-02,      /* K =  1 */
(PID.TID 0000.0001)                 4.332310000000000E-02,      /* K =  2 */
(PID.TID 0000.0001)                 3.822630000000000E-02,      /* K =  3 */
(PID.TID 0000.0001)                 3.312950000000000E-02,      /* K =  4 */
(PID.TID 0000.0001)                 2.803260000000000E-02,      /* K =  5 */
(PID.TID 0000.0001)                 2.293580000000000E-02,      /* K =  6 */
(PID.TID 0000.0001)                 1.783890000000000E-02,      /* K =  7 */
(PID.TID 0000.0001)                 1.274210000000000E-02,      /* K =  8 */
(PID.TID 0000.0001)                 7.645260000000000E-03,      /* K =  9 */
(PID.TID 0000.0001)                 2.548420000000000E-03,      /* K = 10 */
(PID.TID 0000.0001)                -2.548420000000000E-03,      /* K = 11 */
(PID.TID 0000.0001)                -7.645260000000000E-03,      /* K = 12 */
(PID.TID 0000.0001)                -1.274210000000000E-02,      /* K = 13 */
(PID.TID 0000.0001)                -1.783890000000000E-02,      /* K = 14 */
(PID.TID 0000.0001)                -2.293580000000000E-02,      /* K = 15 */
(PID.TID 0000.0001)                -2.803260000000000E-02,      /* K = 16 */
(PID.TID 0000.0001)                -3.312950000000000E-02,      /* K = 17 */
(PID.TID 0000.0001)                -3.822630000000000E-02,      /* K = 18 */
(PID.TID 0000.0001)                -4.332310000000000E-02,      /* K = 19 */
(PID.TID 0000.0001)                -4.842000000000000E-02       /* K = 20 */
(PID.TID 0000.0001)     ;
(PID.TID 0000.0001) sRef =   /* Reference salinity profile ( psu ) */
(PID.TID 0000.0001)    20 @  3.500000000000000E+01              /* K =  1: 20 */
(PID.TID 0000.0001)     ;
(PID.TID 0000.0001) useStrainTensionVisc= /* Use StrainTension Form of Viscous Operator */
(PID.TID 0000.0001)                   F
(PID.TID 0000.0001)     ;
(PID.TID 0000.0001) useVariableVisc = /* Use variable horizontal viscosity */
(PID.TID 0000.0001)                   F
(PID.TID 0000.0001)     ;
(PID.TID 0000.0001) useHarmonicVisc = /* Use harmonic horizontal viscosity */
(PID.TID 0000.0001)                   T
(PID.TID 0000.0001)     ;
(PID.TID 0000.0001) useBiharmonicVisc= /* Use biharmonic horiz.  viscosity */
(PID.TID 0000.0001)                   F
(PID.TID 0000.0001)     ;
(PID.TID 0000.0001) useSmag3D = /* Use isotropic 3-D Smagorinsky viscosity */
(PID.TID 0000.0001)                   F
(PID.TID 0000.0001)     ;
(PID.TID 0000.0001) viscAh  =   /* Lateral harmonic viscosity ( m^2/s ) */
(PID.TID 0000.0001)                 1.000000000000000E-05
(PID.TID 0000.0001)     ;
(PID.TID 0000.0001) viscA4  =   /* Lateral biharmonic viscosity ( m^4/s ) */
(PID.TID 0000.0001)                 0.000000000000000E+00
(PID.TID 0000.0001)     ;
(PID.TID 0000.0001) no_slip_sides =  /* Viscous BCs: No-slip sides */
(PID.TID 0000.0001)                   F
(PID.TID 0000.0001)     ;
(PID.TID 0000.0001) sideDragFactor = /* side-drag scaling factor (non-dim) */
(PID.TID 0000.0001)                 2.000000000000000E+00
(PID.TID 0000.0001)     ;
(PID.TID 0000.0001) viscArNr = /* vertical profile of vertical viscosity ( m^2/s )*/
(PID.TID 0000.0001)    20 @  1.000000000000000E-05              /* K =  1: 20 */
(PID.TID 0000.0001)     ;
(PID.TID 0000.0001) no_slip_bottom =  /* Viscous BCs: No-slip bottom */
(PID.TID 0000.0001)                   F
(PID.TID 0000.0001)     ;
(PID.TID 0000.0001) bottomVisc_pCell = /* Partial-cell in bottom Visc. BC */
(PID.TID 0000.0001)                   F
(PID.TID 0000.0001)     ;
(PID.TID 0000.0001) bottomDragLinear = /* linear bottom-drag coefficient ( m/s ) */
(PID.TID 0000.0001)                 0.000000000000000E+00
(PID.TID 0000.0001)     ;
(PID.TID 0000.0001) bottomDragQuadratic = /* quadratic bottom-drag coefficient (-) */
(PID.TID 0000.0001)                 0.000000000000000E+00
(PID.TID 0000.0001)     ;
(PID.TID 0000.0001) selectBotDragQuadr = /* select quadratic bottom drag options */
(PID.TID 0000.0001)                      -1
(PID.TID 0000.0001)     ;
(PID.TID 0000.0001) diffKhT =   /* Laplacian diffusion of heat laterally ( m^2/s ) */
(PID.TID 0000.0001)                 1.000000000000000E-05
(PID.TID 0000.0001)     ;
(PID.TID 0000.0001) diffK4T =   /* Biharmonic diffusion of heat laterally ( m^4/s ) */
(PID.TID 0000.0001)                 0.000000000000000E+00
(PID.TID 0000.0001)     ;
(PID.TID 0000.0001) diffKhS =   /* Laplacian diffusion of salt laterally ( m^2/s ) */
(PID.TID 0000.0001)                 0.000000000000000E+00
(PID.TID 0000.0001)     ;
(PID.TID 0000.0001) diffK4S =   /* Biharmonic diffusion of salt laterally ( m^4/s ) */
(PID.TID 0000.0001)                 0.000000000000000E+00
(PID.TID 0000.0001)     ;
(PID.TID 0000.0001) diffKrNrT = /* vertical profile of vertical diffusion of Temp ( m^2/s )*/
(PID.TID 0000.0001)    20 @  1.000000000000000E-05              /* K =  1: 20 */
(PID.TID 0000.0001)     ;
(PID.TID 0000.0001) diffKrNrS = /* vertical profile of vertical diffusion of Salt ( m^2/s )*/
(PID.TID 0000.0001)    20 @  1.000000000000000E-05              /* K =  1: 20 */
(PID.TID 0000.0001)     ;
(PID.TID 0000.0001) diffKrBL79surf = /* Surface diffusion for Bryan and Lewis 79 ( m^2/s ) */
(PID.TID 0000.0001)                 0.000000000000000E+00
(PID.TID 0000.0001)     ;
(PID.TID 0000.0001) diffKrBL79deep = /* Deep diffusion for Bryan and Lewis 1979 ( m^2/s ) */
(PID.TID 0000.0001)                 0.000000000000000E+00
(PID.TID 0000.0001)     ;
(PID.TID 0000.0001) diffKrBL79scl = /* Depth scale for Bryan and Lewis 1979 ( m ) */
(PID.TID 0000.0001)                 2.000000000000000E+02
(PID.TID 0000.0001)     ;
(PID.TID 0000.0001) diffKrBL79Ho = /* Turning depth for Bryan and Lewis 1979 ( m ) */
(PID.TID 0000.0001)                -2.000000000000000E+03
(PID.TID 0000.0001)     ;
(PID.TID 0000.0001) ivdc_kappa = /* Implicit Vertical Diffusivity for Convection ( m^2/s) */
(PID.TID 0000.0001)                 0.000000000000000E+00
(PID.TID 0000.0001)     ;
(PID.TID 0000.0001) hMixCriteria=  /* Criteria for mixed-layer diagnostic */
(PID.TID 0000.0001)                -8.000000000000000E-01
(PID.TID 0000.0001)     ;
(PID.TID 0000.0001) dRhoSmall =  /* Parameter for mixed-layer diagnostic */
(PID.TID 0000.0001)                 1.000000000000000E-06
(PID.TID 0000.0001)     ;
(PID.TID 0000.0001) hMixSmooth=  /* Smoothing parameter for mixed-layer diagnostic */
(PID.TID 0000.0001)                 0.000000000000000E+00
(PID.TID 0000.0001)     ;
(PID.TID 0000.0001) eosType =  /* Type of Equation of State */
(PID.TID 0000.0001)               'LINEAR'
(PID.TID 0000.0001)     ;
(PID.TID 0000.0001) tAlpha = /* Linear EOS thermal expansion coefficient ( 1/oC ) */
(PID.TID 0000.0001)                 2.000000000000000E-04
(PID.TID 0000.0001)     ;
(PID.TID 0000.0001) sBeta  = /* Linear EOS haline contraction coefficient ( 1/psu ) */
(PID.TID 0000.0001)                 0.000000000000000E+00
(PID.TID 0000.0001)     ;
(PID.TID 0000.0001) rhoNil    = /* Reference density for Linear EOS ( kg/m^3 ) */
(PID.TID 0000.0001)                 9.998000000000000E+02
(PID.TID 0000.0001)     ;
(PID.TID 0000.0001) selectP_inEOS_Zc = /* select pressure to use in EOS (0,1,2,3) */
(PID.TID 0000.0001)                       0
(PID.TID 0000.0001)     0= -g*rhoConst*z ; 1= pRef (from tRef,sRef); 2= Hyd P ; 3= Hyd+NH P
(PID.TID 0000.0001)     ;
(PID.TID 0000.0001) HeatCapacity_Cp =  /* Specific heat capacity ( J/kg/K ) */
(PID.TID 0000.0001)                 3.994000000000000E+03
(PID.TID 0000.0001)     ;
(PID.TID 0000.0001) celsius2K = /* 0 degree Celsius converted to Kelvin ( K ) */
(PID.TID 0000.0001)                 2.731500000000000E+02
(PID.TID 0000.0001)     ;
(PID.TID 0000.0001) rhoConst  = /* Reference density (Boussinesq)  ( kg/m^3 ) */
(PID.TID 0000.0001)                 9.998000000000000E+02
(PID.TID 0000.0001)     ;
(PID.TID 0000.0001) rhoFacC = /* normalized Reference density @ cell-Center (-) */
(PID.TID 0000.0001)    20 @  1.000000000000000E+00              /* K =  1: 20 */
(PID.TID 0000.0001)     ;
(PID.TID 0000.0001) rhoFacF = /* normalized Reference density @ W-Interface (-) */
(PID.TID 0000.0001)    21 @  1.000000000000000E+00              /* K =  1: 21 */
(PID.TID 0000.0001)     ;
(PID.TID 0000.0001) rhoConstFresh = /* Fresh-water reference density ( kg/m^3 ) */
(PID.TID 0000.0001)                 9.998000000000000E+02
(PID.TID 0000.0001)     ;
(PID.TID 0000.0001) gravity =   /* Gravitational acceleration ( m/s^2 ) */
(PID.TID 0000.0001)                 9.810000000000000E+00
(PID.TID 0000.0001)     ;
(PID.TID 0000.0001) gBaro =   /* Barotropic gravity ( m/s^2 ) */
(PID.TID 0000.0001)                 9.810000000000000E+00
(PID.TID 0000.0001)     ;
(PID.TID 0000.0001) gravFacC = /* gravity factor (vs surf.) @ cell-Center (-) */
(PID.TID 0000.0001)    20 @  1.000000000000000E+00              /* K =  1: 20 */
(PID.TID 0000.0001)     ;
(PID.TID 0000.0001) gravFacF = /* gravity factor (vs surf.) @ W-Interface (-) */
(PID.TID 0000.0001)    21 @  1.000000000000000E+00              /* K =  1: 21 */
(PID.TID 0000.0001)     ;
(PID.TID 0000.0001) rotationPeriod =   /* Rotation Period ( s ) */
(PID.TID 0000.0001)                 8.616400000000000E+04
(PID.TID 0000.0001)     ;
(PID.TID 0000.0001) omega =   /* Angular velocity ( rad/s ) */
(PID.TID 0000.0001)                 7.292123516990375E-05
(PID.TID 0000.0001)     ;
(PID.TID 0000.0001) f0 =   /* Reference coriolis parameter ( 1/s ) */
(PID.TID 0000.0001)                 0.000000000000000E+00
(PID.TID 0000.0001)     ;
(PID.TID 0000.0001) beta =   /* Beta ( 1/(m.s) ) */
(PID.TID 0000.0001)                 0.000000000000000E+00
(PID.TID 0000.0001)     ;
(PID.TID 0000.0001) fPrime =   /* Second coriolis parameter ( 1/s ) */
(PID.TID 0000.0001)                 0.000000000000000E+00
(PID.TID 0000.0001)     ;
(PID.TID 0000.0001) rigidLid =   /* Rigid lid on/off flag */
(PID.TID 0000.0001)                   F
(PID.TID 0000.0001)     ;
(PID.TID 0000.0001) implicitFreeSurface =   /* Implicit free surface on/off flag */
(PID.TID 0000.0001)                   T
(PID.TID 0000.0001)     ;
(PID.TID 0000.0001) freeSurfFac =   /* Implicit free surface factor */
(PID.TID 0000.0001)                 1.000000000000000E+00
(PID.TID 0000.0001)     ;
(PID.TID 0000.0001) implicSurfPress =  /* Surface Pressure implicit factor (0-1)*/
(PID.TID 0000.0001)                 5.000000000000000E-01
(PID.TID 0000.0001)     ;
(PID.TID 0000.0001) implicDiv2Dflow =  /* Barot. Flow Div. implicit factor (0-1)*/
(PID.TID 0000.0001)                 5.000000000000000E-01
(PID.TID 0000.0001)     ;
(PID.TID 0000.0001) uniformLin_PhiSurf = /* use uniform Bo_surf on/off flag*/
(PID.TID 0000.0001)                   T
(PID.TID 0000.0001)     ;
(PID.TID 0000.0001) uniformFreeSurfLev = /* free-surface level-index is uniform */
(PID.TID 0000.0001)                   T
(PID.TID 0000.0001)     ;
(PID.TID 0000.0001) hFacMin =   /* minimum partial cell factor (hFac) */
(PID.TID 0000.0001)                 2.000000000000000E-01
(PID.TID 0000.0001)     ;
(PID.TID 0000.0001) hFacMinDr = /* minimum partial cell thickness ( m) */
(PID.TID 0000.0001)                 0.000000000000000E+00
(PID.TID 0000.0001)     ;
(PID.TID 0000.0001) exactConserv =  /* Exact Volume Conservation on/off flag*/
(PID.TID 0000.0001)                   T
(PID.TID 0000.0001)     ;
(PID.TID 0000.0001) linFSConserveTr = /* Tracer correction for Lin Free Surface on/off flag*/
(PID.TID 0000.0001)                   F
(PID.TID 0000.0001)     ;
(PID.TID 0000.0001) nonlinFreeSurf = /* Non-linear Free Surf. options (-1,0,1,2,3)*/
(PID.TID 0000.0001)                       3
(PID.TID 0000.0001)      -1,0= Off ; 1,2,3= On, 2=+rescale gU,gV, 3=+update cg2d solv.
(PID.TID 0000.0001)     ;
(PID.TID 0000.0001) hFacInf =   /* lower threshold for hFac (nonlinFreeSurf only)*/
(PID.TID 0000.0001)                 2.000000000000000E-01
(PID.TID 0000.0001)     ;
(PID.TID 0000.0001) hFacSup =   /* upper threshold for hFac (nonlinFreeSurf only)*/
(PID.TID 0000.0001)                 1.800000000000000E+00
(PID.TID 0000.0001)     ;
(PID.TID 0000.0001) select_rStar = /* r* Vertical coord. options (=0 r coord.; >0 uses r*)*/
(PID.TID 0000.0001)                       0
(PID.TID 0000.0001)     ;
(PID.TID 0000.0001) useRealFreshWaterFlux = /* Real Fresh Water Flux on/off flag*/
(PID.TID 0000.0001)                   F
(PID.TID 0000.0001)     ;
(PID.TID 0000.0001) temp_EvPrRn = /* Temp. of Evap/Prec/R (UNSET=use local T)(oC)*/
(PID.TID 0000.0001)                 1.234567000000000E+05
(PID.TID 0000.0001)     ;
(PID.TID 0000.0001) salt_EvPrRn = /* Salin. of Evap/Prec/R (UNSET=use local S)(psu)*/
(PID.TID 0000.0001)                 0.000000000000000E+00
(PID.TID 0000.0001)     ;
(PID.TID 0000.0001) selectAddFluid = /* option for mass source/sink of fluid (=0: off) */
(PID.TID 0000.0001)                       0
(PID.TID 0000.0001)     ;
(PID.TID 0000.0001) temp_addMass = /* Temp. of addMass array (UNSET=use local T)(oC)*/
(PID.TID 0000.0001)                 1.234567000000000E+05
(PID.TID 0000.0001)     ;
(PID.TID 0000.0001) salt_addMass = /* Salin. of addMass array (UNSET=use local S)(psu)*/
(PID.TID 0000.0001)                 0.000000000000000E+00
(PID.TID 0000.0001)     ;
(PID.TID 0000.0001) convertFW2Salt = /* convert F.W. Flux to Salt Flux (-1=use local S)(psu)*/
(PID.TID 0000.0001)                 3.500000000000000E+01
(PID.TID 0000.0001)     ;
(PID.TID 0000.0001) use3Dsolver = /* use 3-D pressure solver on/off flag */
(PID.TID 0000.0001)                   F
(PID.TID 0000.0001)     ;
(PID.TID 0000.0001) nonHydrostatic =  /* Non-Hydrostatic on/off flag */
(PID.TID 0000.0001)                   F
(PID.TID 0000.0001)     ;
(PID.TID 0000.0001) nh_Am2 = /* Non-Hydrostatic terms scaling factor */
(PID.TID 0000.0001)                 1.000000000000000E+00
(PID.TID 0000.0001)     ;
(PID.TID 0000.0001) implicitNHPress = /* Non-Hyd Pressure implicit factor (0-1)*/
(PID.TID 0000.0001)                 5.000000000000000E-01
(PID.TID 0000.0001)     ;
(PID.TID 0000.0001) selectNHfreeSurf = /* Non-Hyd (free-)Surface option */
(PID.TID 0000.0001)                       0
(PID.TID 0000.0001)     ;
(PID.TID 0000.0001) quasiHydrostatic = /* Quasi-Hydrostatic on/off flag */
(PID.TID 0000.0001)                   F
(PID.TID 0000.0001)     ;
(PID.TID 0000.0001) calc_wVelocity = /* vertical velocity calculation on/off flag */
(PID.TID 0000.0001)                   T
(PID.TID 0000.0001)     ;
(PID.TID 0000.0001) momStepping =  /* Momentum equation on/off flag */
(PID.TID 0000.0001)                   T
(PID.TID 0000.0001)     ;
(PID.TID 0000.0001) vectorInvariantMomentum= /* Vector-Invariant Momentum on/off */
(PID.TID 0000.0001)                   F
(PID.TID 0000.0001)     ;
(PID.TID 0000.0001) momAdvection =  /* Momentum advection on/off flag */
(PID.TID 0000.0001)                   T
(PID.TID 0000.0001)     ;
(PID.TID 0000.0001) momViscosity =  /* Momentum viscosity on/off flag */
(PID.TID 0000.0001)                   T
(PID.TID 0000.0001)     ;
(PID.TID 0000.0001) momImplVertAdv= /* Momentum implicit vert. advection on/off*/
(PID.TID 0000.0001)                   F
(PID.TID 0000.0001)     ;
(PID.TID 0000.0001) implicitViscosity = /* Implicit viscosity on/off flag */
(PID.TID 0000.0001)                   T
(PID.TID 0000.0001)     ;
(PID.TID 0000.0001) implBottomFriction= /* Implicit bottom friction on/off flag */
(PID.TID 0000.0001)                   F
(PID.TID 0000.0001)     ;
(PID.TID 0000.0001) metricTerms =  /* metric-Terms on/off flag */
(PID.TID 0000.0001)                   F
(PID.TID 0000.0001)     ;
(PID.TID 0000.0001) useNHMTerms = /* Non-Hydrostatic Metric-Terms on/off */
(PID.TID 0000.0001)                   F
(PID.TID 0000.0001)     ;
(PID.TID 0000.0001) selectCoriMap = /* Coriolis Map options (0,1,2,3)*/
(PID.TID 0000.0001)                       1
(PID.TID 0000.0001)     0= f-Plane ; 1= Beta-Plane ; 2= Spherical ; 3= read from file
(PID.TID 0000.0001)     ;
(PID.TID 0000.0001) use3dCoriolis = /* 3-D Coriolis on/off flag */
(PID.TID 0000.0001)                   F
(PID.TID 0000.0001)     ;
(PID.TID 0000.0001) useCoriolis =  /* Coriolis on/off flag */
(PID.TID 0000.0001)                   T
(PID.TID 0000.0001)     ;
(PID.TID 0000.0001) useCDscheme =  /* CD scheme on/off flag */
(PID.TID 0000.0001)                   F
(PID.TID 0000.0001)     ;
(PID.TID 0000.0001) useEnergyConservingCoriolis= /* Flx-Form Coriolis scheme flag */
(PID.TID 0000.0001)                   F
(PID.TID 0000.0001)     ;
(PID.TID 0000.0001) useJamartWetPoints= /* Coriolis WetPoints method flag */
(PID.TID 0000.0001)                   F
(PID.TID 0000.0001)     ;
(PID.TID 0000.0001) useJamartMomAdv= /* V.I Non-linear terms Jamart flag */
(PID.TID 0000.0001)                   F
(PID.TID 0000.0001)     ;
(PID.TID 0000.0001) useAbsVorticity= /* V.I Works with f+zeta in Coriolis */
(PID.TID 0000.0001)                   F
(PID.TID 0000.0001)     ;
(PID.TID 0000.0001) selectVortScheme= /* V.I Scheme selector for Vorticity-Term */
(PID.TID 0000.0001)               123456789
(PID.TID 0000.0001)    = 0 : enstrophy (Shallow-Water Eq.) conserving scheme by Sadourny, JAS 75
(PID.TID 0000.0001)    = 1 : same as 0 with modified hFac
(PID.TID 0000.0001)    = 2 : energy conserving scheme (used by Sadourny in JAS 75 paper)
(PID.TID 0000.0001)    = 3 : energy (general) and enstrophy (2D, nonDiv.) conserving scheme
(PID.TID 0000.0001)          from Sadourny (Burridge & Haseler, ECMWF Rep.4, 1977)
(PID.TID 0000.0001)     ;
(PID.TID 0000.0001) upwindVorticity= /* V.I Upwind bias vorticity flag */
(PID.TID 0000.0001)                   F
(PID.TID 0000.0001)     ;
(PID.TID 0000.0001) highOrderVorticity= /* V.I High order vort. advect. flag */
(PID.TID 0000.0001)                   F
(PID.TID 0000.0001)     ;
(PID.TID 0000.0001) upwindShear= /* V.I Upwind vertical Shear advection flag */
(PID.TID 0000.0001)                   F
(PID.TID 0000.0001)     ;
(PID.TID 0000.0001) selectKEscheme= /* V.I Kinetic Energy scheme selector */
(PID.TID 0000.0001)                       0
(PID.TID 0000.0001)     ;
(PID.TID 0000.0001) momForcing =  /* Momentum forcing on/off flag */
(PID.TID 0000.0001)                   T
(PID.TID 0000.0001)     ;
(PID.TID 0000.0001) momPressureForcing =  /* Momentum pressure term on/off flag */
(PID.TID 0000.0001)                   T
(PID.TID 0000.0001)     ;
(PID.TID 0000.0001) implicitIntGravWave= /* Implicit Internal Gravity Wave flag */
(PID.TID 0000.0001)                   F
(PID.TID 0000.0001)     ;
(PID.TID 0000.0001) staggerTimeStep =    /* Stagger time stepping on/off flag */
(PID.TID 0000.0001)                   F
(PID.TID 0000.0001)     ;
(PID.TID 0000.0001) doResetHFactors = /* reset thickness factors @ each time-step */
(PID.TID 0000.0001)                   F
(PID.TID 0000.0001)     ;
(PID.TID 0000.0001) multiDimAdvection =  /* enable/disable Multi-Dim Advection */
(PID.TID 0000.0001)                   T
(PID.TID 0000.0001)     ;
(PID.TID 0000.0001) useMultiDimAdvec =   /* Multi-Dim Advection is/is-not used */
(PID.TID 0000.0001)                   F
(PID.TID 0000.0001)     ;
(PID.TID 0000.0001) implicitDiffusion = /* Implicit Diffusion on/off flag */
(PID.TID 0000.0001)                   T
(PID.TID 0000.0001)     ;
(PID.TID 0000.0001) tempStepping =  /* Temperature equation on/off flag */
(PID.TID 0000.0001)                   T
(PID.TID 0000.0001)     ;
(PID.TID 0000.0001) tempAdvection = /* Temperature advection on/off flag */
(PID.TID 0000.0001)                   T
(PID.TID 0000.0001)     ;
(PID.TID 0000.0001) tempImplVertAdv = /* Temp. implicit vert. advection on/off */
(PID.TID 0000.0001)                   F
(PID.TID 0000.0001)     ;
(PID.TID 0000.0001) tempForcing  =  /* Temperature forcing on/off flag */
(PID.TID 0000.0001)                   T
(PID.TID 0000.0001)     ;
(PID.TID 0000.0001) doThetaClimRelax = /* apply SST relaxation on/off flag */
(PID.TID 0000.0001)                   F
(PID.TID 0000.0001)     ;
(PID.TID 0000.0001) tempIsActiveTr = /* Temp. is a dynamically Active Tracer */
(PID.TID 0000.0001)                   T
(PID.TID 0000.0001)     ;
(PID.TID 0000.0001) saltStepping =  /* Salinity equation on/off flag */
(PID.TID 0000.0001)                   F
(PID.TID 0000.0001)     ;
(PID.TID 0000.0001) saltAdvection = /* Salinity advection on/off flag */
(PID.TID 0000.0001)                   F
(PID.TID 0000.0001)     ;
(PID.TID 0000.0001) saltImplVertAdv = /* Sali. implicit vert. advection on/off */
(PID.TID 0000.0001)                   F
(PID.TID 0000.0001)     ;
(PID.TID 0000.0001) saltForcing  =  /* Salinity forcing on/off flag */
(PID.TID 0000.0001)                   F
(PID.TID 0000.0001)     ;
(PID.TID 0000.0001) doSaltClimRelax = /* apply SSS relaxation on/off flag */
(PID.TID 0000.0001)                   F
(PID.TID 0000.0001)     ;
(PID.TID 0000.0001) saltIsActiveTr = /* Salt  is a dynamically Active Tracer */
(PID.TID 0000.0001)                   F
(PID.TID 0000.0001)     ;
(PID.TID 0000.0001)  readBinaryPrec = /* Precision used for reading binary files */
(PID.TID 0000.0001)                      64
(PID.TID 0000.0001)     ;
(PID.TID 0000.0001) writeBinaryPrec = /* Precision used for writing binary files */
(PID.TID 0000.0001)                      64
(PID.TID 0000.0001)     ;
(PID.TID 0000.0001)  globalFiles = /* write "global" (=not per tile) files */
(PID.TID 0000.0001)                   F
(PID.TID 0000.0001)     ;
(PID.TID 0000.0001)  useSingleCpuIO = /* only master MPI process does I/O */
(PID.TID 0000.0001)                   F
(PID.TID 0000.0001)     ;
(PID.TID 0000.0001)  useSingleCpuInput = /* only master process reads input */
(PID.TID 0000.0001)                   F
(PID.TID 0000.0001)     ;
(PID.TID 0000.0001) /* debLev[*]  : level of debug & auxiliary message printing */
(PID.TID 0000.0001) debLevZero =  0 ; /* level of disabled aux. msg printing */
(PID.TID 0000.0001)    debLevA =  1 ; /* level of minimum  aux. msg printing */
(PID.TID 0000.0001)    debLevB =  2 ; /* level of low aux. print (report read-file opening)*/
(PID.TID 0000.0001)    debLevC =  3 ; /* level of moderate debug prt (most pkgs debug msg) */
(PID.TID 0000.0001)    debLevD =  4 ; /* level of enhanced debug prt (add DEBUG_STATS prt) */
(PID.TID 0000.0001)    debLevE =  5 ; /* level of extensive debug printing */
(PID.TID 0000.0001) debugLevel =  /* select debug printing level */
(PID.TID 0000.0001)                       2
(PID.TID 0000.0001)     ;
(PID.TID 0000.0001) //
(PID.TID 0000.0001) // Elliptic solver(s) paramters ( PARM02 in namelist )
(PID.TID 0000.0001) //
(PID.TID 0000.0001) cg2dMaxIters =   /* Upper limit on 2d con. grad iterations  */
(PID.TID 0000.0001)                    1000
(PID.TID 0000.0001)     ;
(PID.TID 0000.0001) cg2dChkResFreq =   /* 2d con. grad convergence test frequency */
(PID.TID 0000.0001)                       1
(PID.TID 0000.0001)     ;
(PID.TID 0000.0001) cg2dUseMinResSol= /* use cg2d last-iter(=0) / min-resid.(=1) solution */
(PID.TID 0000.0001)                       0
(PID.TID 0000.0001)     ;
(PID.TID 0000.0001) cg2dTargetResidual =   /* 2d con. grad target residual  */
(PID.TID 0000.0001)                 1.000000000000000E-13
(PID.TID 0000.0001)     ;
(PID.TID 0000.0001) cg2dTargetResWunit =   /* CG2d target residual [W units] */
(PID.TID 0000.0001)                -1.000000000000000E+00
(PID.TID 0000.0001)     ;
(PID.TID 0000.0001) cg2dPreCondFreq =   /* Freq. for updating cg2d preconditioner */
(PID.TID 0000.0001)                       1
(PID.TID 0000.0001)     ;
(PID.TID 0000.0001) useSRCGSolver =  /* use single reduction CG solver(s) */
(PID.TID 0000.0001)                   F
(PID.TID 0000.0001)     ;
(PID.TID 0000.0001) printResidualFreq = /* Freq. for printing CG residual */
(PID.TID 0000.0001)                       0
(PID.TID 0000.0001)     ;
(PID.TID 0000.0001) //
(PID.TID 0000.0001) // Time stepping paramters ( PARM03 in namelist )
(PID.TID 0000.0001) //
(PID.TID 0000.0001) deltaTMom =   /* Momentum equation timestep ( s ) */
(PID.TID 0000.0001)                 4.500000000000000E+02
(PID.TID 0000.0001)     ;
(PID.TID 0000.0001) deltaTFreeSurf = /* FreeSurface equation timestep ( s ) */
(PID.TID 0000.0001)                 4.500000000000000E+02
(PID.TID 0000.0001)     ;
(PID.TID 0000.0001) dTtracerLev =  /* Tracer equation timestep ( s ) */
(PID.TID 0000.0001)    20 @  4.500000000000000E+02              /* K =  1: 20 */
(PID.TID 0000.0001)     ;
(PID.TID 0000.0001) deltaTClock  =   /* Model clock timestep ( s ) */
(PID.TID 0000.0001)                 4.500000000000000E+02
(PID.TID 0000.0001)     ;
(PID.TID 0000.0001) cAdjFreq =   /* Convective adjustment interval ( s ) */
(PID.TID 0000.0001)                 0.000000000000000E+00
(PID.TID 0000.0001)     ;
(PID.TID 0000.0001) momForcingOutAB = /* =1: take Momentum Forcing out of Adams-Bash. stepping */
(PID.TID 0000.0001)                       0
(PID.TID 0000.0001)     ;
(PID.TID 0000.0001) tracForcingOutAB = /* =1: take T,S,pTr Forcing out of Adams-Bash. stepping */
(PID.TID 0000.0001)                       0
(PID.TID 0000.0001)     ;
(PID.TID 0000.0001) momDissip_In_AB = /* put Dissipation Tendency in Adams-Bash. stepping */
(PID.TID 0000.0001)                   T
(PID.TID 0000.0001)     ;
(PID.TID 0000.0001) doAB_onGtGs = /* apply AB on Tendencies (rather than on T,S)*/
(PID.TID 0000.0001)                   T
(PID.TID 0000.0001)     ;
(PID.TID 0000.0001) abEps =   /* Adams-Bashforth-2 stabilizing weight */
(PID.TID 0000.0001)                 1.000000000000000E-01
(PID.TID 0000.0001)     ;
(PID.TID 0000.0001) applyExchUV_early = /* Apply EXCH to U,V earlier in time-step */
(PID.TID 0000.0001)                   F
(PID.TID 0000.0001)     ;
(PID.TID 0000.0001) pickupStrictlyMatch= /* stop if pickup do not strictly match */
(PID.TID 0000.0001)                   T
(PID.TID 0000.0001)     ;
(PID.TID 0000.0001) nIter0   =   /* Run starting timestep number */
(PID.TID 0000.0001)                       0
(PID.TID 0000.0001)     ;
(PID.TID 0000.0001) nTimeSteps = /* Number of timesteps */
(PID.TID 0000.0001)                     300
(PID.TID 0000.0001)     ;
(PID.TID 0000.0001) nEndIter =   /* Run ending timestep number */
(PID.TID 0000.0001)                     300
(PID.TID 0000.0001)     ;
(PID.TID 0000.0001) baseTime =   /* Model base time ( s ) */
(PID.TID 0000.0001)                 0.000000000000000E+00
(PID.TID 0000.0001)     ;
(PID.TID 0000.0001) startTime =  /* Run start time ( s ) */
(PID.TID 0000.0001)                 0.000000000000000E+00
(PID.TID 0000.0001)     ;
(PID.TID 0000.0001) endTime  =   /* Integration ending time ( s ) */
(PID.TID 0000.0001)                 1.350000000000000E+05
(PID.TID 0000.0001)     ;
(PID.TID 0000.0001) pChkPtFreq = /* Permanent restart/pickup file interval ( s ) */
(PID.TID 0000.0001)                 0.000000000000000E+00
(PID.TID 0000.0001)     ;
(PID.TID 0000.0001) chkPtFreq  = /* Rolling restart/pickup file interval ( s ) */
(PID.TID 0000.0001)                 0.000000000000000E+00
(PID.TID 0000.0001)     ;
(PID.TID 0000.0001) pickup_write_mdsio =   /* Model IO flag. */
(PID.TID 0000.0001)                   T
(PID.TID 0000.0001)     ;
(PID.TID 0000.0001) pickup_read_mdsio =   /* Model IO flag. */
(PID.TID 0000.0001)                   T
(PID.TID 0000.0001)     ;
(PID.TID 0000.0001) pickup_write_mnc =   /* Model IO flag. */
(PID.TID 0000.0001)                   F
(PID.TID 0000.0001)     ;
(PID.TID 0000.0001) pickup_read_mnc =   /* Model IO flag. */
(PID.TID 0000.0001)                   F
(PID.TID 0000.0001)     ;
(PID.TID 0000.0001) pickup_write_immed =   /* Model IO flag. */
(PID.TID 0000.0001)                   F
(PID.TID 0000.0001)     ;
(PID.TID 0000.0001) writePickupAtEnd =   /* Model IO flag. */
(PID.TID 0000.0001)                   T
(PID.TID 0000.0001)     ;
(PID.TID 0000.0001) dumpFreq =   /* Model state write out interval ( s ). */
(PID.TID 0000.0001)                 8.640000000000000E+04
(PID.TID 0000.0001)     ;
(PID.TID 0000.0001) dumpInitAndLast= /* write out Initial & Last iter. model state */
(PID.TID 0000.0001)                   T
(PID.TID 0000.0001)     ;
(PID.TID 0000.0001) snapshot_mdsio =   /* Model IO flag. */
(PID.TID 0000.0001)                   T
(PID.TID 0000.0001)     ;
(PID.TID 0000.0001) snapshot_mnc =   /* Model IO flag. */
(PID.TID 0000.0001)                   F
(PID.TID 0000.0001)     ;
(PID.TID 0000.0001) monitorFreq =   /* Monitor output interval ( s ). */
(PID.TID 0000.0001)                 7.200000000000000E+03
(PID.TID 0000.0001)     ;
(PID.TID 0000.0001) monitorSelect = /* select group of variables to monitor */
(PID.TID 0000.0001)                       2
(PID.TID 0000.0001)     ;
(PID.TID 0000.0001) monitor_stdio =   /* Model IO flag. */
(PID.TID 0000.0001)                   T
(PID.TID 0000.0001)     ;
(PID.TID 0000.0001) monitor_mnc =   /* Model IO flag. */
(PID.TID 0000.0001)                   F
(PID.TID 0000.0001)     ;
(PID.TID 0000.0001) externForcingPeriod =   /* forcing period (s) */
(PID.TID 0000.0001)                 0.000000000000000E+00
(PID.TID 0000.0001)     ;
(PID.TID 0000.0001) externForcingCycle =   /* period of the cyle (s). */
(PID.TID 0000.0001)                 0.000000000000000E+00
(PID.TID 0000.0001)     ;
(PID.TID 0000.0001) tauThetaClimRelax =   /* relaxation time scale (s) */
(PID.TID 0000.0001)                 0.000000000000000E+00
(PID.TID 0000.0001)     ;
(PID.TID 0000.0001) tauSaltClimRelax =   /* relaxation time scale (s) */
(PID.TID 0000.0001)                 0.000000000000000E+00
(PID.TID 0000.0001)     ;
(PID.TID 0000.0001) latBandClimRelax =   /* max. Lat. where relaxation */
(PID.TID 0000.0001)                 1.500000000000000E+04
(PID.TID 0000.0001)     ;
(PID.TID 0000.0001) //
(PID.TID 0000.0001) // Gridding paramters ( PARM04 in namelist )
(PID.TID 0000.0001) //
(PID.TID 0000.0001) usingCartesianGrid = /* Cartesian coordinates flag ( True/False ) */
(PID.TID 0000.0001)                   T
(PID.TID 0000.0001)     ;
(PID.TID 0000.0001) usingCylindricalGrid = /* Cylindrical coordinates flag ( True/False ) */
(PID.TID 0000.0001)                   F
(PID.TID 0000.0001)     ;
(PID.TID 0000.0001) usingSphericalPolarGrid = /* Spherical coordinates flag ( True/False ) */
(PID.TID 0000.0001)                   F
(PID.TID 0000.0001)     ;
(PID.TID 0000.0001) usingCurvilinearGrid = /* Curvilinear coordinates flag ( True/False ) */
(PID.TID 0000.0001)                   F
(PID.TID 0000.0001)     ;
(PID.TID 0000.0001) selectSigmaCoord = /* Hybrid-Sigma Vert. Coordinate option */
(PID.TID 0000.0001)                       0
(PID.TID 0000.0001)     ;
(PID.TID 0000.0001) rSigmaBnd = /* r/sigma transition ( units of r ==  m ) */
(PID.TID 0000.0001)                 1.234567000000000E+05
(PID.TID 0000.0001)     ;
(PID.TID 0000.0001) rkSign =   /* index orientation relative to vertical coordinate */
(PID.TID 0000.0001)                -1.000000000000000E+00
(PID.TID 0000.0001)     ;
(PID.TID 0000.0001) gravitySign = /* gravity orientation relative to vertical coordinate */
(PID.TID 0000.0001)                -1.000000000000000E+00
(PID.TID 0000.0001)     ;
(PID.TID 0000.0001) seaLev_Z =  /* reference height of sea-level [m] */
(PID.TID 0000.0001)                 0.000000000000000E+00
(PID.TID 0000.0001)     ;
(PID.TID 0000.0001) top_Pres =  /* reference pressure at the top [Pa] */
(PID.TID 0000.0001)                 0.000000000000000E+00
(PID.TID 0000.0001)     ;
(PID.TID 0000.0001) mass2rUnit = /* convert mass per unit area [kg/m2] to r-units [m] */
(PID.TID 0000.0001)                 1.000200040008002E-03
(PID.TID 0000.0001)     ;
(PID.TID 0000.0001) rUnit2mass = /* convert r-units [m] to mass per unit area [kg/m2] */
(PID.TID 0000.0001)                 9.998000000000000E+02
(PID.TID 0000.0001)     ;
(PID.TID 0000.0001) drC =   /* C spacing ( units of r ) */
(PID.TID 0000.0001)                 5.000000000000000E+00,      /* K =  1 */
(PID.TID 0000.0001)    19 @  1.000000000000000E+01,             /* K =  2: 20 */
(PID.TID 0000.0001)                 5.000000000000000E+00       /* K = 21 */
(PID.TID 0000.0001)     ;
(PID.TID 0000.0001) drF =   /* W spacing ( units of r ) */
(PID.TID 0000.0001)    20 @  1.000000000000000E+01              /* K =  1: 20 */
(PID.TID 0000.0001)     ;
(PID.TID 0000.0001) delX = /* U spacing ( m - cartesian, degrees - spherical ) */
(PID.TID 0000.0001)    60 @  2.180327868852459E+02              /* I =  1: 60 */
(PID.TID 0000.0001)     ;
(PID.TID 0000.0001) delY = /* V spacing ( m - cartesian, degrees - spherical ) */
(PID.TID 0000.0001)                 5.000000000000000E+03       /* J =  1 */
(PID.TID 0000.0001)     ;
(PID.TID 0000.0001) xgOrigin = /* X-axis origin of West  edge (cartesian: m, lat-lon: deg) */
(PID.TID 0000.0001)                 0.000000000000000E+00
(PID.TID 0000.0001)     ;
(PID.TID 0000.0001) ygOrigin = /* Y-axis origin of South edge (cartesian: m, lat-lon: deg) */
(PID.TID 0000.0001)                 0.000000000000000E+00
(PID.TID 0000.0001)     ;
(PID.TID 0000.0001) rSphere =  /* Radius ( ignored - cartesian, m - spherical ) */
(PID.TID 0000.0001)                 6.370000000000000E+06
(PID.TID 0000.0001)     ;
(PID.TID 0000.0001) deepAtmosphere = /* Deep/Shallow Atmosphere flag (True/False) */
(PID.TID 0000.0001)                   F
(PID.TID 0000.0001)     ;
(PID.TID 0000.0001) xC =  /* xC(:,1,:,1) : P-point X coord ( deg. or m if cartesian) */
(PID.TID 0000.0001)                 1.090163934426230E+02,      /* I =  1 */
(PID.TID 0000.0001)                 3.270491803278688E+02,      /* I =  2 */
(PID.TID 0000.0001)                 5.450819672131147E+02,      /* I =  3 */
(PID.TID 0000.0001)                 7.631147540983607E+02,      /* I =  4 */
(PID.TID 0000.0001)                 9.811475409836066E+02,      /* I =  5 */
(PID.TID 0000.0001)                 1.199180327868853E+03,      /* I =  6 */
(PID.TID 0000.0001)                 1.417213114754099E+03,      /* I =  7 */
(PID.TID 0000.0001)                 1.635245901639345E+03,      /* I =  8 */
(PID.TID 0000.0001)                 1.853278688524591E+03,      /* I =  9 */
(PID.TID 0000.0001)                 2.071311475409836E+03,      /* I = 10 */
(PID.TID 0000.0001)                 2.289344262295082E+03,      /* I = 11 */
(PID.TID 0000.0001)                 2.507377049180328E+03,      /* I = 12 */
(PID.TID 0000.0001)                 2.725409836065574E+03,      /* I = 13 */
(PID.TID 0000.0001)                 2.943442622950820E+03,      /* I = 14 */
(PID.TID 0000.0001)                 3.161475409836066E+03,      /* I = 15 */
(PID.TID 0000.0001)                 3.379508196721312E+03,      /* I = 16 */
(PID.TID 0000.0001)                 3.597540983606558E+03,      /* I = 17 */
(PID.TID 0000.0001)                 3.815573770491804E+03,      /* I = 18 */
(PID.TID 0000.0001)                 4.033606557377050E+03,      /* I = 19 */
(PID.TID 0000.0001)                 4.251639344262296E+03,      /* I = 20 */
(PID.TID 0000.0001)                 4.469672131147541E+03,      /* I = 21 */
(PID.TID 0000.0001)                 4.687704918032787E+03,      /* I = 22 */
(PID.TID 0000.0001)                 4.905737704918032E+03,      /* I = 23 */
(PID.TID 0000.0001)                 5.123770491803278E+03,      /* I = 24 */
(PID.TID 0000.0001)                 5.341803278688523E+03,      /* I = 25 */
(PID.TID 0000.0001)                 5.559836065573769E+03,      /* I = 26 */
(PID.TID 0000.0001)                 5.777868852459014E+03,      /* I = 27 */
(PID.TID 0000.0001)                 5.995901639344260E+03,      /* I = 28 */
(PID.TID 0000.0001)                 6.213934426229505E+03,      /* I = 29 */
(PID.TID 0000.0001)                 6.431967213114751E+03,      /* I = 30 */
(PID.TID 0000.0001)                 6.649999999999996E+03,      /* I = 31 */
(PID.TID 0000.0001)                 6.868032786885242E+03,      /* I = 32 */
(PID.TID 0000.0001)                 7.086065573770487E+03,      /* I = 33 */
(PID.TID 0000.0001)                 7.304098360655733E+03,      /* I = 34 */
(PID.TID 0000.0001)                 7.522131147540978E+03,      /* I = 35 */
(PID.TID 0000.0001)                 7.740163934426224E+03,      /* I = 36 */
(PID.TID 0000.0001)                 7.958196721311469E+03,      /* I = 37 */
(PID.TID 0000.0001)                 8.176229508196715E+03,      /* I = 38 */
(PID.TID 0000.0001)                 8.394262295081960E+03,      /* I = 39 */
(PID.TID 0000.0001)                 8.612295081967208E+03,      /* I = 40 */
(PID.TID 0000.0001)                 8.830327868852452E+03,      /* I = 41 */
(PID.TID 0000.0001)                 9.048360655737699E+03,      /* I = 42 */
(PID.TID 0000.0001)                 9.266393442622943E+03,      /* I = 43 */
(PID.TID 0000.0001)                 9.484426229508190E+03,      /* I = 44 */
(PID.TID 0000.0001)                 9.702459016393434E+03,      /* I = 45 */
(PID.TID 0000.0001)                 9.920491803278681E+03,      /* I = 46 */
(PID.TID 0000.0001)                 1.013852459016392E+04,      /* I = 47 */
(PID.TID 0000.0001)                 1.035655737704917E+04,      /* I = 48 */
(PID.TID 0000.0001)                 1.057459016393442E+04,      /* I = 49 */
(PID.TID 0000.0001)                 1.079262295081966E+04,      /* I = 50 */
(PID.TID 0000.0001)                 1.101065573770491E+04,      /* I = 51 */
(PID.TID 0000.0001)                 1.122868852459015E+04,      /* I = 52 */
(PID.TID 0000.0001)                 1.144672131147540E+04,      /* I = 53 */
(PID.TID 0000.0001)                 1.166475409836065E+04,      /* I = 54 */
(PID.TID 0000.0001)                 1.188278688524589E+04,      /* I = 55 */
(PID.TID 0000.0001)                 1.210081967213113E+04,      /* I = 56 */
(PID.TID 0000.0001)                 1.231885245901638E+04,      /* I = 57 */
(PID.TID 0000.0001)                 1.253688524590163E+04,      /* I = 58 */
(PID.TID 0000.0001)                 1.275491803278687E+04,      /* I = 59 */
(PID.TID 0000.0001)                 1.297295081967212E+04       /* I = 60 */
(PID.TID 0000.0001)     ;
(PID.TID 0000.0001) yC =  /* yC(1,:,1,:) : P-point Y coord ( deg. or m if cartesian) */
(PID.TID 0000.0001)                 2.500000000000000E+03       /* J =  1 */
(PID.TID 0000.0001)     ;
(PID.TID 0000.0001) rcoord = /* P-point R coordinate (  units of r ) */
(PID.TID 0000.0001)                -5.000000000000000E+00,      /* K =  1 */
(PID.TID 0000.0001)                -1.500000000000000E+01,      /* K =  2 */
(PID.TID 0000.0001)                -2.500000000000000E+01,      /* K =  3 */
(PID.TID 0000.0001)                -3.500000000000000E+01,      /* K =  4 */
(PID.TID 0000.0001)                -4.500000000000000E+01,      /* K =  5 */
(PID.TID 0000.0001)                -5.500000000000000E+01,      /* K =  6 */
(PID.TID 0000.0001)                -6.500000000000000E+01,      /* K =  7 */
(PID.TID 0000.0001)                -7.500000000000000E+01,      /* K =  8 */
(PID.TID 0000.0001)                -8.500000000000000E+01,      /* K =  9 */
(PID.TID 0000.0001)                -9.500000000000000E+01,      /* K = 10 */
(PID.TID 0000.0001)                -1.050000000000000E+02,      /* K = 11 */
(PID.TID 0000.0001)                -1.150000000000000E+02,      /* K = 12 */
(PID.TID 0000.0001)                -1.250000000000000E+02,      /* K = 13 */
(PID.TID 0000.0001)                -1.350000000000000E+02,      /* K = 14 */
(PID.TID 0000.0001)                -1.450000000000000E+02,      /* K = 15 */
(PID.TID 0000.0001)                -1.550000000000000E+02,      /* K = 16 */
(PID.TID 0000.0001)                -1.650000000000000E+02,      /* K = 17 */
(PID.TID 0000.0001)                -1.750000000000000E+02,      /* K = 18 */
(PID.TID 0000.0001)                -1.850000000000000E+02,      /* K = 19 */
(PID.TID 0000.0001)                -1.950000000000000E+02       /* K = 20 */
(PID.TID 0000.0001)     ;
(PID.TID 0000.0001) rF =   /* W-Interf. R coordinate (  units of r ) */
(PID.TID 0000.0001)                 0.000000000000000E+00,      /* K =  1 */
(PID.TID 0000.0001)                -1.000000000000000E+01,      /* K =  2 */
(PID.TID 0000.0001)                -2.000000000000000E+01,      /* K =  3 */
(PID.TID 0000.0001)                -3.000000000000000E+01,      /* K =  4 */
(PID.TID 0000.0001)                -4.000000000000000E+01,      /* K =  5 */
(PID.TID 0000.0001)                -5.000000000000000E+01,      /* K =  6 */
(PID.TID 0000.0001)                -6.000000000000000E+01,      /* K =  7 */
(PID.TID 0000.0001)                -7.000000000000000E+01,      /* K =  8 */
(PID.TID 0000.0001)                -8.000000000000000E+01,      /* K =  9 */
(PID.TID 0000.0001)                -9.000000000000000E+01,      /* K = 10 */
(PID.TID 0000.0001)                -1.000000000000000E+02,      /* K = 11 */
(PID.TID 0000.0001)                -1.100000000000000E+02,      /* K = 12 */
(PID.TID 0000.0001)                -1.200000000000000E+02,      /* K = 13 */
(PID.TID 0000.0001)                -1.300000000000000E+02,      /* K = 14 */
(PID.TID 0000.0001)                -1.400000000000000E+02,      /* K = 15 */
(PID.TID 0000.0001)                -1.500000000000000E+02,      /* K = 16 */
(PID.TID 0000.0001)                -1.600000000000000E+02,      /* K = 17 */
(PID.TID 0000.0001)                -1.700000000000000E+02,      /* K = 18 */
(PID.TID 0000.0001)                -1.800000000000000E+02,      /* K = 19 */
(PID.TID 0000.0001)                -1.900000000000000E+02,      /* K = 20 */
(PID.TID 0000.0001)                -2.000000000000000E+02       /* K = 21 */
(PID.TID 0000.0001)     ;
(PID.TID 0000.0001) deepFacC = /* deep-model grid factor @ cell-Center (-) */
(PID.TID 0000.0001)    20 @  1.000000000000000E+00              /* K =  1: 20 */
(PID.TID 0000.0001)     ;
(PID.TID 0000.0001) deepFacF = /* deep-model grid factor @ W-Interface (-) */
(PID.TID 0000.0001)    21 @  1.000000000000000E+00              /* K =  1: 21 */
(PID.TID 0000.0001)     ;
(PID.TID 0000.0001) rVel2wUnit = /* convert units: rVel -> wSpeed (=1 if z-coord)*/
(PID.TID 0000.0001)    21 @  1.000000000000000E+00              /* K =  1: 21 */
(PID.TID 0000.0001)     ;
(PID.TID 0000.0001) wUnit2rVel = /* convert units: wSpeed -> rVel (=1 if z-coord)*/
(PID.TID 0000.0001)    21 @  1.000000000000000E+00              /* K =  1: 21 */
(PID.TID 0000.0001)     ;
(PID.TID 0000.0001) dBdrRef = /* Vertical grad. of reference buoyancy [(m/s/r)^2] */
(PID.TID 0000.0001)                 0.000000000000000E+00,      /* K =  1 */
(PID.TID 0000.0001)                 1.000011779999999E-06,      /* K =  2 */
(PID.TID 0000.0001)                 9.999921600000012E-07,      /* K =  3 */
(PID.TID 0000.0001)                 9.999921599999997E-07,      /* K =  4 */
(PID.TID 0000.0001)                 1.000011780000000E-06,      /* K =  5 */
(PID.TID 0000.0001)                 9.999921600000005E-07,      /* K =  6 */
(PID.TID 0000.0001)                 1.000011780000000E-06,      /* K =  7 */
(PID.TID 0000.0001)                 9.999921600000005E-07,      /* K =  8 */
(PID.TID 0000.0001)     5 @  1.000000008000000E-06,             /* K =  9: 13 */
(PID.TID 0000.0001)                 9.999921600000005E-07,      /* K = 14 */
(PID.TID 0000.0001)                 1.000011780000000E-06,      /* K = 15 */
(PID.TID 0000.0001)                 9.999921600000005E-07,      /* K = 16 */
(PID.TID 0000.0001)                 1.000011780000000E-06,      /* K = 17 */
(PID.TID 0000.0001)                 9.999921599999997E-07,      /* K = 18 */
(PID.TID 0000.0001)                 9.999921600000012E-07,      /* K = 19 */
(PID.TID 0000.0001)                 1.000011779999999E-06       /* K = 20 */
(PID.TID 0000.0001)     ;
(PID.TID 0000.0001) rotateGrid = /* use rotated grid ( True/False ) */
(PID.TID 0000.0001)                   F
(PID.TID 0000.0001)     ;
(PID.TID 0000.0001) phiEuler = /* Euler angle, rotation about original z-coordinate [rad] */
(PID.TID 0000.0001)                 0.000000000000000E+00
(PID.TID 0000.0001)     ;
(PID.TID 0000.0001) thetaEuler = /* Euler angle, rotation about new x-coordinate [rad] */
(PID.TID 0000.0001)                 0.000000000000000E+00
(PID.TID 0000.0001)     ;
(PID.TID 0000.0001) psiEuler = /* Euler angle, rotation about new z-coordinate [rad] */
(PID.TID 0000.0001)                 0.000000000000000E+00
(PID.TID 0000.0001)     ;
(PID.TID 0000.0001) dxF =  /* dxF(:,1,:,1) ( units: m ) */
(PID.TID 0000.0001)    60 @  2.180327868852459E+02              /* I =  1: 60 */
(PID.TID 0000.0001)     ;
(PID.TID 0000.0001) dxF =  /* dxF(1,:,1,:) ( units: m ) */
(PID.TID 0000.0001)                 2.180327868852459E+02       /* J =  1 */
(PID.TID 0000.0001)     ;
(PID.TID 0000.0001) dyF =  /* dyF(:,1,:,1) ( units: m ) */
(PID.TID 0000.0001)    60 @  5.000000000000000E+03              /* I =  1: 60 */
(PID.TID 0000.0001)     ;
(PID.TID 0000.0001) dyF =  /* dyF(1,:,1,:) ( units: m ) */
(PID.TID 0000.0001)                 5.000000000000000E+03       /* J =  1 */
(PID.TID 0000.0001)     ;
(PID.TID 0000.0001) dxG =  /* dxG(:,1,:,1) ( units: m ) */
(PID.TID 0000.0001)    60 @  2.180327868852459E+02              /* I =  1: 60 */
(PID.TID 0000.0001)     ;
(PID.TID 0000.0001) dxG =  /* dxG(1,:,1,:) ( units: m ) */
(PID.TID 0000.0001)                 2.180327868852459E+02       /* J =  1 */
(PID.TID 0000.0001)     ;
(PID.TID 0000.0001) dyG =  /* dyG(:,1,:,1) ( units: m ) */
(PID.TID 0000.0001)    60 @  5.000000000000000E+03              /* I =  1: 60 */
(PID.TID 0000.0001)     ;
(PID.TID 0000.0001) dyG =  /* dyG(1,:,1,:) ( units: m ) */
(PID.TID 0000.0001)                 5.000000000000000E+03       /* J =  1 */
(PID.TID 0000.0001)     ;
(PID.TID 0000.0001) dxC =  /* dxC(:,1,:,1) ( units: m ) */
(PID.TID 0000.0001)    60 @  2.180327868852459E+02              /* I =  1: 60 */
(PID.TID 0000.0001)     ;
(PID.TID 0000.0001) dxC =  /* dxC(1,:,1,:) ( units: m ) */
(PID.TID 0000.0001)                 2.180327868852459E+02       /* J =  1 */
(PID.TID 0000.0001)     ;
(PID.TID 0000.0001) dyC =  /* dyC(:,1,:,1) ( units: m ) */
(PID.TID 0000.0001)    60 @  5.000000000000000E+03              /* I =  1: 60 */
(PID.TID 0000.0001)     ;
(PID.TID 0000.0001) dyC =  /* dyC(1,:,1,:) ( units: m ) */
(PID.TID 0000.0001)                 5.000000000000000E+03       /* J =  1 */
(PID.TID 0000.0001)     ;
(PID.TID 0000.0001) dxV =  /* dxV(:,1,:,1) ( units: m ) */
(PID.TID 0000.0001)    60 @  2.180327868852459E+02              /* I =  1: 60 */
(PID.TID 0000.0001)     ;
(PID.TID 0000.0001) dxV =  /* dxV(1,:,1,:) ( units: m ) */
(PID.TID 0000.0001)                 2.180327868852459E+02       /* J =  1 */
(PID.TID 0000.0001)     ;
(PID.TID 0000.0001) dyU =  /* dyU(:,1,:,1) ( units: m ) */
(PID.TID 0000.0001)    60 @  5.000000000000000E+03              /* I =  1: 60 */
(PID.TID 0000.0001)     ;
(PID.TID 0000.0001) dyU =  /* dyU(1,:,1,:) ( units: m ) */
(PID.TID 0000.0001)                 5.000000000000000E+03       /* J =  1 */
(PID.TID 0000.0001)     ;
(PID.TID 0000.0001) rA  =  /* rA (:,1,:,1) ( units: m^2 ) */
(PID.TID 0000.0001)    60 @  1.090163934426229E+06              /* I =  1: 60 */
(PID.TID 0000.0001)     ;
(PID.TID 0000.0001) rA  =  /* rA (1,:,1,:) ( units: m^2 ) */
(PID.TID 0000.0001)                 1.090163934426229E+06       /* J =  1 */
(PID.TID 0000.0001)     ;
(PID.TID 0000.0001) rAw =  /* rAw(:,1,:,1) ( units: m^2 ) */
(PID.TID 0000.0001)    60 @  1.090163934426229E+06              /* I =  1: 60 */
(PID.TID 0000.0001)     ;
(PID.TID 0000.0001) rAw =  /* rAw(1,:,1,:) ( units: m^2 ) */
(PID.TID 0000.0001)                 1.090163934426229E+06       /* J =  1 */
(PID.TID 0000.0001)     ;
(PID.TID 0000.0001) rAs =  /* rAs(:,1,:,1) ( units: m^2 ) */
(PID.TID 0000.0001)    60 @  1.090163934426229E+06              /* I =  1: 60 */
(PID.TID 0000.0001)     ;
(PID.TID 0000.0001) rAs =  /* rAs(1,:,1,:) ( units: m^2 ) */
(PID.TID 0000.0001)                 1.090163934426229E+06       /* J =  1 */
(PID.TID 0000.0001)     ;
(PID.TID 0000.0001) globalArea = /* Integrated horizontal Area (m^2) */
(PID.TID 0000.0001)                 6.322950819672131E+07
(PID.TID 0000.0001)     ;
(PID.TID 0000.0001) // =======================================================
(PID.TID 0000.0001) // End of Model config. summary
(PID.TID 0000.0001) // =======================================================
(PID.TID 0000.0001) 
(PID.TID 0000.0001) == Packages configuration : Check & print summary ==
(PID.TID 0000.0001) 
(PID.TID 0000.0001) OBCS_CHECK: #define ALLOW_OBCS
(PID.TID 0000.0001) OBCS_CHECK: start summary:
(PID.TID 0000.0001) useOBCSprescribe = /* prescribe OB values */
(PID.TID 0000.0001)                   F
(PID.TID 0000.0001)     ;
(PID.TID 0000.0001) useOBCSbalance = /* balance the flow through OB */
(PID.TID 0000.0001)                   F
(PID.TID 0000.0001)     ;
(PID.TID 0000.0001) OBCS_uvApplyFac = /* Factor to apply to U,V 2nd column/row */
(PID.TID 0000.0001)                 1.000000000000000E+00
(PID.TID 0000.0001)     ;
(PID.TID 0000.0001) OBCS_u1_adv_T = /* Temp uses upwind adv-scheme @ OB */
(PID.TID 0000.0001)                       0
(PID.TID 0000.0001)     ;
(PID.TID 0000.0001) OBCS_u1_adv_S = /* Salt uses upwind adv-scheme @ OB */
(PID.TID 0000.0001)                       0
(PID.TID 0000.0001)     ;
(PID.TID 0000.0001) OBCS_monitorFreq = /* monitor output frequency [s] */
(PID.TID 0000.0001)                 7.200000000000000E+03
(PID.TID 0000.0001)     ;
(PID.TID 0000.0001) OBCS_monSelect = /* select group of variables to monitor */
(PID.TID 0000.0001)                       0
(PID.TID 0000.0001)     ;
(PID.TID 0000.0001) useOBCStides = /* apply tidal forcing through OB */
(PID.TID 0000.0001)                   F
(PID.TID 0000.0001)     ;
(PID.TID 0000.0001) tidalPeriod = /* (s) */
(PID.TID 0000.0001)    10 @  0.000000000000000E+00              /* I =  1: 10 */
(PID.TID 0000.0001)     ;
(PID.TID 0000.0001) OB_indexNone = /* null value for OB index (i.e. no OB) */
(PID.TID 0000.0001)                     -99
(PID.TID 0000.0001)     ;
(PID.TID 0000.0001) ======== Tile bi=   1 , bj=   1 ========
(PID.TID 0000.0001)  OB_Jn = /* Northern OB local indices */
(PID.TID 0000.0001)    34 @      -99                            /* I = -1: 32 */
(PID.TID 0000.0001)  OB_Js = /* Southern OB local indices */
(PID.TID 0000.0001)    34 @      -99                            /* I = -1: 32 */
(PID.TID 0000.0001)  OB_Ie = /* Eastern OB local indices */
(PID.TID 0000.0001)     5 @      -99                            /* J = -1:  3 */
(PID.TID 0000.0001)  OB_Iw = /* Western OB local indices */
(PID.TID 0000.0001)     5 @        1                            /* J = -1:  3 */
(PID.TID 0000.0001) ======== Tile bi=   2 , bj=   1 ========
(PID.TID 0000.0001)  OB_Jn = /* Northern OB local indices */
(PID.TID 0000.0001)    34 @      -99                            /* I = -1: 32 */
(PID.TID 0000.0001)  OB_Js = /* Southern OB local indices */
(PID.TID 0000.0001)    34 @      -99                            /* I = -1: 32 */
(PID.TID 0000.0001)  OB_Ie = /* Eastern OB local indices */
(PID.TID 0000.0001)     5 @       30                            /* J = -1:  3 */
(PID.TID 0000.0001)  OB_Iw = /* Western OB local indices */
(PID.TID 0000.0001)     5 @      -99                            /* J = -1:  3 */
(PID.TID 0000.0001) OBCS_CHECK: end summary.
(PID.TID 0000.0001) OBCS_CHECK: #define ALLOW_ORLANSKI
(PID.TID 0000.0001) OBCS_CHECK: set-up OK
(PID.TID 0000.0001) OBCS_CHECK: check Inside Mask and OB locations: OK
(PID.TID 0000.0001) KL10_CHECK: #define ALLOW_KL10
(PID.TID 0000.0001) GAD_CHECK: #define ALLOW_GENERIC_ADVDIFF
(PID.TID 0000.0001) // =======================================================
(PID.TID 0000.0001) // Check Model config. (CONFIG_CHECK):
(PID.TID 0000.0001) // CONFIG_CHECK : Normal End
(PID.TID 0000.0001) // =======================================================
(PID.TID 0000.0001) 
(PID.TID 0000.0001)  MDS_READ_FIELD: opening global file: T.init
(PID.TID 0000.0001) Start initial hydrostatic pressure computation
(PID.TID 0000.0001) Pressure is predetermined for buoyancyRelation OCEANIC
(PID.TID 0000.0001) 
(PID.TID 0000.0001) // =======================================================
(PID.TID 0000.0001) // Model current state
(PID.TID 0000.0001) // =======================================================
(PID.TID 0000.0001) 
(PID.TID 0000.0001) // =======================================================
(PID.TID 0000.0001) // Begin MONITOR dynamic field statistics
(PID.TID 0000.0001) // =======================================================
(PID.TID 0000.0001) %MON time_tsnumber                =                     0
(PID.TID 0000.0001) %MON time_secondsf                =   0.0000000000000E+00
(PID.TID 0000.0001) %MON dynstat_eta_max              =   0.0000000000000E+00
(PID.TID 0000.0001) %MON dynstat_eta_min              =   0.0000000000000E+00
(PID.TID 0000.0001) %MON dynstat_eta_mean             =   0.0000000000000E+00
(PID.TID 0000.0001) %MON dynstat_eta_sd               =   0.0000000000000E+00
(PID.TID 0000.0001) %MON dynstat_eta_del2             =   0.0000000000000E+00
(PID.TID 0000.0001) %MON dynstat_uvel_max             =   0.0000000000000E+00
(PID.TID 0000.0001) %MON dynstat_uvel_min             =   0.0000000000000E+00
(PID.TID 0000.0001) %MON dynstat_uvel_mean            =   0.0000000000000E+00
(PID.TID 0000.0001) %MON dynstat_uvel_sd              =   0.0000000000000E+00
(PID.TID 0000.0001) %MON dynstat_uvel_del2            =   0.0000000000000E+00
(PID.TID 0000.0001) %MON dynstat_vvel_max             =   0.0000000000000E+00
(PID.TID 0000.0001) %MON dynstat_vvel_min             =   0.0000000000000E+00
(PID.TID 0000.0001) %MON dynstat_vvel_mean            =   0.0000000000000E+00
(PID.TID 0000.0001) %MON dynstat_vvel_sd              =   0.0000000000000E+00
(PID.TID 0000.0001) %MON dynstat_vvel_del2            =   0.0000000000000E+00
(PID.TID 0000.0001) %MON dynstat_wvel_max             =  -0.0000000000000E+00
(PID.TID 0000.0001) %MON dynstat_wvel_min             =  -0.0000000000000E+00
(PID.TID 0000.0001) %MON dynstat_wvel_mean            =   0.0000000000000E+00
(PID.TID 0000.0001) %MON dynstat_wvel_sd              =   0.0000000000000E+00
(PID.TID 0000.0001) %MON dynstat_wvel_del2            =   0.0000000000000E+00
(PID.TID 0000.0001) %MON dynstat_theta_max            =   4.8419979612640E-02
(PID.TID 0000.0001) %MON dynstat_theta_min            =  -4.8419979612640E-02
(PID.TID 0000.0001) %MON dynstat_theta_mean           =   1.4460841624175E-02
(PID.TID 0000.0001) %MON dynstat_theta_sd             =   2.7660544389986E-02
(PID.TID 0000.0001) %MON dynstat_theta_del2           =   1.8343774058368E-10
(PID.TID 0000.0001) %MON dynstat_salt_max             =   3.5000000000000E+01
(PID.TID 0000.0001) %MON dynstat_salt_min             =   3.5000000000000E+01
(PID.TID 0000.0001) %MON dynstat_salt_mean            =   3.5000000000000E+01
(PID.TID 0000.0001) %MON dynstat_salt_sd              =   3.5527136788005E-13
(PID.TID 0000.0001) %MON dynstat_salt_del2            =   2.6218552499998E-01
(PID.TID 0000.0001) %MON trAdv_CFL_u_max              =   0.0000000000000E+00
(PID.TID 0000.0001) %MON trAdv_CFL_v_max              =   0.0000000000000E+00
(PID.TID 0000.0001) %MON trAdv_CFL_w_max              =   0.0000000000000E+00
(PID.TID 0000.0001) %MON advcfl_uvel_max              =   0.0000000000000E+00
(PID.TID 0000.0001) %MON advcfl_vvel_max              =   0.0000000000000E+00
(PID.TID 0000.0001) %MON advcfl_wvel_max              =   0.0000000000000E+00
(PID.TID 0000.0001) %MON advcfl_W_hf_max              =   0.0000000000000E+00
(PID.TID 0000.0001) %MON pe_b_mean                    =   0.0000000000000E+00
(PID.TID 0000.0001) %MON ke_max                       =   0.0000000000000E+00
(PID.TID 0000.0001) %MON ke_mean                      =   0.0000000000000E+00
(PID.TID 0000.0001) %MON ke_vol                       =   6.4007813759742E+09
(PID.TID 0000.0001) %MON vort_r_min                   =   0.0000000000000E+00
(PID.TID 0000.0001) %MON vort_r_max                   =   0.0000000000000E+00
(PID.TID 0000.0001) %MON vort_a_mean                  =   0.0000000000000E+00
(PID.TID 0000.0001) %MON vort_a_sd                    =   0.0000000000000E+00
(PID.TID 0000.0001) %MON vort_p_mean                  =   0.0000000000000E+00
(PID.TID 0000.0001) %MON vort_p_sd                    =   0.0000000000000E+00
(PID.TID 0000.0001) %MON surfExpan_theta_mean         =   0.0000000000000E+00
(PID.TID 0000.0001) %MON surfExpan_salt_mean          =   0.0000000000000E+00
(PID.TID 0000.0001) // =======================================================
(PID.TID 0000.0001) // End MONITOR dynamic field statistics
(PID.TID 0000.0001) // =======================================================
(PID.TID 0000.0001) // =======================================================
(PID.TID 0000.0001) // Begin OBCS MONITOR field statistics
(PID.TID 0000.0001) // =======================================================
(PID.TID 0000.0001) %MON obc_W_uVel_max               =   0.0000000000000E+00
(PID.TID 0000.0001) %MON obc_W_uVel_min               =   0.0000000000000E+00
(PID.TID 0000.0001) %MON obc_W_uVel_mean              =   0.0000000000000E+00
(PID.TID 0000.0001) %MON obc_W_uVel_sd                =   0.0000000000000E+00
(PID.TID 0000.0001) %MON obc_W_uVel_Int               =   0.0000000000000E+00
(PID.TID 0000.0001) // =======================================================
(PID.TID 0000.0001) // End OBCS MONITOR field statistics
(PID.TID 0000.0001) // =======================================================
(PID.TID 0000.0001) SOLVE_FOR_PRESSURE: putPmEinXvector =    F
(PID.TID 0000.0001) SOLVE_FOR_PRESSURE: zeroPsNH=    F , zeroMeanPnh=    F
(PID.TID 0000.0001) SOLVE_FOR_PRESSURE: oldFreeSurfTerm =    F
 cg2d: Sum(rhs),rhsMax =  -1.00000000000000E+00  9.68260080492760E-20
 cg2d: Sum(rhs),rhsMax =  -1.41763554020735E-13  8.72110349225715E-07
 cg2d: Sum(rhs),rhsMax =   2.25763079563478E-15  6.10870494937691E-05
 cg2d: Sum(rhs),rhsMax =  -1.84896585889160E-14  7.47785965631857E-05
 cg2d: Sum(rhs),rhsMax =  -1.29208709703788E-14  1.53635762404857E-04
 cg2d: Sum(rhs),rhsMax =  -6.20239536813783E-15  1.81194468141051E-04
 cg2d: Sum(rhs),rhsMax =  -1.09813959141281E-14  2.68197809126948E-04
 cg2d: Sum(rhs),rhsMax =  -1.46939209931529E-14  2.99601215409546E-04
 cg2d: Sum(rhs),rhsMax =  -1.74072995601238E-14  3.84027792288935E-04
 cg2d: Sum(rhs),rhsMax =  -2.22744999528457E-14  4.09148871711574E-04
 cg2d: Sum(rhs),rhsMax =  -1.52957616190996E-14  4.81249191652786E-04
 cg2d: Sum(rhs),rhsMax =  -1.39935263897273E-14  4.91867656067381E-04
 cg2d: Sum(rhs),rhsMax =  -1.48982931026664E-14  5.44678243566288E-04
 cg2d: Sum(rhs),rhsMax =  -2.16666962149503E-14  5.35996149585957E-04
 cg2d: Sum(rhs),rhsMax =  -2.75270800077776E-14  5.66435023034111E-04
 cg2d: Sum(rhs),rhsMax =  -2.38581940661953E-14  5.37680792526612E-04
(PID.TID 0000.0001)      cg2d_init_res =   1.67939113316493E-01
(PID.TID 0000.0001)      cg2d_iters(min,last) =      -1      58
(PID.TID 0000.0001)      cg2d_last_res =   2.25091516227812E-19
(PID.TID 0000.0001) // =======================================================
(PID.TID 0000.0001) // Begin MONITOR dynamic field statistics
(PID.TID 0000.0001) // =======================================================
(PID.TID 0000.0001) %MON time_tsnumber                =                    16
(PID.TID 0000.0001) %MON time_secondsf                =   7.2000000000000E+03
(PID.TID 0000.0001) %MON dynstat_eta_max              =   8.9493616181416E-05
(PID.TID 0000.0001) %MON dynstat_eta_min              =  -2.4788295522167E-06
(PID.TID 0000.0001) %MON dynstat_eta_mean             =   4.5423126510952E-17
(PID.TID 0000.0001) %MON dynstat_eta_sd               =   1.2815848070907E-05
(PID.TID 0000.0001) %MON dynstat_eta_del2             =   6.0831899217518E-07
(PID.TID 0000.0001) %MON dynstat_uvel_max             =   1.9724293559825E-02
(PID.TID 0000.0001) %MON dynstat_uvel_min             =  -1.9724293559825E-02
(PID.TID 0000.0001) %MON dynstat_uvel_mean            =  -2.7347429105958E-08
(PID.TID 0000.0001) %MON dynstat_uvel_sd              =   2.9654379588911E-03
(PID.TID 0000.0001) %MON dynstat_uvel_del2            =   3.4230352198524E-05
(PID.TID 0000.0001) %MON dynstat_vvel_max             =   0.0000000000000E+00
(PID.TID 0000.0001) %MON dynstat_vvel_min             =   0.0000000000000E+00
(PID.TID 0000.0001) %MON dynstat_vvel_mean            =   0.0000000000000E+00
(PID.TID 0000.0001) %MON dynstat_vvel_sd              =   0.0000000000000E+00
(PID.TID 0000.0001) %MON dynstat_vvel_del2            =   0.0000000000000E+00
(PID.TID 0000.0001) %MON dynstat_wvel_max             =   5.5454927678264E-08
(PID.TID 0000.0001) %MON dynstat_wvel_min             =  -2.6007191107466E-03
(PID.TID 0000.0001) %MON dynstat_wvel_mean            =  -1.2936438357804E-04
(PID.TID 0000.0001) %MON dynstat_wvel_sd              =   4.6433991088466E-04
(PID.TID 0000.0001) %MON dynstat_wvel_del2            =   1.8321840430909E-05
(PID.TID 0000.0001) %MON dynstat_theta_max            =   4.9035518264378E-02
(PID.TID 0000.0001) %MON dynstat_theta_min            =  -4.8416311201084E-02
(PID.TID 0000.0001) %MON dynstat_theta_mean           =   1.4714347385816E-02
(PID.TID 0000.0001) %MON dynstat_theta_sd             =   2.7547690087229E-02
(PID.TID 0000.0001) %MON dynstat_theta_del2           =   2.4735853822282E-05
(PID.TID 0000.0001) %MON dynstat_salt_max             =   3.5000000000000E+01
(PID.TID 0000.0001) %MON dynstat_salt_min             =   3.5000000000000E+01
(PID.TID 0000.0001) %MON dynstat_salt_mean            =   3.5000000000000E+01
(PID.TID 0000.0001) %MON dynstat_salt_sd              =   3.4816594052245E-13
(PID.TID 0000.0001) %MON dynstat_salt_del2            =   2.6218552499998E-01
(PID.TID 0000.0001) %MON trAdv_CFL_u_max              =   3.9024487551871E-02
(PID.TID 0000.0001) %MON trAdv_CFL_v_max              =   0.0000000000000E+00
(PID.TID 0000.0001) %MON trAdv_CFL_w_max              =   1.2410976187279E-01
(PID.TID 0000.0001) %MON advcfl_uvel_max              =   4.0709162271970E-02
(PID.TID 0000.0001) %MON advcfl_vvel_max              =   0.0000000000000E+00
(PID.TID 0000.0001) %MON advcfl_wvel_max              =   1.1703235998360E-01
(PID.TID 0000.0001) %MON advcfl_W_hf_max              =   1.1703235998360E-01
(PID.TID 0000.0001) %MON pe_b_mean                    =   7.9583039567087E-12
(PID.TID 0000.0001) %MON ke_max                       =   1.2713285639222E-04
(PID.TID 0000.0001) %MON ke_mean                      =   2.7301112276481E-06
(PID.TID 0000.0001) %MON ke_vol                       =   6.4007813759742E+09
(PID.TID 0000.0001) %MON vort_r_min                   =   0.0000000000000E+00
(PID.TID 0000.0001) %MON vort_r_max                   =   0.0000000000000E+00
(PID.TID 0000.0001) %MON vort_a_mean                  =   0.0000000000000E+00
(PID.TID 0000.0001) %MON vort_a_sd                    =   0.0000000000000E+00
(PID.TID 0000.0001) %MON vort_p_mean                  =   0.0000000000000E+00
(PID.TID 0000.0001) %MON vort_p_sd                    =   0.0000000000000E+00
(PID.TID 0000.0001) %MON surfExpan_theta_mean         =  -1.0690753386891E-12
(PID.TID 0000.0001) %MON surfExpan_salt_mean          =   8.9371892768857E-19
(PID.TID 0000.0001) // =======================================================
(PID.TID 0000.0001) // End MONITOR dynamic field statistics
(PID.TID 0000.0001) // =======================================================
(PID.TID 0000.0001) // =======================================================
(PID.TID 0000.0001) // Begin OBCS MONITOR field statistics
(PID.TID 0000.0001) // =======================================================
(PID.TID 0000.0001) %MON obc_W_uVel_max               =   1.9724293559825E-02
(PID.TID 0000.0001) %MON obc_W_uVel_min               =  -1.9724293559825E-02
(PID.TID 0000.0001) %MON obc_W_uVel_mean              =   1.7053025658242E-18
(PID.TID 0000.0001) %MON obc_W_uVel_sd                =   1.3990309184453E-02
(PID.TID 0000.0001) %MON obc_W_uVel_Int               =   1.7053025658242E-12
(PID.TID 0000.0001) // =======================================================
(PID.TID 0000.0001) // End OBCS MONITOR field statistics
(PID.TID 0000.0001) // =======================================================
 cg2d: Sum(rhs),rhsMax =  -2.32469208813479E-14  5.46666639857926E-04
 cg2d: Sum(rhs),rhsMax =  -3.01984999506733E-14  5.00736715384726E-04
 cg2d: Sum(rhs),rhsMax =  -3.99411406726280E-14  4.92383555620021E-04
 cg2d: Sum(rhs),rhsMax =  -4.45359894796216E-14  4.34689789962646E-04
 cg2d: Sum(rhs),rhsMax =  -4.85653184334467E-14  4.14909359378774E-04
 cg2d: Sum(rhs),rhsMax =  -5.63748266818598E-14  3.51837384107283E-04
 cg2d: Sum(rhs),rhsMax =  -6.67096586304261E-14  3.26767079234565E-04
 cg2d: Sum(rhs),rhsMax =  -8.03441514707348E-14  2.69292897308585E-04
 cg2d: Sum(rhs),rhsMax =  -8.92055526668933E-14  2.81493144856319E-04
 cg2d: Sum(rhs),rhsMax =  -7.83821792194050E-14  3.31238542353377E-04
 cg2d: Sum(rhs),rhsMax =  -8.07418368276025E-14  3.23393112667826E-04
 cg2d: Sum(rhs),rhsMax =  -8.44858037696294E-14  3.52037489011136E-04
 cg2d: Sum(rhs),rhsMax =  -9.35904999332937E-14  3.26813294693442E-04
 cg2d: Sum(rhs),rhsMax =  -9.50168763114156E-14  3.38517955795704E-04
 cg2d: Sum(rhs),rhsMax =  -1.04993271021758E-13  3.01539347851946E-04
 cg2d: Sum(rhs),rhsMax =  -1.05802953204170E-13  3.02580661898006E-04
(PID.TID 0000.0001)      cg2d_init_res =   2.31124676629884E-01
(PID.TID 0000.0001)      cg2d_iters(min,last) =      -1      58
(PID.TID 0000.0001)      cg2d_last_res =   9.52213715533321E-19
(PID.TID 0000.0001) // =======================================================
(PID.TID 0000.0001) // Begin MONITOR dynamic field statistics
(PID.TID 0000.0001) // =======================================================
(PID.TID 0000.0001) %MON time_tsnumber                =                    32
(PID.TID 0000.0001) %MON time_secondsf                =   1.4400000000000E+04
(PID.TID 0000.0001) %MON dynstat_eta_max              =   1.1607504237282E-04
(PID.TID 0000.0001) %MON dynstat_eta_min              =  -6.8755556091282E-06
(PID.TID 0000.0001) %MON dynstat_eta_mean             =   1.1841503115255E-16
(PID.TID 0000.0001) %MON dynstat_eta_sd               =   2.5503041454948E-05
(PID.TID 0000.0001) %MON dynstat_eta_del2             =   8.4641621222302E-07
(PID.TID 0000.0001) %MON dynstat_uvel_max             =   2.2888560832021E-02
(PID.TID 0000.0001) %MON dynstat_uvel_min             =  -2.3553779484204E-02
(PID.TID 0000.0001) %MON dynstat_uvel_mean            =  -1.6800624849356E-08
(PID.TID 0000.0001) %MON dynstat_uvel_sd              =   5.0883922938265E-03
(PID.TID 0000.0001) %MON dynstat_uvel_del2            =   5.2956091602454E-05
(PID.TID 0000.0001) %MON dynstat_vvel_max             =   0.0000000000000E+00
(PID.TID 0000.0001) %MON dynstat_vvel_min             =   0.0000000000000E+00
(PID.TID 0000.0001) %MON dynstat_vvel_mean            =   0.0000000000000E+00
(PID.TID 0000.0001) %MON dynstat_vvel_sd              =   0.0000000000000E+00
(PID.TID 0000.0001) %MON dynstat_vvel_del2            =   0.0000000000000E+00
(PID.TID 0000.0001) %MON dynstat_wvel_max             =   6.8287616297481E-04
(PID.TID 0000.0001) %MON dynstat_wvel_min             =  -2.7095712923072E-03
(PID.TID 0000.0001) %MON dynstat_wvel_mean            =  -1.3649354263216E-04
(PID.TID 0000.0001) %MON dynstat_wvel_sd              =   4.8074363660873E-04
(PID.TID 0000.0001) %MON dynstat_wvel_del2            =   1.8537548037342E-05
(PID.TID 0000.0001) %MON dynstat_theta_max            =   4.9326169855008E-02
(PID.TID 0000.0001) %MON dynstat_theta_min            =  -4.8412639931846E-02
(PID.TID 0000.0001) %MON dynstat_theta_mean           =   1.5231701184073E-02
(PID.TID 0000.0001) %MON dynstat_theta_sd             =   2.7348734514624E-02
(PID.TID 0000.0001) %MON dynstat_theta_del2           =   2.5773493515380E-05
(PID.TID 0000.0001) %MON dynstat_salt_max             =   3.5000000000000E+01
(PID.TID 0000.0001) %MON dynstat_salt_min             =   3.5000000000000E+01
(PID.TID 0000.0001) %MON dynstat_salt_mean            =   3.5000000000000E+01
(PID.TID 0000.0001) %MON dynstat_salt_sd              =   3.4816594052245E-13
(PID.TID 0000.0001) %MON dynstat_salt_del2            =   2.6218552499998E-01
(PID.TID 0000.0001) %MON trAdv_CFL_u_max              =   4.8629205315366E-02
(PID.TID 0000.0001) %MON trAdv_CFL_v_max              =   0.0000000000000E+00
(PID.TID 0000.0001) %MON trAdv_CFL_w_max              =   1.2627376645485E-01
(PID.TID 0000.0001) %MON advcfl_uvel_max              =   4.8612875702362E-02
(PID.TID 0000.0001) %MON advcfl_vvel_max              =   0.0000000000000E+00
(PID.TID 0000.0001) %MON advcfl_wvel_max              =   1.2193070815383E-01
(PID.TID 0000.0001) %MON advcfl_W_hf_max              =   1.2193070815383E-01
(PID.TID 0000.0001) %MON pe_b_mean                    =   3.1514453149716E-11
(PID.TID 0000.0001) %MON ke_max                       =   2.4697249955432E-04
(PID.TID 0000.0001) %MON ke_mean                      =   1.1090294002114E-05
(PID.TID 0000.0001) %MON ke_vol                       =   6.4007813759742E+09
(PID.TID 0000.0001) %MON vort_r_min                   =   0.0000000000000E+00
(PID.TID 0000.0001) %MON vort_r_max                   =   0.0000000000000E+00
(PID.TID 0000.0001) %MON vort_a_mean                  =   0.0000000000000E+00
(PID.TID 0000.0001) %MON vort_a_sd                    =   0.0000000000000E+00
(PID.TID 0000.0001) %MON vort_p_mean                  =   0.0000000000000E+00
(PID.TID 0000.0001) %MON vort_p_sd                    =   0.0000000000000E+00
(PID.TID 0000.0001) %MON surfExpan_theta_mean         =   8.7820046588541E-14
(PID.TID 0000.0001) %MON surfExpan_salt_mean          =   7.6504495706561E-19
(PID.TID 0000.0001) // =======================================================
(PID.TID 0000.0001) // End MONITOR dynamic field statistics
(PID.TID 0000.0001) // =======================================================
(PID.TID 0000.0001) // =======================================================
(PID.TID 0000.0001) // Begin OBCS MONITOR field statistics
(PID.TID 0000.0001) // =======================================================
(PID.TID 0000.0001) %MON obc_W_uVel_max               =   2.0811282282136E-02
(PID.TID 0000.0001) %MON obc_W_uVel_min               =  -2.0811282282136E-02
(PID.TID 0000.0001) %MON obc_W_uVel_mean              =   1.3642420526594E-18
(PID.TID 0000.0001) %MON obc_W_uVel_sd                =   1.4761302997692E-02
(PID.TID 0000.0001) %MON obc_W_uVel_Int               =   1.3642420526594E-12
(PID.TID 0000.0001) // =======================================================
(PID.TID 0000.0001) // End OBCS MONITOR field statistics
(PID.TID 0000.0001) // =======================================================
 cg2d: Sum(rhs),rhsMax =  -1.29765989620445E-13  2.60697812529603E-04
 cg2d: Sum(rhs),rhsMax =  -1.20964436384208E-13  2.88683598845755E-04
 cg2d: Sum(rhs),rhsMax =  -1.16352674023323E-13  3.19234947517532E-04
 cg2d: Sum(rhs),rhsMax =  -1.20257536567747E-13  3.31230942219814E-04
 cg2d: Sum(rhs),rhsMax =  -1.19793931718792E-13  3.45666432274516E-04
 cg2d: Sum(rhs),rhsMax =  -1.19819518890063E-13  3.41343126832893E-04
 cg2d: Sum(rhs),rhsMax =  -1.25515917104302E-13  3.42246240988375E-04
 cg2d: Sum(rhs),rhsMax =  -1.29576037399826E-13  3.25254010777815E-04
 cg2d: Sum(rhs),rhsMax =  -1.40598904047051E-13  3.17047578365878E-04
 cg2d: Sum(rhs),rhsMax =  -1.55945568958149E-13  2.92331897438501E-04
 cg2d: Sum(rhs),rhsMax =  -1.57332480377192E-13  2.93681698705917E-04
 cg2d: Sum(rhs),rhsMax =  -1.53538640135231E-13  3.22201479811573E-04
 cg2d: Sum(rhs),rhsMax =  -1.33058061096980E-13  3.56598287099607E-04
 cg2d: Sum(rhs),rhsMax =  -1.27186022130799E-13  3.93215701486418E-04
 cg2d: Sum(rhs),rhsMax =  -1.17013603667671E-13  4.30456843456995E-04
 cg2d: Sum(rhs),rhsMax =  -1.07975694357831E-13  4.65963774570319E-04
(PID.TID 0000.0001)      cg2d_init_res =   1.50421068371595E-01
(PID.TID 0000.0001)      cg2d_iters(min,last) =      -1      58
(PID.TID 0000.0001)      cg2d_last_res =   3.69468510458249E-19
(PID.TID 0000.0001) // =======================================================
(PID.TID 0000.0001) // Begin MONITOR dynamic field statistics
(PID.TID 0000.0001) // =======================================================
(PID.TID 0000.0001) %MON time_tsnumber                =                    48
(PID.TID 0000.0001) %MON time_secondsf                =   2.1600000000000E+04
(PID.TID 0000.0001) %MON dynstat_eta_max              =   1.1384597177890E-04
(PID.TID 0000.0001) %MON dynstat_eta_min              =  -9.5185484103365E-06
(PID.TID 0000.0001) %MON dynstat_eta_mean             =   1.8952172977642E-16
(PID.TID 0000.0001) %MON dynstat_eta_sd               =   2.8523345541567E-05
(PID.TID 0000.0001) %MON dynstat_eta_del2             =   9.7288915377460E-07
(PID.TID 0000.0001) %MON dynstat_uvel_max             =   2.3114389422461E-02
(PID.TID 0000.0001) %MON dynstat_uvel_min             =  -2.3499520848091E-02
(PID.TID 0000.0001) %MON dynstat_uvel_mean            =   9.0676556428621E-09
(PID.TID 0000.0001) %MON dynstat_uvel_sd              =   5.3628863948999E-03
(PID.TID 0000.0001) %MON dynstat_uvel_del2            =   5.9920555202171E-05
(PID.TID 0000.0001) %MON dynstat_vvel_max             =   0.0000000000000E+00
(PID.TID 0000.0001) %MON dynstat_vvel_min             =   0.0000000000000E+00
(PID.TID 0000.0001) %MON dynstat_vvel_mean            =   0.0000000000000E+00
(PID.TID 0000.0001) %MON dynstat_vvel_sd              =   0.0000000000000E+00
(PID.TID 0000.0001) %MON dynstat_vvel_del2            =   0.0000000000000E+00
(PID.TID 0000.0001) %MON dynstat_wvel_max             =   3.0939981647406E-03
(PID.TID 0000.0001) %MON dynstat_wvel_min             =  -2.5721707241717E-03
(PID.TID 0000.0001) %MON dynstat_wvel_mean            =  -1.4651199884595E-05
(PID.TID 0000.0001) %MON dynstat_wvel_sd              =   7.0297933934594E-04
(PID.TID 0000.0001) %MON dynstat_wvel_del2            =   2.5324825783643E-05
(PID.TID 0000.0001) %MON dynstat_theta_max            =   4.9296633814206E-02
(PID.TID 0000.0001) %MON dynstat_theta_min            =  -4.8408584485000E-02
(PID.TID 0000.0001) %MON dynstat_theta_mean           =   1.5524138396275E-02
(PID.TID 0000.0001) %MON dynstat_theta_sd             =   2.7219254104734E-02
(PID.TID 0000.0001) %MON dynstat_theta_del2           =   3.1741482577205E-05
(PID.TID 0000.0001) %MON dynstat_salt_max             =   3.5000000000000E+01
(PID.TID 0000.0001) %MON dynstat_salt_min             =   3.5000000000000E+01
(PID.TID 0000.0001) %MON dynstat_salt_mean            =   3.5000000000000E+01
(PID.TID 0000.0001) %MON dynstat_salt_sd              =   3.5527136788005E-13
(PID.TID 0000.0001) %MON dynstat_salt_del2            =   2.6218552499998E-01
(PID.TID 0000.0001) %MON trAdv_CFL_u_max              =   4.8539205177237E-02
(PID.TID 0000.0001) %MON trAdv_CFL_v_max              =   0.0000000000000E+00
(PID.TID 0000.0001) %MON trAdv_CFL_w_max              =   1.3575600491606E-01
(PID.TID 0000.0001) %MON advcfl_uvel_max              =   4.8500890772940E-02
(PID.TID 0000.0001) %MON advcfl_vvel_max              =   0.0000000000000E+00
(PID.TID 0000.0001) %MON advcfl_wvel_max              =   1.3922991741333E-01
(PID.TID 0000.0001) %MON advcfl_W_hf_max              =   1.3922991741333E-01
(PID.TID 0000.0001) %MON pe_b_mean                    =   3.9420919323640E-11
(PID.TID 0000.0001) %MON ke_max                       =   2.4082270942759E-04
(PID.TID 0000.0001) %MON ke_mean                      =   1.4358895226987E-05
(PID.TID 0000.0001) %MON ke_vol                       =   6.4007813759742E+09
(PID.TID 0000.0001) %MON vort_r_min                   =   0.0000000000000E+00
(PID.TID 0000.0001) %MON vort_r_max                   =   0.0000000000000E+00
(PID.TID 0000.0001) %MON vort_a_mean                  =   0.0000000000000E+00
(PID.TID 0000.0001) %MON vort_a_sd                    =   0.0000000000000E+00
(PID.TID 0000.0001) %MON vort_p_mean                  =   0.0000000000000E+00
(PID.TID 0000.0001) %MON vort_p_sd                    =   0.0000000000000E+00
(PID.TID 0000.0001) %MON surfExpan_theta_mean         =   1.1626243084992E-12
(PID.TID 0000.0001) %MON surfExpan_salt_mean          =   9.1099134400922E-19
(PID.TID 0000.0001) // =======================================================
(PID.TID 0000.0001) // End MONITOR dynamic field statistics
(PID.TID 0000.0001) // =======================================================
(PID.TID 0000.0001) // =======================================================
(PID.TID 0000.0001) // Begin OBCS MONITOR field statistics
(PID.TID 0000.0001) // =======================================================
(PID.TID 0000.0001) %MON obc_W_uVel_max               =   2.2338804509751E-03
(PID.TID 0000.0001) %MON obc_W_uVel_min               =  -2.2338804509751E-03
(PID.TID 0000.0001) %MON obc_W_uVel_mean              =  -8.5265128291212E-20
(PID.TID 0000.0001) %MON obc_W_uVel_sd                =   1.5844764272776E-03
(PID.TID 0000.0001) %MON obc_W_uVel_Int               =  -8.5265128291212E-14
(PID.TID 0000.0001) // =======================================================
(PID.TID 0000.0001) // End OBCS MONITOR field statistics
(PID.TID 0000.0001) // =======================================================
 cg2d: Sum(rhs),rhsMax =  -1.03480592150706E-13  5.04309460487172E-04
 cg2d: Sum(rhs),rhsMax =  -9.31615895538584E-14  5.36977364716663E-04
 cg2d: Sum(rhs),rhsMax =  -9.04840438686882E-14  5.74585900654066E-04
 cg2d: Sum(rhs),rhsMax =  -8.26777882267926E-14  6.02711859411092E-04
 cg2d: Sum(rhs),rhsMax =  -7.85367864492015E-14  6.37872822609759E-04
 cg2d: Sum(rhs),rhsMax =  -8.58601384434721E-14  6.59975198482513E-04
 cg2d: Sum(rhs),rhsMax =  -7.59754672369217E-14  6.91266798412305E-04
 cg2d: Sum(rhs),rhsMax =  -7.24635195598067E-14  7.06219384427052E-04
 cg2d: Sum(rhs),rhsMax =  -7.17878447659137E-14  7.32600202508851E-04
 cg2d: Sum(rhs),rhsMax =  -6.47168950373977E-14  7.39663487142559E-04
 cg2d: Sum(rhs),rhsMax =  -6.44404234834139E-14  7.60472538715848E-04
 cg2d: Sum(rhs),rhsMax =  -6.30064576900846E-14  7.59252255635889E-04
 cg2d: Sum(rhs),rhsMax =  -5.86468807545204E-14  7.74117636590205E-04
 cg2d: Sum(rhs),rhsMax =  -5.23424619619517E-14  7.64444992178723E-04
 cg2d: Sum(rhs),rhsMax =  -5.25480266938549E-14  7.73147017436555E-04
 cg2d: Sum(rhs),rhsMax =  -5.37690551805081E-14  7.54938053588530E-04
(PID.TID 0000.0001)      cg2d_init_res =   8.79522961729006E-02
(PID.TID 0000.0001)      cg2d_iters(min,last) =      -1      58
(PID.TID 0000.0001)      cg2d_last_res =   2.47315411116352E-19
(PID.TID 0000.0001) // =======================================================
(PID.TID 0000.0001) // Begin MONITOR dynamic field statistics
(PID.TID 0000.0001) // =======================================================
(PID.TID 0000.0001) %MON time_tsnumber                =                    64
(PID.TID 0000.0001) %MON time_secondsf                =   2.8800000000000E+04
(PID.TID 0000.0001) %MON dynstat_eta_max              =   1.1658063093930E-04
(PID.TID 0000.0001) %MON dynstat_eta_min              =  -1.1264686950366E-04
(PID.TID 0000.0001) %MON dynstat_eta_mean             =   1.5347824487990E-16
(PID.TID 0000.0001) %MON dynstat_eta_sd               =   3.2313565841278E-05
(PID.TID 0000.0001) %MON dynstat_eta_del2             =   1.0201489611714E-06
(PID.TID 0000.0001) %MON dynstat_uvel_max             =   2.3212672979859E-02
(PID.TID 0000.0001) %MON dynstat_uvel_min             =  -2.3420577935438E-02
(PID.TID 0000.0001) %MON dynstat_uvel_mean            =   4.6915654095285E-08
(PID.TID 0000.0001) %MON dynstat_uvel_sd              =   5.9786543495787E-03
(PID.TID 0000.0001) %MON dynstat_uvel_del2            =   5.9359991894239E-05
(PID.TID 0000.0001) %MON dynstat_vvel_max             =   0.0000000000000E+00
(PID.TID 0000.0001) %MON dynstat_vvel_min             =   0.0000000000000E+00
(PID.TID 0000.0001) %MON dynstat_vvel_mean            =   0.0000000000000E+00
(PID.TID 0000.0001) %MON dynstat_vvel_sd              =   0.0000000000000E+00
(PID.TID 0000.0001) %MON dynstat_vvel_del2            =   0.0000000000000E+00
(PID.TID 0000.0001) %MON dynstat_wvel_max             =   3.1937989682378E-03
(PID.TID 0000.0001) %MON dynstat_wvel_min             =  -2.4186512196806E-03
(PID.TID 0000.0001) %MON dynstat_wvel_mean            =   1.2103492782065E-04
(PID.TID 0000.0001) %MON dynstat_wvel_sd              =   8.8344834899250E-04
(PID.TID 0000.0001) %MON dynstat_wvel_del2            =   1.7084741824947E-05
(PID.TID 0000.0001) %MON dynstat_theta_max            =   4.9295733984462E-02
(PID.TID 0000.0001) %MON dynstat_theta_min            =  -4.8950457788344E-02
(PID.TID 0000.0001) %MON dynstat_theta_mean           =   1.5313868527975E-02
(PID.TID 0000.0001) %MON dynstat_theta_sd             =   2.7352364841044E-02
(PID.TID 0000.0001) %MON dynstat_theta_del2           =   3.3412642182524E-05
(PID.TID 0000.0001) %MON dynstat_salt_max             =   3.5000000000000E+01
(PID.TID 0000.0001) %MON dynstat_salt_min             =   3.5000000000000E+01
(PID.TID 0000.0001) %MON dynstat_salt_mean            =   3.5000000000000E+01
(PID.TID 0000.0001) %MON dynstat_salt_sd              =   3.4816594052245E-13
(PID.TID 0000.0001) %MON dynstat_salt_del2            =   2.6218552499998E-01
(PID.TID 0000.0001) %MON trAdv_CFL_u_max              =   4.8393186892039E-02
(PID.TID 0000.0001) %MON trAdv_CFL_v_max              =   0.0000000000000E+00
(PID.TID 0000.0001) %MON trAdv_CFL_w_max              =   1.4605496647242E-01
(PID.TID 0000.0001) %MON advcfl_uvel_max              =   4.8337959723893E-02
(PID.TID 0000.0001) %MON advcfl_vvel_max              =   0.0000000000000E+00
(PID.TID 0000.0001) %MON advcfl_wvel_max              =   1.4372095357070E-01
(PID.TID 0000.0001) %MON advcfl_W_hf_max              =   1.4372095357070E-01
(PID.TID 0000.0001) %MON pe_b_mean                    =   5.0593601182029E-11
(PID.TID 0000.0001) %MON ke_max                       =   2.3757825656495E-04
(PID.TID 0000.0001) %MON ke_mean                      =   1.6413085846567E-05
(PID.TID 0000.0001) %MON ke_vol                       =   6.4007813759742E+09
(PID.TID 0000.0001) %MON vort_r_min                   =   0.0000000000000E+00
(PID.TID 0000.0001) %MON vort_r_max                   =   0.0000000000000E+00
(PID.TID 0000.0001) %MON vort_a_mean                  =   0.0000000000000E+00
(PID.TID 0000.0001) %MON vort_a_sd                    =   0.0000000000000E+00
(PID.TID 0000.0001) %MON vort_p_mean                  =   0.0000000000000E+00
(PID.TID 0000.0001) %MON vort_p_sd                    =   0.0000000000000E+00
(PID.TID 0000.0001) %MON surfExpan_theta_mean         =  -4.6455994837691E-13
(PID.TID 0000.0001) %MON surfExpan_salt_mean          =  -9.4589700632968E-19
(PID.TID 0000.0001) // =======================================================
(PID.TID 0000.0001) // End MONITOR dynamic field statistics
(PID.TID 0000.0001) // =======================================================
(PID.TID 0000.0001) // =======================================================
(PID.TID 0000.0001) // Begin OBCS MONITOR field statistics
(PID.TID 0000.0001) // =======================================================
(PID.TID 0000.0001) %MON obc_W_uVel_max               =   1.8454294615694E-02
(PID.TID 0000.0001) %MON obc_W_uVel_min               =  -1.8454294615694E-02
(PID.TID 0000.0001) %MON obc_W_uVel_mean              =  -9.0949470177293E-19
(PID.TID 0000.0001) %MON obc_W_uVel_sd                =   1.3089507447831E-02
(PID.TID 0000.0001) %MON obc_W_uVel_Int               =  -9.0949470177293E-13
(PID.TID 0000.0001) // =======================================================
(PID.TID 0000.0001) // End OBCS MONITOR field statistics
(PID.TID 0000.0001) // =======================================================
 cg2d: Sum(rhs),rhsMax =  -5.67729457195965E-14  7.57251585341631E-04
 cg2d: Sum(rhs),rhsMax =  -5.44260816970343E-14  7.30391628794612E-04
 cg2d: Sum(rhs),rhsMax =  -4.38759271970124E-14  7.26001120152953E-04
 cg2d: Sum(rhs),rhsMax =  -5.03359290013328E-14  6.90283777514569E-04
 cg2d: Sum(rhs),rhsMax =  -5.41212040461314E-14  6.78793998857317E-04
 cg2d: Sum(rhs),rhsMax =  -4.41000317860651E-14  6.33976852996651E-04
 cg2d: Sum(rhs),rhsMax =  -4.74999813787624E-14  6.15026418927222E-04
 cg2d: Sum(rhs),rhsMax =  -5.45976024807215E-14  5.60976097795141E-04
 cg2d: Sum(rhs),rhsMax =  -5.35372527560307E-14  5.34434412464354E-04
 cg2d: Sum(rhs),rhsMax =  -5.56143672780784E-14  4.71343440947747E-04
 cg2d: Sum(rhs),rhsMax =  -5.92337593904868E-14  4.37508819672762E-04
 cg2d: Sum(rhs),rhsMax =  -6.00730402922078E-14  3.66105488473374E-04
 cg2d: Sum(rhs),rhsMax =  -5.10374078069309E-14  3.25871481407870E-04
 cg2d: Sum(rhs),rhsMax =  -2.71739011500904E-14  3.53181945030574E-04
 cg2d: Sum(rhs),rhsMax =  -4.03401270721027E-14  3.67504923336058E-04
 cg2d: Sum(rhs),rhsMax =  -3.44575171347394E-14  4.18264726662388E-04
(PID.TID 0000.0001)      cg2d_init_res =   2.71469286659834E-01
(PID.TID 0000.0001)      cg2d_iters(min,last) =      -1      58
(PID.TID 0000.0001)      cg2d_last_res =   9.86369602143732E-19
(PID.TID 0000.0001) // =======================================================
(PID.TID 0000.0001) // Begin MONITOR dynamic field statistics
(PID.TID 0000.0001) // =======================================================
(PID.TID 0000.0001) %MON time_tsnumber                =                    80
(PID.TID 0000.0001) %MON time_secondsf                =   3.6000000000000E+04
(PID.TID 0000.0001) %MON dynstat_eta_max              =   1.2022784831291E-04
(PID.TID 0000.0001) %MON dynstat_eta_min              =  -1.7842330042284E-04
(PID.TID 0000.0001) %MON dynstat_eta_mean             =   5.2701891662417E-17
(PID.TID 0000.0001) %MON dynstat_eta_sd               =   4.5784340482964E-05
(PID.TID 0000.0001) %MON dynstat_eta_del2             =   1.2769276864408E-06
(PID.TID 0000.0001) %MON dynstat_uvel_max             =   2.3125987471909E-02
(PID.TID 0000.0001) %MON dynstat_uvel_min             =  -2.3296059070171E-02
(PID.TID 0000.0001) %MON dynstat_uvel_mean            =   5.5156670633424E-08
(PID.TID 0000.0001) %MON dynstat_uvel_sd              =   7.2663349992910E-03
(PID.TID 0000.0001) %MON dynstat_uvel_del2            =   6.8559371074301E-05
(PID.TID 0000.0001) %MON dynstat_vvel_max             =   0.0000000000000E+00
(PID.TID 0000.0001) %MON dynstat_vvel_min             =   0.0000000000000E+00
(PID.TID 0000.0001) %MON dynstat_vvel_mean            =   0.0000000000000E+00
(PID.TID 0000.0001) %MON dynstat_vvel_sd              =   0.0000000000000E+00
(PID.TID 0000.0001) %MON dynstat_vvel_del2            =   0.0000000000000E+00
(PID.TID 0000.0001) %MON dynstat_wvel_max             =   3.2307783379108E-03
(PID.TID 0000.0001) %MON dynstat_wvel_min             =  -2.2815307979637E-03
(PID.TID 0000.0001) %MON dynstat_wvel_mean            =   1.4235625767202E-04
(PID.TID 0000.0001) %MON dynstat_wvel_sd              =   8.8957006386865E-04
(PID.TID 0000.0001) %MON dynstat_wvel_del2            =   1.7264723413154E-05
(PID.TID 0000.0001) %MON dynstat_theta_max            =   4.9289826730962E-02
(PID.TID 0000.0001) %MON dynstat_theta_min            =  -4.9324950533888E-02
(PID.TID 0000.0001) %MON dynstat_theta_mean           =   1.4801083760939E-02
(PID.TID 0000.0001) %MON dynstat_theta_sd             =   2.7711635079683E-02
(PID.TID 0000.0001) %MON dynstat_theta_del2           =   3.3822005026091E-05
(PID.TID 0000.0001) %MON dynstat_salt_max             =   3.5000000000000E+01
(PID.TID 0000.0001) %MON dynstat_salt_min             =   3.5000000000000E+01
(PID.TID 0000.0001) %MON dynstat_salt_mean            =   3.5000000000000E+01
(PID.TID 0000.0001) %MON dynstat_salt_sd              =   3.4816594052245E-13
(PID.TID 0000.0001) %MON dynstat_salt_del2            =   2.6218552499998E-01
(PID.TID 0000.0001) %MON trAdv_CFL_u_max              =   4.8095569319330E-02
(PID.TID 0000.0001) %MON trAdv_CFL_v_max              =   0.0000000000000E+00
(PID.TID 0000.0001) %MON trAdv_CFL_w_max              =   1.4773323240346E-01
(PID.TID 0000.0001) %MON advcfl_uvel_max              =   4.8080964020767E-02
(PID.TID 0000.0001) %MON advcfl_vvel_max              =   0.0000000000000E+00
(PID.TID 0000.0001) %MON advcfl_wvel_max              =   1.4538502520599E-01
(PID.TID 0000.0001) %MON advcfl_W_hf_max              =   1.4538502520599E-01
(PID.TID 0000.0001) %MON pe_b_mean                    =   1.0156866566493E-10
(PID.TID 0000.0001) %MON ke_max                       =   2.5345693073208E-04
(PID.TID 0000.0001) %MON ke_mean                      =   2.4381412033726E-05
(PID.TID 0000.0001) %MON ke_vol                       =   6.4007813759742E+09
(PID.TID 0000.0001) %MON vort_r_min                   =   0.0000000000000E+00
(PID.TID 0000.0001) %MON vort_r_max                   =   0.0000000000000E+00
(PID.TID 0000.0001) %MON vort_a_mean                  =   0.0000000000000E+00
(PID.TID 0000.0001) %MON vort_a_sd                    =   0.0000000000000E+00
(PID.TID 0000.0001) %MON vort_p_mean                  =   0.0000000000000E+00
(PID.TID 0000.0001) %MON vort_p_sd                    =   0.0000000000000E+00
(PID.TID 0000.0001) %MON surfExpan_theta_mean         =   9.4745419745382E-13
(PID.TID 0000.0001) %MON surfExpan_salt_mean          =  -5.1019385184774E-19
(PID.TID 0000.0001) // =======================================================
(PID.TID 0000.0001) // End MONITOR dynamic field statistics
(PID.TID 0000.0001) // =======================================================
(PID.TID 0000.0001) // =======================================================
(PID.TID 0000.0001) // Begin OBCS MONITOR field statistics
(PID.TID 0000.0001) // =======================================================
(PID.TID 0000.0001) %MON obc_W_uVel_max               =   2.1705175247924E-02
(PID.TID 0000.0001) %MON obc_W_uVel_min               =  -2.1705175247924E-02
(PID.TID 0000.0001) %MON obc_W_uVel_mean              =  -6.8212102632970E-19
(PID.TID 0000.0001) %MON obc_W_uVel_sd                =   1.5395335285401E-02
(PID.TID 0000.0001) %MON obc_W_uVel_Int               =  -6.8212102632970E-13
(PID.TID 0000.0001) // =======================================================
(PID.TID 0000.0001) // End OBCS MONITOR field statistics
(PID.TID 0000.0001) // =======================================================
 cg2d: Sum(rhs),rhsMax =  -2.92402820706306E-14  4.27896379330700E-04
 cg2d: Sum(rhs),rhsMax =  -2.97635451441264E-14  4.75258334746797E-04
 cg2d: Sum(rhs),rhsMax =  -2.76614668670572E-14  4.77082124041137E-04
 cg2d: Sum(rhs),rhsMax =  -2.05366458430958E-14  5.17809981021530E-04
 cg2d: Sum(rhs),rhsMax =  -1.94698857730602E-14  5.08974988389277E-04
 cg2d: Sum(rhs),rhsMax =  -1.16482344603153E-14  5.40425677063131E-04
 cg2d: Sum(rhs),rhsMax =  -1.08540563689696E-14  5.18988172383363E-04
 cg2d: Sum(rhs),rhsMax =  -1.15704429544394E-14  5.39654902762863E-04
 cg2d: Sum(rhs),rhsMax =  -1.99807618367354E-14  5.05007380319445E-04
 cg2d: Sum(rhs),rhsMax =  -9.89258588240949E-15  5.14820771423783E-04
 cg2d: Sum(rhs),rhsMax =  -9.13722222883884E-15  5.21452798777190E-04
 cg2d: Sum(rhs),rhsMax =  -1.80940332161761E-14  5.81982732165378E-04
 cg2d: Sum(rhs),rhsMax =  -1.01771889526869E-14  5.98822285103848E-04
 cg2d: Sum(rhs),rhsMax =  -1.16249241136068E-14  6.50123273809889E-04
 cg2d: Sum(rhs),rhsMax =  -1.26689023854931E-14  6.57803339161873E-04
 cg2d: Sum(rhs),rhsMax =  -1.00785265549908E-14  6.99789105931992E-04
(PID.TID 0000.0001)      cg2d_init_res =   1.02802541691008E-01
(PID.TID 0000.0001)      cg2d_iters(min,last) =      -1      58
(PID.TID 0000.0001)      cg2d_last_res =   3.69241124632008E-19
(PID.TID 0000.0001) // =======================================================
(PID.TID 0000.0001) // Begin MONITOR dynamic field statistics
(PID.TID 0000.0001) // =======================================================
(PID.TID 0000.0001) %MON time_tsnumber                =                    96
(PID.TID 0000.0001) %MON time_secondsf                =   4.3200000000000E+04
(PID.TID 0000.0001) %MON dynstat_eta_max              =   1.1840443006937E-04
(PID.TID 0000.0001) %MON dynstat_eta_min              =  -1.8054308520778E-04
(PID.TID 0000.0001) %MON dynstat_eta_mean             =   3.8852684593334E-17
(PID.TID 0000.0001) %MON dynstat_eta_sd               =   5.0950999799124E-05
(PID.TID 0000.0001) %MON dynstat_eta_del2             =   1.6051609778476E-06
(PID.TID 0000.0001) %MON dynstat_uvel_max             =   2.2755795688880E-02
(PID.TID 0000.0001) %MON dynstat_uvel_min             =  -2.2532784843704E-02
(PID.TID 0000.0001) %MON dynstat_uvel_mean            =   2.3634134577950E-08
(PID.TID 0000.0001) %MON dynstat_uvel_sd              =   7.4781047331993E-03
(PID.TID 0000.0001) %MON dynstat_uvel_del2            =   7.4177060591434E-05
(PID.TID 0000.0001) %MON dynstat_vvel_max             =   0.0000000000000E+00
(PID.TID 0000.0001) %MON dynstat_vvel_min             =   0.0000000000000E+00
(PID.TID 0000.0001) %MON dynstat_vvel_mean            =   0.0000000000000E+00
(PID.TID 0000.0001) %MON dynstat_vvel_sd              =   0.0000000000000E+00
(PID.TID 0000.0001) %MON dynstat_vvel_del2            =   0.0000000000000E+00
(PID.TID 0000.0001) %MON dynstat_wvel_max             =   3.1420043375091E-03
(PID.TID 0000.0001) %MON dynstat_wvel_min             =  -2.9361188308767E-03
(PID.TID 0000.0001) %MON dynstat_wvel_mean            =   2.9166459826262E-05
(PID.TID 0000.0001) %MON dynstat_wvel_sd              =   1.0097738925672E-03
(PID.TID 0000.0001) %MON dynstat_wvel_del2            =   2.5060963436557E-05
(PID.TID 0000.0001) %MON dynstat_theta_max            =   4.9283611437124E-02
(PID.TID 0000.0001) %MON dynstat_theta_min            =  -4.9280792469660E-02
(PID.TID 0000.0001) %MON dynstat_theta_mean           =   1.4468662375324E-02
(PID.TID 0000.0001) %MON dynstat_theta_sd             =   2.7926879419816E-02
(PID.TID 0000.0001) %MON dynstat_theta_del2           =   4.0334734647495E-05
(PID.TID 0000.0001) %MON dynstat_salt_max             =   3.5000000000000E+01
(PID.TID 0000.0001) %MON dynstat_salt_min             =   3.5000000000000E+01
(PID.TID 0000.0001) %MON dynstat_salt_mean            =   3.5000000000000E+01
(PID.TID 0000.0001) %MON dynstat_salt_sd              =   3.5527136788005E-13
(PID.TID 0000.0001) %MON dynstat_salt_del2            =   2.6218552499998E-01
(PID.TID 0000.0001) %MON trAdv_CFL_u_max              =   4.7094740620102E-02
(PID.TID 0000.0001) %MON trAdv_CFL_v_max              =   0.0000000000000E+00
(PID.TID 0000.0001) %MON trAdv_CFL_w_max              =   1.4325682906383E-01
(PID.TID 0000.0001) %MON advcfl_uvel_max              =   4.6965909147350E-02
(PID.TID 0000.0001) %MON advcfl_vvel_max              =   0.0000000000000E+00
(PID.TID 0000.0001) %MON advcfl_wvel_max              =   1.4139019518791E-01
(PID.TID 0000.0001) %MON advcfl_W_hf_max              =   1.4139019518791E-01
(PID.TID 0000.0001) %MON pe_b_mean                    =   1.2578569183521E-10
(PID.TID 0000.0001) %MON ke_max                       =   2.3992209990617E-04
(PID.TID 0000.0001) %MON ke_mean                      =   2.7876297258143E-05
(PID.TID 0000.0001) %MON ke_vol                       =   6.4007813759742E+09
(PID.TID 0000.0001) %MON vort_r_min                   =   0.0000000000000E+00
(PID.TID 0000.0001) %MON vort_r_max                   =   0.0000000000000E+00
(PID.TID 0000.0001) %MON vort_a_mean                  =   0.0000000000000E+00
(PID.TID 0000.0001) %MON vort_a_sd                    =   0.0000000000000E+00
(PID.TID 0000.0001) %MON vort_p_mean                  =   0.0000000000000E+00
(PID.TID 0000.0001) %MON vort_p_sd                    =   0.0000000000000E+00
(PID.TID 0000.0001) %MON surfExpan_theta_mean         =   3.6894273801468E-13
(PID.TID 0000.0001) %MON surfExpan_salt_mean          =  -7.2770062165200E-19
(PID.TID 0000.0001) // =======================================================
(PID.TID 0000.0001) // End MONITOR dynamic field statistics
(PID.TID 0000.0001) // =======================================================
(PID.TID 0000.0001) // =======================================================
(PID.TID 0000.0001) // Begin OBCS MONITOR field statistics
(PID.TID 0000.0001) // =======================================================
(PID.TID 0000.0001) %MON obc_W_uVel_max               =   4.4470340274685E-03
(PID.TID 0000.0001) %MON obc_W_uVel_min               =  -4.4470340274685E-03
(PID.TID 0000.0001) %MON obc_W_uVel_mean              =  -5.6843418860808E-19
(PID.TID 0000.0001) %MON obc_W_uVel_sd                =   3.1542514214444E-03
(PID.TID 0000.0001) %MON obc_W_uVel_Int               =  -5.6843418860808E-13
(PID.TID 0000.0001) // =======================================================
(PID.TID 0000.0001) // End OBCS MONITOR field statistics
(PID.TID 0000.0001) // =======================================================
 cg2d: Sum(rhs),rhsMax =  -1.90830424379174E-14  6.98576877186404E-04
 cg2d: Sum(rhs),rhsMax =  -2.32671954619734E-14  7.31559689972106E-04
 cg2d: Sum(rhs),rhsMax =  -2.86901578883114E-14  7.22039178799790E-04
 cg2d: Sum(rhs),rhsMax =  -2.94347879403745E-14  7.46588326572214E-04
 cg2d: Sum(rhs),rhsMax =  -2.53803054961477E-14  7.29530978080587E-04
 cg2d: Sum(rhs),rhsMax =  -2.53135186423226E-14  7.46364792236741E-04
 cg2d: Sum(rhs),rhsMax =  -2.71067890356136E-14  7.22636936110201E-04
 cg2d: Sum(rhs),rhsMax =  -3.16446088083344E-14  7.32534614678165E-04
 cg2d: Sum(rhs),rhsMax =  -3.64397097565861E-14  7.03057494674450E-04
 cg2d: Sum(rhs),rhsMax =  -3.91282058836984E-14  7.06820042118166E-04
 cg2d: Sum(rhs),rhsMax =  -4.54061701432584E-14  6.72539566234332E-04
 cg2d: Sum(rhs),rhsMax =  -4.67004906967716E-14  6.70990268488353E-04
 cg2d: Sum(rhs),rhsMax =  -4.73079691740153E-14  6.32873100506363E-04
 cg2d: Sum(rhs),rhsMax =  -4.80954252118915E-14  6.26861123952726E-04
 cg2d: Sum(rhs),rhsMax =  -5.27071875727758E-14  5.85886058075650E-04
 cg2d: Sum(rhs),rhsMax =  -4.82168558552099E-14  5.76295320540021E-04
(PID.TID 0000.0001)      cg2d_init_res =   1.53409887681720E-01
(PID.TID 0000.0001)      cg2d_iters(min,last) =      -1      58
(PID.TID 0000.0001)      cg2d_last_res =   2.93823907456808E-19
(PID.TID 0000.0001) // =======================================================
(PID.TID 0000.0001) // Begin MONITOR dynamic field statistics
(PID.TID 0000.0001) // =======================================================
(PID.TID 0000.0001) %MON time_tsnumber                =                   112
(PID.TID 0000.0001) %MON time_secondsf                =   5.0400000000000E+04
(PID.TID 0000.0001) %MON dynstat_eta_max              =   1.1066001381558E-04
(PID.TID 0000.0001) %MON dynstat_eta_min              =  -1.8753100985157E-04
(PID.TID 0000.0001) %MON dynstat_eta_mean             =   1.0085573504456E-16
(PID.TID 0000.0001) %MON dynstat_eta_sd               =   5.2670738144151E-05
(PID.TID 0000.0001) %MON dynstat_eta_del2             =   1.6286612424543E-06
(PID.TID 0000.0001) %MON dynstat_uvel_max             =   2.2441932939969E-02
(PID.TID 0000.0001) %MON dynstat_uvel_min             =  -2.9288378277038E-02
(PID.TID 0000.0001) %MON dynstat_uvel_mean            =  -1.7798288926718E-08
(PID.TID 0000.0001) %MON dynstat_uvel_sd              =   7.7795377128753E-03
(PID.TID 0000.0001) %MON dynstat_uvel_del2            =   8.2663905957351E-05
(PID.TID 0000.0001) %MON dynstat_vvel_max             =   0.0000000000000E+00
(PID.TID 0000.0001) %MON dynstat_vvel_min             =   0.0000000000000E+00
(PID.TID 0000.0001) %MON dynstat_vvel_mean            =   0.0000000000000E+00
(PID.TID 0000.0001) %MON dynstat_vvel_sd              =   0.0000000000000E+00
(PID.TID 0000.0001) %MON dynstat_vvel_del2            =   0.0000000000000E+00
(PID.TID 0000.0001) %MON dynstat_wvel_max             =   3.0607038225665E-03
(PID.TID 0000.0001) %MON dynstat_wvel_min             =  -3.2225674983724E-03
(PID.TID 0000.0001) %MON dynstat_wvel_mean            =  -1.1158245952438E-04
(PID.TID 0000.0001) %MON dynstat_wvel_sd              =   1.1471933341232E-03
(PID.TID 0000.0001) %MON dynstat_wvel_del2            =   2.0687836616313E-05
(PID.TID 0000.0001) %MON dynstat_theta_max            =   4.9285348142128E-02
(PID.TID 0000.0001) %MON dynstat_theta_min            =  -4.9265367417600E-02
(PID.TID 0000.0001) %MON dynstat_theta_mean           =   1.4632383067022E-02
(PID.TID 0000.0001) %MON dynstat_theta_sd             =   2.7849685759511E-02
(PID.TID 0000.0001) %MON dynstat_theta_del2           =   4.5778977811097E-05
(PID.TID 0000.0001) %MON dynstat_salt_max             =   3.5000000000000E+01
(PID.TID 0000.0001) %MON dynstat_salt_min             =   3.5000000000000E+01
(PID.TID 0000.0001) %MON dynstat_salt_mean            =   3.5000000000000E+01
(PID.TID 0000.0001) %MON dynstat_salt_sd              =   3.4816594052245E-13
(PID.TID 0000.0001) %MON dynstat_salt_del2            =   2.6218552499998E-01
(PID.TID 0000.0001) %MON trAdv_CFL_u_max              =   6.0107132135333E-02
(PID.TID 0000.0001) %MON trAdv_CFL_v_max              =   0.0000000000000E+00
(PID.TID 0000.0001) %MON trAdv_CFL_w_max              =   1.4560058130814E-01
(PID.TID 0000.0001) %MON advcfl_uvel_max              =   6.0448570203360E-02
(PID.TID 0000.0001) %MON advcfl_vvel_max              =   0.0000000000000E+00
(PID.TID 0000.0001) %MON advcfl_wvel_max              =   1.4501553742676E-01
(PID.TID 0000.0001) %MON advcfl_W_hf_max              =   1.4501553742676E-01
(PID.TID 0000.0001) %MON pe_b_mean                    =   1.3442022910965E-10
(PID.TID 0000.0001) %MON ke_max                       =   3.1969163050502E-04
(PID.TID 0000.0001) %MON ke_mean                      =   2.9020532623501E-05
(PID.TID 0000.0001) %MON ke_vol                       =   6.4007813759742E+09
(PID.TID 0000.0001) %MON vort_r_min                   =   0.0000000000000E+00
(PID.TID 0000.0001) %MON vort_r_max                   =   0.0000000000000E+00
(PID.TID 0000.0001) %MON vort_a_mean                  =   0.0000000000000E+00
(PID.TID 0000.0001) %MON vort_a_sd                    =   0.0000000000000E+00
(PID.TID 0000.0001) %MON vort_p_mean                  =   0.0000000000000E+00
(PID.TID 0000.0001) %MON vort_p_sd                    =   0.0000000000000E+00
(PID.TID 0000.0001) %MON surfExpan_theta_mean         =  -6.1907822421489E-13
(PID.TID 0000.0001) %MON surfExpan_salt_mean          =  -4.4197772800252E-19
(PID.TID 0000.0001) // =======================================================
(PID.TID 0000.0001) // End MONITOR dynamic field statistics
(PID.TID 0000.0001) // =======================================================
(PID.TID 0000.0001) // =======================================================
(PID.TID 0000.0001) // Begin OBCS MONITOR field statistics
(PID.TID 0000.0001) // =======================================================
(PID.TID 0000.0001) %MON obc_W_uVel_max               =   1.7013069029610E-02
(PID.TID 0000.0001) %MON obc_W_uVel_min               =  -1.7013069029610E-02
(PID.TID 0000.0001) %MON obc_W_uVel_mean              =  -2.2737367544323E-19
(PID.TID 0000.0001) %MON obc_W_uVel_sd                =   1.2067255802026E-02
(PID.TID 0000.0001) %MON obc_W_uVel_Int               =  -2.2737367544323E-13
(PID.TID 0000.0001) // =======================================================
(PID.TID 0000.0001) // End OBCS MONITOR field statistics
(PID.TID 0000.0001) // =======================================================
 cg2d: Sum(rhs),rhsMax =  -5.05595999095165E-14  5.33436750283666E-04
 cg2d: Sum(rhs),rhsMax =  -6.96508822839448E-14  5.21154871569214E-04
 cg2d: Sum(rhs),rhsMax =  -6.98215357058940E-14  4.77360044516431E-04
 cg2d: Sum(rhs),rhsMax =  -8.50391805584660E-14  4.63232214947424E-04
 cg2d: Sum(rhs),rhsMax =  -8.27844737205652E-14  4.36125582174415E-04
 cg2d: Sum(rhs),rhsMax =  -8.75302434699687E-14  4.27391063160134E-04
 cg2d: Sum(rhs),rhsMax =  -8.45794788373322E-14  4.29551760049790E-04
 cg2d: Sum(rhs),rhsMax =  -7.14740766571964E-14  4.39384578935657E-04
 cg2d: Sum(rhs),rhsMax =  -7.52694347821992E-14  4.37754747059362E-04
 cg2d: Sum(rhs),rhsMax =  -7.16935191769075E-14  4.42878570519820E-04
 cg2d: Sum(rhs),rhsMax =  -8.27411056336658E-14  4.34406718492233E-04
 cg2d: Sum(rhs),rhsMax =  -8.11117666088546E-14  4.31751594796861E-04
 cg2d: Sum(rhs),rhsMax =  -1.12534981333567E-13  4.13733085747665E-04
 cg2d: Sum(rhs),rhsMax =  -1.09587035626579E-13  4.12061256687541E-04
 cg2d: Sum(rhs),rhsMax =  -1.21467506192241E-13  4.11009112097365E-04
 cg2d: Sum(rhs),rhsMax =  -1.12279109620861E-13  4.15462973396310E-04
(PID.TID 0000.0001)      cg2d_init_res =   1.95771669705145E-01
(PID.TID 0000.0001)      cg2d_iters(min,last) =      -1      58
(PID.TID 0000.0001)      cg2d_last_res =   2.78434734356706E-19
(PID.TID 0000.0001) // =======================================================
(PID.TID 0000.0001) // Begin MONITOR dynamic field statistics
(PID.TID 0000.0001) // =======================================================
(PID.TID 0000.0001) %MON time_tsnumber                =                   128
(PID.TID 0000.0001) %MON time_secondsf                =   5.7600000000000E+04
(PID.TID 0000.0001) %MON dynstat_eta_max              =   1.0319464132877E-04
(PID.TID 0000.0001) %MON dynstat_eta_min              =  -1.8671420553187E-04
(PID.TID 0000.0001) %MON dynstat_eta_mean             =   1.8582072065204E-16
(PID.TID 0000.0001) %MON dynstat_eta_sd               =   5.4590297421630E-05
(PID.TID 0000.0001) %MON dynstat_eta_del2             =   1.7223629225441E-06
(PID.TID 0000.0001) %MON dynstat_uvel_max             =   2.3282380808224E-02
(PID.TID 0000.0001) %MON dynstat_uvel_min             =  -2.7741265168850E-02
(PID.TID 0000.0001) %MON dynstat_uvel_mean            =  -4.3750415894070E-08
(PID.TID 0000.0001) %MON dynstat_uvel_sd              =   8.8922265220637E-03
(PID.TID 0000.0001) %MON dynstat_uvel_del2            =   9.6931053331713E-05
(PID.TID 0000.0001) %MON dynstat_vvel_max             =   0.0000000000000E+00
(PID.TID 0000.0001) %MON dynstat_vvel_min             =   0.0000000000000E+00
(PID.TID 0000.0001) %MON dynstat_vvel_mean            =   0.0000000000000E+00
(PID.TID 0000.0001) %MON dynstat_vvel_sd              =   0.0000000000000E+00
(PID.TID 0000.0001) %MON dynstat_vvel_del2            =   0.0000000000000E+00
(PID.TID 0000.0001) %MON dynstat_wvel_max             =   3.3913086594341E-03
(PID.TID 0000.0001) %MON dynstat_wvel_min             =  -3.2140117992260E-03
(PID.TID 0000.0001) %MON dynstat_wvel_mean            =  -1.4689813198240E-04
(PID.TID 0000.0001) %MON dynstat_wvel_sd              =   1.1686098005499E-03
(PID.TID 0000.0001) %MON dynstat_wvel_del2            =   2.0595607452907E-05
(PID.TID 0000.0001) %MON dynstat_theta_max            =   4.9311687043562E-02
(PID.TID 0000.0001) %MON dynstat_theta_min            =  -4.9230225644826E-02
(PID.TID 0000.0001) %MON dynstat_theta_mean           =   1.5135807346956E-02
(PID.TID 0000.0001) %MON dynstat_theta_sd             =   2.7652781060776E-02
(PID.TID 0000.0001) %MON dynstat_theta_del2           =   5.0782270454632E-05
(PID.TID 0000.0001) %MON dynstat_salt_max             =   3.5000000000000E+01
(PID.TID 0000.0001) %MON dynstat_salt_min             =   3.5000000000000E+01
(PID.TID 0000.0001) %MON dynstat_salt_mean            =   3.5000000000000E+01
(PID.TID 0000.0001) %MON dynstat_salt_sd              =   3.4816594052245E-13
(PID.TID 0000.0001) %MON dynstat_salt_del2            =   2.6218552499998E-01
(PID.TID 0000.0001) %MON trAdv_CFL_u_max              =   5.8788938489225E-02
(PID.TID 0000.0001) %MON trAdv_CFL_v_max              =   0.0000000000000E+00
(PID.TID 0000.0001) %MON trAdv_CFL_w_max              =   1.5293855816528E-01
(PID.TID 0000.0001) %MON advcfl_uvel_max              =   5.7255468337213E-02
(PID.TID 0000.0001) %MON advcfl_vvel_max              =   0.0000000000000E+00
(PID.TID 0000.0001) %MON advcfl_wvel_max              =   1.5260888967453E-01
(PID.TID 0000.0001) %MON advcfl_W_hf_max              =   1.5260888967453E-01
(PID.TID 0000.0001) %MON pe_b_mean                    =   1.4439652531872E-10
(PID.TID 0000.0001) %MON ke_max                       =   3.2747689300007E-04
(PID.TID 0000.0001) %MON ke_mean                      =   3.7386595497788E-05
(PID.TID 0000.0001) %MON ke_vol                       =   6.4007813759742E+09
(PID.TID 0000.0001) %MON vort_r_min                   =   0.0000000000000E+00
(PID.TID 0000.0001) %MON vort_r_max                   =   0.0000000000000E+00
(PID.TID 0000.0001) %MON vort_a_mean                  =   0.0000000000000E+00
(PID.TID 0000.0001) %MON vort_a_sd                    =   0.0000000000000E+00
(PID.TID 0000.0001) %MON vort_p_mean                  =   0.0000000000000E+00
(PID.TID 0000.0001) %MON vort_p_sd                    =   0.0000000000000E+00
(PID.TID 0000.0001) %MON surfExpan_theta_mean         =   1.0019531974300E-12
(PID.TID 0000.0001) %MON surfExpan_salt_mean          =   4.7426715566630E-20
(PID.TID 0000.0001) // =======================================================
(PID.TID 0000.0001) // End MONITOR dynamic field statistics
(PID.TID 0000.0001) // =======================================================
(PID.TID 0000.0001) // =======================================================
(PID.TID 0000.0001) // Begin OBCS MONITOR field statistics
(PID.TID 0000.0001) // =======================================================
(PID.TID 0000.0001) %MON obc_W_uVel_max               =   2.2397678545447E-02
(PID.TID 0000.0001) %MON obc_W_uVel_min               =  -2.2397678545447E-02
(PID.TID 0000.0001) %MON obc_W_uVel_mean              =   1.3642420526594E-18
(PID.TID 0000.0001) %MON obc_W_uVel_sd                =   1.5886523231586E-02
(PID.TID 0000.0001) %MON obc_W_uVel_Int               =   1.3642420526594E-12
(PID.TID 0000.0001) // =======================================================
(PID.TID 0000.0001) // End OBCS MONITOR field statistics
(PID.TID 0000.0001) // =======================================================
 cg2d: Sum(rhs),rhsMax =  -1.31434359923466E-13  4.12744080809994E-04
 cg2d: Sum(rhs),rhsMax =  -1.15301214756447E-13  4.13910070886206E-04
 cg2d: Sum(rhs),rhsMax =  -1.33337785257481E-13  4.15011680244590E-04
 cg2d: Sum(rhs),rhsMax =  -1.28241384525496E-13  4.14666158407971E-04
 cg2d: Sum(rhs),rhsMax =  -1.44167230237136E-13  4.15790143497188E-04
 cg2d: Sum(rhs),rhsMax =  -1.52709496523823E-13  4.13687811703085E-04
 cg2d: Sum(rhs),rhsMax =  -1.58039380193653E-13  4.13927902111023E-04
 cg2d: Sum(rhs),rhsMax =  -1.46582209261184E-13  4.18276655450304E-04
 cg2d: Sum(rhs),rhsMax =  -1.39788788183770E-13  4.25533864887184E-04
 cg2d: Sum(rhs),rhsMax =  -1.41082383677080E-13  4.24220205142098E-04
 cg2d: Sum(rhs),rhsMax =  -1.53882982745213E-13  4.26828197478253E-04
 cg2d: Sum(rhs),rhsMax =  -1.52107140901844E-13  4.21625728540596E-04
 cg2d: Sum(rhs),rhsMax =  -1.45053240252491E-13  4.21333909023427E-04
 cg2d: Sum(rhs),rhsMax =  -1.51935105122125E-13  4.13801802579983E-04
 cg2d: Sum(rhs),rhsMax =  -1.61501237730399E-13  4.11711337453822E-04
 cg2d: Sum(rhs),rhsMax =  -1.56297500983338E-13  4.05830755202123E-04
(PID.TID 0000.0001)      cg2d_init_res =   2.20798647584480E-01
(PID.TID 0000.0001)      cg2d_iters(min,last) =      -1      58
(PID.TID 0000.0001)      cg2d_last_res =   6.68782067522889E-19
(PID.TID 0000.0001) // =======================================================
(PID.TID 0000.0001) // Begin MONITOR dynamic field statistics
(PID.TID 0000.0001) // =======================================================
(PID.TID 0000.0001) %MON time_tsnumber                =                   144
(PID.TID 0000.0001) %MON time_secondsf                =   6.4800000000000E+04
(PID.TID 0000.0001) %MON dynstat_eta_max              =   1.0633379144632E-04
(PID.TID 0000.0001) %MON dynstat_eta_min              =  -1.8196901484064E-04
(PID.TID 0000.0001) %MON dynstat_eta_mean             =   2.2923772545170E-16
(PID.TID 0000.0001) %MON dynstat_eta_sd               =   5.4897901220049E-05
(PID.TID 0000.0001) %MON dynstat_eta_del2             =   1.8687958396529E-06
(PID.TID 0000.0001) %MON dynstat_uvel_max             =   3.7474721137757E-02
(PID.TID 0000.0001) %MON dynstat_uvel_min             =  -3.1676520632846E-02
(PID.TID 0000.0001) %MON dynstat_uvel_mean            =  -1.9918951917757E-08
(PID.TID 0000.0001) %MON dynstat_uvel_sd              =   9.1374895141301E-03
(PID.TID 0000.0001) %MON dynstat_uvel_del2            =   1.1670623930645E-04
(PID.TID 0000.0001) %MON dynstat_vvel_max             =   0.0000000000000E+00
(PID.TID 0000.0001) %MON dynstat_vvel_min             =   0.0000000000000E+00
(PID.TID 0000.0001) %MON dynstat_vvel_mean            =   0.0000000000000E+00
(PID.TID 0000.0001) %MON dynstat_vvel_sd              =   0.0000000000000E+00
(PID.TID 0000.0001) %MON dynstat_vvel_del2            =   0.0000000000000E+00
(PID.TID 0000.0001) %MON dynstat_wvel_max             =   4.0930200347610E-03
(PID.TID 0000.0001) %MON dynstat_wvel_min             =  -3.2805881081301E-03
(PID.TID 0000.0001) %MON dynstat_wvel_mean            =  -4.3411101189559E-05
(PID.TID 0000.0001) %MON dynstat_wvel_sd              =   1.2532819182342E-03
(PID.TID 0000.0001) %MON dynstat_wvel_del2            =   2.9427315016348E-05
(PID.TID 0000.0001) %MON dynstat_theta_max            =   4.9343626106224E-02
(PID.TID 0000.0001) %MON dynstat_theta_min            =  -4.9230200267591E-02
(PID.TID 0000.0001) %MON dynstat_theta_mean           =   1.5504924512292E-02
(PID.TID 0000.0001) %MON dynstat_theta_sd             =   2.7494359889955E-02
(PID.TID 0000.0001) %MON dynstat_theta_del2           =   6.0643859712555E-05
(PID.TID 0000.0001) %MON dynstat_salt_max             =   3.5000000000000E+01
(PID.TID 0000.0001) %MON dynstat_salt_min             =   3.5000000000000E+01
(PID.TID 0000.0001) %MON dynstat_salt_mean            =   3.5000000000000E+01
(PID.TID 0000.0001) %MON dynstat_salt_sd              =   3.5527136788005E-13
(PID.TID 0000.0001) %MON dynstat_salt_del2            =   2.6218552499998E-01
(PID.TID 0000.0001) %MON trAdv_CFL_u_max              =   6.6252057299350E-02
(PID.TID 0000.0001) %MON trAdv_CFL_v_max              =   0.0000000000000E+00
(PID.TID 0000.0001) %MON trAdv_CFL_w_max              =   1.8195960236372E-01
(PID.TID 0000.0001) %MON advcfl_uvel_max              =   7.7344443250484E-02
(PID.TID 0000.0001) %MON advcfl_vvel_max              =   0.0000000000000E+00
(PID.TID 0000.0001) %MON advcfl_wvel_max              =   1.8418590156424E-01
(PID.TID 0000.0001) %MON advcfl_W_hf_max              =   1.8418590156424E-01
(PID.TID 0000.0001) %MON pe_b_mean                    =   1.4602839256785E-10
(PID.TID 0000.0001) %MON ke_max                       =   3.8358925153991E-04
(PID.TID 0000.0001) %MON ke_mean                      =   4.1559158058128E-05
(PID.TID 0000.0001) %MON ke_vol                       =   6.4007813759742E+09
(PID.TID 0000.0001) %MON vort_r_min                   =   0.0000000000000E+00
(PID.TID 0000.0001) %MON vort_r_max                   =   0.0000000000000E+00
(PID.TID 0000.0001) %MON vort_a_mean                  =   0.0000000000000E+00
(PID.TID 0000.0001) %MON vort_a_sd                    =   0.0000000000000E+00
(PID.TID 0000.0001) %MON vort_p_mean                  =   0.0000000000000E+00
(PID.TID 0000.0001) %MON vort_p_sd                    =   0.0000000000000E+00
(PID.TID 0000.0001) %MON surfExpan_theta_mean         =  -7.8522517018663E-13
(PID.TID 0000.0001) %MON surfExpan_salt_mean          =   9.9002533478049E-20
(PID.TID 0000.0001) // =======================================================
(PID.TID 0000.0001) // End MONITOR dynamic field statistics
(PID.TID 0000.0001) // =======================================================
(PID.TID 0000.0001) // =======================================================
(PID.TID 0000.0001) // Begin OBCS MONITOR field statistics
(PID.TID 0000.0001) // =======================================================
(PID.TID 0000.0001) %MON obc_W_uVel_max               =   6.6189261675845E-03
(PID.TID 0000.0001) %MON obc_W_uVel_min               =  -6.6189261675845E-03
(PID.TID 0000.0001) %MON obc_W_uVel_mean              =   6.8212102632970E-19
(PID.TID 0000.0001) %MON obc_W_uVel_sd                =   4.6947599554177E-03
(PID.TID 0000.0001) %MON obc_W_uVel_Int               =   6.8212102632970E-13
(PID.TID 0000.0001) // =======================================================
(PID.TID 0000.0001) // End OBCS MONITOR field statistics
(PID.TID 0000.0001) // =======================================================
 cg2d: Sum(rhs),rhsMax =  -1.58224995605583E-13  4.10103930049306E-04
 cg2d: Sum(rhs),rhsMax =  -1.48152540582758E-13  4.39995971195500E-04
 cg2d: Sum(rhs),rhsMax =  -1.45712109912710E-13  4.75697782548375E-04
 cg2d: Sum(rhs),rhsMax =  -1.30155868721671E-13  5.07296561076058E-04
 cg2d: Sum(rhs),rhsMax =  -1.29183773053820E-13  5.40888636963599E-04
 cg2d: Sum(rhs),rhsMax =  -1.21718255049683E-13  5.71607414849732E-04
 cg2d: Sum(rhs),rhsMax =  -1.12724011982340E-13  6.02176525510220E-04
 cg2d: Sum(rhs),rhsMax =  -1.20940638146522E-13  6.31048509951727E-04
 cg2d: Sum(rhs),rhsMax =  -1.04517306268037E-13  6.57599726882196E-04
 cg2d: Sum(rhs),rhsMax =  -1.02751655925090E-13  6.83597040090485E-04
 cg2d: Sum(rhs),rhsMax =  -1.04336271610286E-13  7.05075243692624E-04
 cg2d: Sum(rhs),rhsMax =  -8.85000081031484E-14  7.27121482780848E-04
 cg2d: Sum(rhs),rhsMax =  -8.87081749202656E-14  7.42447958082457E-04
 cg2d: Sum(rhs),rhsMax =  -8.83093511511168E-14  7.59442693839450E-04
 cg2d: Sum(rhs),rhsMax =  -8.46596555879875E-14  7.67542567081198E-04
 cg2d: Sum(rhs),rhsMax =  -7.59866345192983E-14  7.78401059600247E-04
(PID.TID 0000.0001)      cg2d_init_res =   1.20342452780896E-01
(PID.TID 0000.0001)      cg2d_iters(min,last) =      -1      58
(PID.TID 0000.0001)      cg2d_last_res =   6.35564998624399E-20
(PID.TID 0000.0001) // =======================================================
(PID.TID 0000.0001) // Begin MONITOR dynamic field statistics
(PID.TID 0000.0001) // =======================================================
(PID.TID 0000.0001) %MON time_tsnumber                =                   160
(PID.TID 0000.0001) %MON time_secondsf                =   7.2000000000000E+04
(PID.TID 0000.0001) %MON dynstat_eta_max              =   1.1742008654883E-04
(PID.TID 0000.0001) %MON dynstat_eta_min              =  -1.7932197705395E-04
(PID.TID 0000.0001) %MON dynstat_eta_mean             =   2.4397406714086E-16
(PID.TID 0000.0001) %MON dynstat_eta_sd               =   5.5835348911350E-05
(PID.TID 0000.0001) %MON dynstat_eta_del2             =   2.1803167493845E-06
(PID.TID 0000.0001) %MON dynstat_uvel_max             =   4.1308215522343E-02
(PID.TID 0000.0001) %MON dynstat_uvel_min             =  -2.9341118374457E-02
(PID.TID 0000.0001) %MON dynstat_uvel_mean            =   3.5174746189530E-08
(PID.TID 0000.0001) %MON dynstat_uvel_sd              =   9.1945650046268E-03
(PID.TID 0000.0001) %MON dynstat_uvel_del2            =   1.3736222435948E-04
(PID.TID 0000.0001) %MON dynstat_vvel_max             =   0.0000000000000E+00
(PID.TID 0000.0001) %MON dynstat_vvel_min             =   0.0000000000000E+00
(PID.TID 0000.0001) %MON dynstat_vvel_mean            =   0.0000000000000E+00
(PID.TID 0000.0001) %MON dynstat_vvel_sd              =   0.0000000000000E+00
(PID.TID 0000.0001) %MON dynstat_vvel_del2            =   0.0000000000000E+00
(PID.TID 0000.0001) %MON dynstat_wvel_max             =   4.2772286521008E-03
(PID.TID 0000.0001) %MON dynstat_wvel_min             =  -3.2479632906372E-03
(PID.TID 0000.0001) %MON dynstat_wvel_mean            =   1.0109468263229E-04
(PID.TID 0000.0001) %MON dynstat_wvel_sd              =   1.3619712530393E-03
(PID.TID 0000.0001) %MON dynstat_wvel_del2            =   2.7708265135749E-05
(PID.TID 0000.0001) %MON dynstat_theta_max            =   4.9417668910609E-02
(PID.TID 0000.0001) %MON dynstat_theta_min            =  -4.8898638557372E-02
(PID.TID 0000.0001) %MON dynstat_theta_mean           =   1.5389339245527E-02
(PID.TID 0000.0001) %MON dynstat_theta_sd             =   2.7562960451993E-02
(PID.TID 0000.0001) %MON dynstat_theta_del2           =   7.3758646571805E-05
(PID.TID 0000.0001) %MON dynstat_salt_max             =   3.5000000000000E+01
(PID.TID 0000.0001) %MON dynstat_salt_min             =   3.5000000000000E+01
(PID.TID 0000.0001) %MON dynstat_salt_mean            =   3.5000000000000E+01
(PID.TID 0000.0001) %MON dynstat_salt_sd              =   3.5527136788005E-13
(PID.TID 0000.0001) %MON dynstat_salt_del2            =   2.6218552499998E-01
(PID.TID 0000.0001) %MON trAdv_CFL_u_max              =   6.0027856439652E-02
(PID.TID 0000.0001) %MON trAdv_CFL_v_max              =   0.0000000000000E+00
(PID.TID 0000.0001) %MON trAdv_CFL_w_max              =   1.9474069506154E-01
(PID.TID 0000.0001) %MON advcfl_uvel_max              =   8.5256429781076E-02
(PID.TID 0000.0001) %MON advcfl_vvel_max              =   0.0000000000000E+00
(PID.TID 0000.0001) %MON advcfl_wvel_max              =   1.9247528934454E-01
(PID.TID 0000.0001) %MON advcfl_W_hf_max              =   1.9247528934454E-01
(PID.TID 0000.0001) %MON pe_b_mean                    =   1.5105819484016E-10
(PID.TID 0000.0001) %MON ke_max                       =   4.2659216741008E-04
(PID.TID 0000.0001) %MON ke_mean                      =   4.1252097083216E-05
(PID.TID 0000.0001) %MON ke_vol                       =   6.4007813759742E+09
(PID.TID 0000.0001) %MON vort_r_min                   =   0.0000000000000E+00
(PID.TID 0000.0001) %MON vort_r_max                   =   0.0000000000000E+00
(PID.TID 0000.0001) %MON vort_a_mean                  =   0.0000000000000E+00
(PID.TID 0000.0001) %MON vort_a_sd                    =   0.0000000000000E+00
(PID.TID 0000.0001) %MON vort_p_mean                  =   0.0000000000000E+00
(PID.TID 0000.0001) %MON vort_p_sd                    =   0.0000000000000E+00
(PID.TID 0000.0001) %MON surfExpan_theta_mean         =   5.5804832307159E-13
(PID.TID 0000.0001) %MON surfExpan_salt_mean          =  -2.1192304026065E-18
(PID.TID 0000.0001) // =======================================================
(PID.TID 0000.0001) // End MONITOR dynamic field statistics
(PID.TID 0000.0001) // =======================================================
(PID.TID 0000.0001) // =======================================================
(PID.TID 0000.0001) // Begin OBCS MONITOR field statistics
(PID.TID 0000.0001) // =======================================================
(PID.TID 0000.0001) %MON obc_W_uVel_max               =   1.5413989093634E-02
(PID.TID 0000.0001) %MON obc_W_uVel_min               =  -1.5413989093634E-02
(PID.TID 0000.0001) %MON obc_W_uVel_mean              =   1.1368683772162E-19
(PID.TID 0000.0001) %MON obc_W_uVel_sd                =   1.0933039124146E-02
(PID.TID 0000.0001) %MON obc_W_uVel_Int               =   1.1368683772162E-13
(PID.TID 0000.0001) // =======================================================
(PID.TID 0000.0001) // End OBCS MONITOR field statistics
(PID.TID 0000.0001) // =======================================================
 cg2d: Sum(rhs),rhsMax =  -9.23187443374954E-14  7.78254856472914E-04
 cg2d: Sum(rhs),rhsMax =  -8.85284684101761E-14  7.81962793675975E-04
 cg2d: Sum(rhs),rhsMax =  -9.74721605512263E-14  7.72664258542986E-04
 cg2d: Sum(rhs),rhsMax =  -9.29633973967281E-14  7.68368032746614E-04
 cg2d: Sum(rhs),rhsMax =  -9.58662402933408E-14  7.49208417294194E-04
 cg2d: Sum(rhs),rhsMax =  -1.01738821360609E-13  7.36299481672037E-04
 cg2d: Sum(rhs),rhsMax =  -9.15497061840242E-14  7.06878885750112E-04
 cg2d: Sum(rhs),rhsMax =  -9.47523309813292E-14  6.85090165187832E-04
 cg2d: Sum(rhs),rhsMax =  -8.92528238816137E-14  7.17449102505719E-04
 cg2d: Sum(rhs),rhsMax =  -7.49027576074646E-14  7.76558670913354E-04
 cg2d: Sum(rhs),rhsMax =  -7.07915713896168E-14  8.33482504565678E-04
 cg2d: Sum(rhs),rhsMax =  -6.67987800490044E-14  8.80451474330364E-04
 cg2d: Sum(rhs),rhsMax =  -6.04237796950069E-14  9.22527243155722E-04
 cg2d: Sum(rhs),rhsMax =  -6.02445610758950E-14  9.51296863095496E-04
 cg2d: Sum(rhs),rhsMax =  -5.92783200997760E-14  9.72260025165964E-04
 cg2d: Sum(rhs),rhsMax =  -5.46730629519265E-14  9.76733676202390E-04
(PID.TID 0000.0001)      cg2d_init_res =   1.46624546315617E-01
(PID.TID 0000.0001)      cg2d_iters(min,last) =      -1      58
(PID.TID 0000.0001)      cg2d_last_res =   4.87756266037212E-19
(PID.TID 0000.0001) // =======================================================
(PID.TID 0000.0001) // Begin MONITOR dynamic field statistics
(PID.TID 0000.0001) // =======================================================
(PID.TID 0000.0001) %MON time_tsnumber                =                   176
(PID.TID 0000.0001) %MON time_secondsf                =   7.9200000000000E+04
(PID.TID 0000.0001) %MON dynstat_eta_max              =   1.2043812072343E-04
(PID.TID 0000.0001) %MON dynstat_eta_min              =  -2.0900220942950E-04
(PID.TID 0000.0001) %MON dynstat_eta_mean             =   1.9413037075369E-16
(PID.TID 0000.0001) %MON dynstat_eta_sd               =   6.2858682452254E-05
(PID.TID 0000.0001) %MON dynstat_eta_del2             =   2.8511467362546E-06
(PID.TID 0000.0001) %MON dynstat_uvel_max             =   4.6203865140753E-02
(PID.TID 0000.0001) %MON dynstat_uvel_min             =  -3.2754610412084E-02
(PID.TID 0000.0001) %MON dynstat_uvel_mean            =   6.2968180629440E-08
(PID.TID 0000.0001) %MON dynstat_uvel_sd              =   1.0128026755601E-02
(PID.TID 0000.0001) %MON dynstat_uvel_del2            =   1.6548730033618E-04
(PID.TID 0000.0001) %MON dynstat_vvel_max             =   0.0000000000000E+00
(PID.TID 0000.0001) %MON dynstat_vvel_min             =   0.0000000000000E+00
(PID.TID 0000.0001) %MON dynstat_vvel_mean            =   0.0000000000000E+00
(PID.TID 0000.0001) %MON dynstat_vvel_sd              =   0.0000000000000E+00
(PID.TID 0000.0001) %MON dynstat_vvel_del2            =   0.0000000000000E+00
(PID.TID 0000.0001) %MON dynstat_wvel_max             =   4.6567715808702E-03
(PID.TID 0000.0001) %MON dynstat_wvel_min             =  -3.2194139980445E-03
(PID.TID 0000.0001) %MON dynstat_wvel_mean            =   1.5007702415923E-04
(PID.TID 0000.0001) %MON dynstat_wvel_sd              =   1.3893607987018E-03
(PID.TID 0000.0001) %MON dynstat_wvel_del2            =   2.9419565220949E-05
(PID.TID 0000.0001) %MON dynstat_theta_max            =   4.9412821157643E-02
(PID.TID 0000.0001) %MON dynstat_theta_min            =  -4.9264736091331E-02
(PID.TID 0000.0001) %MON dynstat_theta_mean           =   1.4899485030431E-02
(PID.TID 0000.0001) %MON dynstat_theta_sd             =   2.7896204962240E-02
(PID.TID 0000.0001) %MON dynstat_theta_del2           =   8.8197427574554E-05
(PID.TID 0000.0001) %MON dynstat_salt_max             =   3.5000000000000E+01
(PID.TID 0000.0001) %MON dynstat_salt_min             =   3.5000000000000E+01
(PID.TID 0000.0001) %MON dynstat_salt_mean            =   3.5000000000000E+01
(PID.TID 0000.0001) %MON dynstat_salt_sd              =   3.4816594052245E-13
(PID.TID 0000.0001) %MON dynstat_salt_del2            =   2.6218552499998E-01
(PID.TID 0000.0001) %MON trAdv_CFL_u_max              =   6.8557245277487E-02
(PID.TID 0000.0001) %MON trAdv_CFL_v_max              =   0.0000000000000E+00
(PID.TID 0000.0001) %MON trAdv_CFL_w_max              =   2.0549026578171E-01
(PID.TID 0000.0001) %MON advcfl_uvel_max              =   9.5360608880726E-02
(PID.TID 0000.0001) %MON advcfl_vvel_max              =   0.0000000000000E+00
(PID.TID 0000.0001) %MON advcfl_wvel_max              =   2.0955472113916E-01
(PID.TID 0000.0001) %MON advcfl_W_hf_max              =   2.0955472113916E-01
(PID.TID 0000.0001) %MON pe_b_mean                    =   1.9145044023382E-10
(PID.TID 0000.0001) %MON ke_max                       =   5.3369928848621E-04
(PID.TID 0000.0001) %MON ke_mean                      =   4.9045184779705E-05
(PID.TID 0000.0001) %MON ke_vol                       =   6.4007813759742E+09
(PID.TID 0000.0001) %MON vort_r_min                   =   0.0000000000000E+00
(PID.TID 0000.0001) %MON vort_r_max                   =   0.0000000000000E+00
(PID.TID 0000.0001) %MON vort_a_mean                  =   0.0000000000000E+00
(PID.TID 0000.0001) %MON vort_a_sd                    =   0.0000000000000E+00
(PID.TID 0000.0001) %MON vort_p_mean                  =   0.0000000000000E+00
(PID.TID 0000.0001) %MON vort_p_sd                    =   0.0000000000000E+00
(PID.TID 0000.0001) %MON surfExpan_theta_mean         =   1.2837924258197E-12
(PID.TID 0000.0001) %MON surfExpan_salt_mean          =  -1.1785136286901E-18
(PID.TID 0000.0001) // =======================================================
(PID.TID 0000.0001) // End MONITOR dynamic field statistics
(PID.TID 0000.0001) // =======================================================
(PID.TID 0000.0001) // =======================================================
(PID.TID 0000.0001) // Begin OBCS MONITOR field statistics
(PID.TID 0000.0001) // =======================================================
(PID.TID 0000.0001) %MON obc_W_uVel_max               =   2.2882366840297E-02
(PID.TID 0000.0001) %MON obc_W_uVel_min               =  -2.2882366840297E-02
(PID.TID 0000.0001) %MON obc_W_uVel_mean              =  -1.3642420526594E-18
(PID.TID 0000.0001) %MON obc_W_uVel_sd                =   1.6230309389628E-02
(PID.TID 0000.0001) %MON obc_W_uVel_Int               =  -1.3642420526594E-12
(PID.TID 0000.0001) // =======================================================
(PID.TID 0000.0001) // End OBCS MONITOR field statistics
(PID.TID 0000.0001) // =======================================================
 cg2d: Sum(rhs),rhsMax =  -5.04585522670409E-14  9.70902293006944E-04
 cg2d: Sum(rhs),rhsMax =  -5.12842806416058E-14  9.46267223728360E-04
 cg2d: Sum(rhs),rhsMax =  -5.19584375524573E-14  9.09994249340564E-04
 cg2d: Sum(rhs),rhsMax =  -5.16850017645565E-14  8.54222199267354E-04
 cg2d: Sum(rhs),rhsMax =  -4.08017803571470E-14  8.68985283078874E-04
 cg2d: Sum(rhs),rhsMax =  -3.51621943367464E-14  9.52593730969685E-04
 cg2d: Sum(rhs),rhsMax =  -3.83703485651310E-14  1.03161930528586E-03
 cg2d: Sum(rhs),rhsMax =  -3.58632394614755E-14  1.09976339307164E-03
 cg2d: Sum(rhs),rhsMax =  -3.54746614028567E-14  1.15808124421772E-03
 cg2d: Sum(rhs),rhsMax =  -3.24414974051113E-14  1.20082431622313E-03
 cg2d: Sum(rhs),rhsMax =  -3.49538106791947E-14  1.22855121676511E-03
 cg2d: Sum(rhs),rhsMax =  -3.13542594665428E-14  1.23663319536074E-03
 cg2d: Sum(rhs),rhsMax =  -3.11059771690436E-14  1.22562350907781E-03
 cg2d: Sum(rhs),rhsMax =  -3.58766835684143E-14  1.19265288792444E-03
 cg2d: Sum(rhs),rhsMax =  -3.80956117346232E-14  1.13873261382876E-03
 cg2d: Sum(rhs),rhsMax =  -4.54454182619024E-14  1.06327099598526E-03
(PID.TID 0000.0001)      cg2d_init_res =   1.76949128704520E-01
(PID.TID 0000.0001)      cg2d_iters(min,last) =      -1      58
(PID.TID 0000.0001)      cg2d_last_res =   1.52008575258891E-19
(PID.TID 0000.0001) // =======================================================
(PID.TID 0000.0001) // Begin MONITOR dynamic field statistics
(PID.TID 0000.0001) // =======================================================
(PID.TID 0000.0001) %MON time_tsnumber                =                   192
(PID.TID 0000.0001) %MON time_secondsf                =   8.6400000000000E+04
(PID.TID 0000.0001) %MON dynstat_eta_max              =   1.1665962696567E-04
(PID.TID 0000.0001) %MON dynstat_eta_min              =  -2.1273745511042E-04
(PID.TID 0000.0001) %MON dynstat_eta_mean             =   1.8521874928843E-16
(PID.TID 0000.0001) %MON dynstat_eta_sd               =   6.7288335970618E-05
(PID.TID 0000.0001) %MON dynstat_eta_del2             =   3.7795278421213E-06
(PID.TID 0000.0001) %MON dynstat_uvel_max             =   5.1778510562934E-02
(PID.TID 0000.0001) %MON dynstat_uvel_min             =  -3.6470916113200E-02
(PID.TID 0000.0001) %MON dynstat_uvel_mean            =   2.7541501759887E-08
(PID.TID 0000.0001) %MON dynstat_uvel_sd              =   1.0435153305768E-02
(PID.TID 0000.0001) %MON dynstat_uvel_del2            =   1.9027174454016E-04
(PID.TID 0000.0001) %MON dynstat_vvel_max             =   0.0000000000000E+00
(PID.TID 0000.0001) %MON dynstat_vvel_min             =   0.0000000000000E+00
(PID.TID 0000.0001) %MON dynstat_vvel_mean            =   0.0000000000000E+00
(PID.TID 0000.0001) %MON dynstat_vvel_sd              =   0.0000000000000E+00
(PID.TID 0000.0001) %MON dynstat_vvel_del2            =   0.0000000000000E+00
(PID.TID 0000.0001) %MON dynstat_wvel_max             =   5.0210963158825E-03
(PID.TID 0000.0001) %MON dynstat_wvel_min             =  -3.3998938348061E-03
(PID.TID 0000.0001) %MON dynstat_wvel_mean            =   5.7252956251077E-05
(PID.TID 0000.0001) %MON dynstat_wvel_sd              =   1.4694504651622E-03
(PID.TID 0000.0001) %MON dynstat_wvel_del2            =   4.1476864697671E-05
(PID.TID 0000.0001) %MON dynstat_theta_max            =   4.9514534388042E-02
(PID.TID 0000.0001) %MON dynstat_theta_min            =  -4.9228954947740E-02
(PID.TID 0000.0001) %MON dynstat_theta_mean           =   1.4496390718610E-02
(PID.TID 0000.0001) %MON dynstat_theta_sd             =   2.8157057157861E-02
(PID.TID 0000.0001) %MON dynstat_theta_del2           =   1.0464032780909E-04
(PID.TID 0000.0001) %MON dynstat_salt_max             =   3.5000000000000E+01
(PID.TID 0000.0001) %MON dynstat_salt_min             =   3.5000000000000E+01
(PID.TID 0000.0001) %MON dynstat_salt_mean            =   3.5000000000000E+01
(PID.TID 0000.0001) %MON dynstat_salt_sd              =   3.4816594052245E-13
(PID.TID 0000.0001) %MON dynstat_salt_del2            =   2.6218552499998E-01
(PID.TID 0000.0001) %MON trAdv_CFL_u_max              =   7.4467820871095E-02
(PID.TID 0000.0001) %MON trAdv_CFL_v_max              =   0.0000000000000E+00
(PID.TID 0000.0001) %MON trAdv_CFL_w_max              =   2.2474766860952E-01
(PID.TID 0000.0001) %MON advcfl_uvel_max              =   1.0686617405658E-01
(PID.TID 0000.0001) %MON advcfl_vvel_max              =   0.0000000000000E+00
(PID.TID 0000.0001) %MON advcfl_wvel_max              =   2.2594933421471E-01
(PID.TID 0000.0001) %MON advcfl_W_hf_max              =   2.2594933421471E-01
(PID.TID 0000.0001) %MON pe_b_mean                    =   2.1938422629146E-10
(PID.TID 0000.0001) %MON ke_max                       =   6.7025353902896E-04
(PID.TID 0000.0001) %MON ke_mean                      =   5.4119732332699E-05
(PID.TID 0000.0001) %MON ke_vol                       =   6.4007813759742E+09
(PID.TID 0000.0001) %MON vort_r_min                   =   0.0000000000000E+00
(PID.TID 0000.0001) %MON vort_r_max                   =   0.0000000000000E+00
(PID.TID 0000.0001) %MON vort_a_mean                  =   0.0000000000000E+00
(PID.TID 0000.0001) %MON vort_a_sd                    =   0.0000000000000E+00
(PID.TID 0000.0001) %MON vort_p_mean                  =   0.0000000000000E+00
(PID.TID 0000.0001) %MON vort_p_sd                    =   0.0000000000000E+00
(PID.TID 0000.0001) %MON surfExpan_theta_mean         =  -1.5844069695047E-12
(PID.TID 0000.0001) %MON surfExpan_salt_mean          =  -1.5953412646759E-19
(PID.TID 0000.0001) // =======================================================
(PID.TID 0000.0001) // End MONITOR dynamic field statistics
(PID.TID 0000.0001) // =======================================================
(PID.TID 0000.0001) // =======================================================
(PID.TID 0000.0001) // Begin OBCS MONITOR field statistics
(PID.TID 0000.0001) // =======================================================
(PID.TID 0000.0001) %MON obc_W_uVel_max               =   8.7294051502423E-03
(PID.TID 0000.0001) %MON obc_W_uVel_min               =  -8.7294051502423E-03
(PID.TID 0000.0001) %MON obc_W_uVel_mean              =  -1.1368683772162E-19
(PID.TID 0000.0001) %MON obc_W_uVel_sd                =   6.1917085485380E-03
(PID.TID 0000.0001) %MON obc_W_uVel_Int               =  -1.1368683772162E-13
(PID.TID 0000.0001) // =======================================================
(PID.TID 0000.0001) // End OBCS MONITOR field statistics
(PID.TID 0000.0001) // =======================================================
 cg2d: Sum(rhs),rhsMax =  -5.05916922938221E-14  1.02957924196607E-03
 cg2d: Sum(rhs),rhsMax =  -4.69379309725459E-14  1.12759296640520E-03
 cg2d: Sum(rhs),rhsMax =  -4.43208837686004E-14  1.21313545886452E-03
 cg2d: Sum(rhs),rhsMax =  -4.32488246604468E-14  1.28859345331956E-03
 cg2d: Sum(rhs),rhsMax =  -4.60664492663021E-14  1.34497097005346E-03
 cg2d: Sum(rhs),rhsMax =  -4.09596401934609E-14  1.38548904931372E-03
 cg2d: Sum(rhs),rhsMax =  -4.42246066156837E-14  1.40107728175300E-03
 cg2d: Sum(rhs),rhsMax =  -4.39028154108900E-14  1.39642007427957E-03
 cg2d: Sum(rhs),rhsMax =  -4.44462175397398E-14  1.36316150067108E-03
 cg2d: Sum(rhs),rhsMax =  -4.57301297523971E-14  1.30798689876365E-03
 cg2d: Sum(rhs),rhsMax =  -4.52602365308419E-14  1.22390573325209E-03
 cg2d: Sum(rhs),rhsMax =  -5.39100014629312E-14  1.11986628746767E-03
 cg2d: Sum(rhs),rhsMax =  -4.44639984553685E-14  1.22548372757978E-03
 cg2d: Sum(rhs),rhsMax =  -4.15097643757800E-14  1.34392336242211E-03
 cg2d: Sum(rhs),rhsMax =  -3.28959949558172E-14  1.44647191665101E-03
 cg2d: Sum(rhs),rhsMax =  -3.58259429067420E-14  1.53321793694351E-03
(PID.TID 0000.0001)      cg2d_init_res =   1.49831032002671E-01
(PID.TID 0000.0001)      cg2d_iters(min,last) =      -1      58
(PID.TID 0000.0001)      cg2d_last_res =   7.19290561077092E-20
(PID.TID 0000.0001) // =======================================================
(PID.TID 0000.0001) // Begin MONITOR dynamic field statistics
(PID.TID 0000.0001) // =======================================================
(PID.TID 0000.0001) %MON time_tsnumber                =                   208
(PID.TID 0000.0001) %MON time_secondsf                =   9.3600000000000E+04
(PID.TID 0000.0001) %MON dynstat_eta_max              =   1.0573563212176E-04
(PID.TID 0000.0001) %MON dynstat_eta_min              =  -2.4517703951632E-04
(PID.TID 0000.0001) %MON dynstat_eta_mean             =   2.1432769668451E-16
(PID.TID 0000.0001) %MON dynstat_eta_sd               =   6.9407941217510E-05
(PID.TID 0000.0001) %MON dynstat_eta_del2             =   4.5308962051591E-06
(PID.TID 0000.0001) %MON dynstat_uvel_max             =   4.8306404239024E-02
(PID.TID 0000.0001) %MON dynstat_uvel_min             =  -3.7990590207540E-02
(PID.TID 0000.0001) %MON dynstat_uvel_mean            =  -1.5846727112713E-08
(PID.TID 0000.0001) %MON dynstat_uvel_sd              =   1.0369625879362E-02
(PID.TID 0000.0001) %MON dynstat_uvel_del2            =   2.1575764291254E-04
(PID.TID 0000.0001) %MON dynstat_vvel_max             =   0.0000000000000E+00
(PID.TID 0000.0001) %MON dynstat_vvel_min             =   0.0000000000000E+00
(PID.TID 0000.0001) %MON dynstat_vvel_mean            =   0.0000000000000E+00
(PID.TID 0000.0001) %MON dynstat_vvel_sd              =   0.0000000000000E+00
(PID.TID 0000.0001) %MON dynstat_vvel_del2            =   0.0000000000000E+00
(PID.TID 0000.0001) %MON dynstat_wvel_max             =   4.9372032474182E-03
(PID.TID 0000.0001) %MON dynstat_wvel_min             =  -4.3039308295879E-03
(PID.TID 0000.0001) %MON dynstat_wvel_mean            =  -8.9668907112398E-05
(PID.TID 0000.0001) %MON dynstat_wvel_sd              =   1.5735770404947E-03
(PID.TID 0000.0001) %MON dynstat_wvel_del2            =   4.6670274100176E-05
(PID.TID 0000.0001) %MON dynstat_theta_max            =   4.9558802327039E-02
(PID.TID 0000.0001) %MON dynstat_theta_min            =  -4.9931221740984E-02
(PID.TID 0000.0001) %MON dynstat_theta_mean           =   1.4562624075247E-02
(PID.TID 0000.0001) %MON dynstat_theta_sd             =   2.8123851637367E-02
(PID.TID 0000.0001) %MON dynstat_theta_del2           =   1.2555551389974E-04
(PID.TID 0000.0001) %MON dynstat_salt_max             =   3.5000000000000E+01
(PID.TID 0000.0001) %MON dynstat_salt_min             =   3.5000000000000E+01
(PID.TID 0000.0001) %MON dynstat_salt_mean            =   3.5000000000000E+01
(PID.TID 0000.0001) %MON dynstat_salt_sd              =   3.4816594052245E-13
(PID.TID 0000.0001) %MON dynstat_salt_del2            =   2.6218552499998E-01
(PID.TID 0000.0001) %MON trAdv_CFL_u_max              =   8.0247183692246E-02
(PID.TID 0000.0001) %MON trAdv_CFL_v_max              =   0.0000000000000E+00
(PID.TID 0000.0001) %MON trAdv_CFL_w_max              =   2.2495563585617E-01
(PID.TID 0000.0001) %MON advcfl_uvel_max              =   9.9700059876782E-02
(PID.TID 0000.0001) %MON advcfl_vvel_max              =   0.0000000000000E+00
(PID.TID 0000.0001) %MON advcfl_wvel_max              =   2.2217414613382E-01
(PID.TID 0000.0001) %MON advcfl_W_hf_max              =   2.2217414613382E-01
(PID.TID 0000.0001) %MON pe_b_mean                    =   2.3342326898602E-10
(PID.TID 0000.0001) %MON ke_max                       =   6.5954539462235E-04
(PID.TID 0000.0001) %MON ke_mean                      =   5.2963739242807E-05
(PID.TID 0000.0001) %MON ke_vol                       =   6.4007813759742E+09
(PID.TID 0000.0001) %MON vort_r_min                   =   0.0000000000000E+00
(PID.TID 0000.0001) %MON vort_r_max                   =   0.0000000000000E+00
(PID.TID 0000.0001) %MON vort_a_mean                  =   0.0000000000000E+00
(PID.TID 0000.0001) %MON vort_a_sd                    =   0.0000000000000E+00
(PID.TID 0000.0001) %MON vort_p_mean                  =   0.0000000000000E+00
(PID.TID 0000.0001) %MON vort_p_sd                    =   0.0000000000000E+00
(PID.TID 0000.0001) %MON surfExpan_theta_mean         =   2.6026903270904E-12
(PID.TID 0000.0001) %MON surfExpan_salt_mean          =   1.9553294468831E-18
(PID.TID 0000.0001) // =======================================================
(PID.TID 0000.0001) // End MONITOR dynamic field statistics
(PID.TID 0000.0001) // =======================================================
(PID.TID 0000.0001) // =======================================================
(PID.TID 0000.0001) // Begin OBCS MONITOR field statistics
(PID.TID 0000.0001) // =======================================================
(PID.TID 0000.0001) %MON obc_W_uVel_max               =   1.3671891738321E-02
(PID.TID 0000.0001) %MON obc_W_uVel_min               =  -1.3671891738321E-02
(PID.TID 0000.0001) %MON obc_W_uVel_mean              =   1.3642420526594E-18
(PID.TID 0000.0001) %MON obc_W_uVel_sd                =   9.6973811495621E-03
(PID.TID 0000.0001) %MON obc_W_uVel_Int               =   1.3642420526594E-12
(PID.TID 0000.0001) // =======================================================
(PID.TID 0000.0001) // End OBCS MONITOR field statistics
(PID.TID 0000.0001) // =======================================================
 cg2d: Sum(rhs),rhsMax =  -3.58914287179601E-14  1.59676743944946E-03
 cg2d: Sum(rhs),rhsMax =  -3.92407460692024E-14  1.63713347455082E-03
 cg2d: Sum(rhs),rhsMax =  -4.19946195873155E-14  1.64860959149699E-03
 cg2d: Sum(rhs),rhsMax =  -4.54608139327517E-14  1.63185711077265E-03
 cg2d: Sum(rhs),rhsMax =  -4.69223184612622E-14  1.58368903078486E-03
 cg2d: Sum(rhs),rhsMax =  -5.51284278643704E-14  1.50595024602907E-03
 cg2d: Sum(rhs),rhsMax =  -6.10284392466021E-14  1.39847315817900E-03
 cg2d: Sum(rhs),rhsMax =  -7.36023655217855E-14  1.26446841048532E-03
 cg2d: Sum(rhs),rhsMax =  -7.63278329429795E-14  1.24304153399245E-03
 cg2d: Sum(rhs),rhsMax =  -7.54602543645566E-14  1.37602555029215E-03
 cg2d: Sum(rhs),rhsMax =  -7.03389169826041E-14  1.49697859655618E-03
 cg2d: Sum(rhs),rhsMax =  -6.66574000857123E-14  1.59621430564231E-03
 cg2d: Sum(rhs),rhsMax =  -6.53986413634566E-14  1.67531998813536E-03
 cg2d: Sum(rhs),rhsMax =  -6.32039993259115E-14  1.72476261930395E-03
 cg2d: Sum(rhs),rhsMax =  -6.80976542516420E-14  1.74787645966488E-03
 cg2d: Sum(rhs),rhsMax =  -6.95446304710412E-14  1.73621129868193E-03
(PID.TID 0000.0001)      cg2d_init_res =   1.49858529822403E-01
(PID.TID 0000.0001)      cg2d_iters(min,last) =      -1      58
(PID.TID 0000.0001)      cg2d_last_res =   1.24757258049549E-19
(PID.TID 0000.0001) // =======================================================
(PID.TID 0000.0001) // Begin MONITOR dynamic field statistics
(PID.TID 0000.0001) // =======================================================
(PID.TID 0000.0001) %MON time_tsnumber                =                   224
(PID.TID 0000.0001) %MON time_secondsf                =   1.0080000000000E+05
(PID.TID 0000.0001) %MON dynstat_eta_max              =   1.0316892878301E-04
(PID.TID 0000.0001) %MON dynstat_eta_min              =  -2.5371461971921E-04
(PID.TID 0000.0001) %MON dynstat_eta_mean             =   4.4225261033472E-16
(PID.TID 0000.0001) %MON dynstat_eta_sd               =   7.0487738774803E-05
(PID.TID 0000.0001) %MON dynstat_eta_del2             =   5.1174550744044E-06
(PID.TID 0000.0001) %MON dynstat_uvel_max             =   6.4193371074557E-02
(PID.TID 0000.0001) %MON dynstat_uvel_min             =  -4.1113570889661E-02
(PID.TID 0000.0001) %MON dynstat_uvel_mean            =  -3.2920845594854E-08
(PID.TID 0000.0001) %MON dynstat_uvel_sd              =   1.1186229760731E-02
(PID.TID 0000.0001) %MON dynstat_uvel_del2            =   2.4663765045420E-04
(PID.TID 0000.0001) %MON dynstat_vvel_max             =   0.0000000000000E+00
(PID.TID 0000.0001) %MON dynstat_vvel_min             =   0.0000000000000E+00
(PID.TID 0000.0001) %MON dynstat_vvel_mean            =   0.0000000000000E+00
(PID.TID 0000.0001) %MON dynstat_vvel_sd              =   0.0000000000000E+00
(PID.TID 0000.0001) %MON dynstat_vvel_del2            =   0.0000000000000E+00
(PID.TID 0000.0001) %MON dynstat_wvel_max             =   4.8958034867717E-03
(PID.TID 0000.0001) %MON dynstat_wvel_min             =  -5.9108710218485E-03
(PID.TID 0000.0001) %MON dynstat_wvel_mean            =  -1.5186343911510E-04
(PID.TID 0000.0001) %MON dynstat_wvel_sd              =   1.6155603039201E-03
(PID.TID 0000.0001) %MON dynstat_wvel_del2            =   5.5197254381294E-05
(PID.TID 0000.0001) %MON dynstat_theta_max            =   4.9570999047771E-02
(PID.TID 0000.0001) %MON dynstat_theta_min            =  -4.9714947590963E-02
(PID.TID 0000.0001) %MON dynstat_theta_mean           =   1.5032374072286E-02
(PID.TID 0000.0001) %MON dynstat_theta_sd             =   2.7936716674474E-02
(PID.TID 0000.0001) %MON dynstat_theta_del2           =   1.3854515239434E-04
(PID.TID 0000.0001) %MON dynstat_salt_max             =   3.5000000000000E+01
(PID.TID 0000.0001) %MON dynstat_salt_min             =   3.5000000000000E+01
(PID.TID 0000.0001) %MON dynstat_salt_mean            =   3.5000000000000E+01
(PID.TID 0000.0001) %MON dynstat_salt_sd              =   3.5527136788005E-13
(PID.TID 0000.0001) %MON dynstat_salt_del2            =   2.6218552499998E-01
(PID.TID 0000.0001) %MON trAdv_CFL_u_max              =   8.2094753340669E-02
(PID.TID 0000.0001) %MON trAdv_CFL_v_max              =   0.0000000000000E+00
(PID.TID 0000.0001) %MON trAdv_CFL_w_max              =   2.6166631191604E-01
(PID.TID 0000.0001) %MON advcfl_uvel_max              =   1.3248932601478E-01
(PID.TID 0000.0001) %MON advcfl_vvel_max              =   0.0000000000000E+00
(PID.TID 0000.0001) %MON advcfl_wvel_max              =   2.6598919598318E-01
(PID.TID 0000.0001) %MON advcfl_W_hf_max              =   2.6598919598318E-01
(PID.TID 0000.0001) %MON pe_b_mean                    =   2.4074261816259E-10
(PID.TID 0000.0001) %MON ke_max                       =   1.0301972224790E-03
(PID.TID 0000.0001) %MON ke_mean                      =   6.0268863088198E-05
(PID.TID 0000.0001) %MON ke_vol                       =   6.4007813759742E+09
(PID.TID 0000.0001) %MON vort_r_min                   =   0.0000000000000E+00
(PID.TID 0000.0001) %MON vort_r_max                   =   0.0000000000000E+00
(PID.TID 0000.0001) %MON vort_a_mean                  =   0.0000000000000E+00
(PID.TID 0000.0001) %MON vort_a_sd                    =   0.0000000000000E+00
(PID.TID 0000.0001) %MON vort_p_mean                  =   0.0000000000000E+00
(PID.TID 0000.0001) %MON vort_p_sd                    =   0.0000000000000E+00
(PID.TID 0000.0001) %MON surfExpan_theta_mean         =   1.5090503258878E-12
(PID.TID 0000.0001) %MON surfExpan_salt_mean          =   4.2024981138567E-19
(PID.TID 0000.0001) // =======================================================
(PID.TID 0000.0001) // End MONITOR dynamic field statistics
(PID.TID 0000.0001) // =======================================================
(PID.TID 0000.0001) // =======================================================
(PID.TID 0000.0001) // Begin OBCS MONITOR field statistics
(PID.TID 0000.0001) // =======================================================
(PID.TID 0000.0001) %MON obc_W_uVel_max               =   2.3154742992331E-02
(PID.TID 0000.0001) %MON obc_W_uVel_min               =  -2.3154742992331E-02
(PID.TID 0000.0001) %MON obc_W_uVel_mean              =   2.2737367544323E-19
(PID.TID 0000.0001) %MON obc_W_uVel_sd                =   1.6423503968175E-02
(PID.TID 0000.0001) %MON obc_W_uVel_Int               =   2.2737367544323E-13
(PID.TID 0000.0001) // =======================================================
(PID.TID 0000.0001) // End OBCS MONITOR field statistics
(PID.TID 0000.0001) // =======================================================
 cg2d: Sum(rhs),rhsMax =  -7.06585397830528E-14  1.69552320669698E-03
 cg2d: Sum(rhs),rhsMax =  -7.84392082536778E-14  1.61914619594139E-03
 cg2d: Sum(rhs),rhsMax =  -8.40287041337096E-14  1.51555021926408E-03
 cg2d: Sum(rhs),rhsMax =  -9.22395840263768E-14  1.38010839238016E-03
 cg2d: Sum(rhs),rhsMax =  -1.04585827845338E-13  1.22923760323645E-03
 cg2d: Sum(rhs),rhsMax =  -9.50556907491906E-14  1.37137160256469E-03
 cg2d: Sum(rhs),rhsMax =  -8.84776193282866E-14  1.50050914861871E-03
 cg2d: Sum(rhs),rhsMax =  -8.40594954754081E-14  1.60887575273203E-03
 cg2d: Sum(rhs),rhsMax =  -8.07572324984518E-14  1.69560379511259E-03
 cg2d: Sum(rhs),rhsMax =  -8.25992919895047E-14  1.75478341858744E-03
 cg2d: Sum(rhs),rhsMax =  -8.06949992937511E-14  1.78604456075195E-03
 cg2d: Sum(rhs),rhsMax =  -8.46206785198866E-14  1.78585793771984E-03
 cg2d: Sum(rhs),rhsMax =  -8.88523195990976E-14  1.75499619392354E-03
 cg2d: Sum(rhs),rhsMax =  -9.03404955010512E-14  1.69275108819395E-03
 cg2d: Sum(rhs),rhsMax =  -9.74742205353540E-14  1.60112267158116E-03
 cg2d: Sum(rhs),rhsMax =  -1.07020295403437E-13  1.48219711225221E-03
(PID.TID 0000.0001)      cg2d_init_res =   1.80021181199887E-01
(PID.TID 0000.0001)      cg2d_iters(min,last) =      -1      58
(PID.TID 0000.0001)      cg2d_last_res =   1.37074890700456E-19
(PID.TID 0000.0001) // =======================================================
(PID.TID 0000.0001) // Begin MONITOR dynamic field statistics
(PID.TID 0000.0001) // =======================================================
(PID.TID 0000.0001) %MON time_tsnumber                =                   240
(PID.TID 0000.0001) %MON time_secondsf                =   1.0800000000000E+05
(PID.TID 0000.0001) %MON dynstat_eta_max              =   9.9126852844089E-05
(PID.TID 0000.0001) %MON dynstat_eta_min              =  -2.3053508835517E-04
(PID.TID 0000.0001) %MON dynstat_eta_mean             =   5.9770793917944E-16
(PID.TID 0000.0001) %MON dynstat_eta_sd               =   7.0021810118066E-05
(PID.TID 0000.0001) %MON dynstat_eta_del2             =   5.4956641357315E-06
(PID.TID 0000.0001) %MON dynstat_uvel_max             =   7.3178660838128E-02
(PID.TID 0000.0001) %MON dynstat_uvel_min             =  -4.5891978534588E-02
(PID.TID 0000.0001) %MON dynstat_uvel_mean            =  -2.3523741769209E-08
(PID.TID 0000.0001) %MON dynstat_uvel_sd              =   1.1525238858664E-02
(PID.TID 0000.0001) %MON dynstat_uvel_del2            =   2.7662995629442E-04
(PID.TID 0000.0001) %MON dynstat_vvel_max             =   0.0000000000000E+00
(PID.TID 0000.0001) %MON dynstat_vvel_min             =   0.0000000000000E+00
(PID.TID 0000.0001) %MON dynstat_vvel_mean            =   0.0000000000000E+00
(PID.TID 0000.0001) %MON dynstat_vvel_sd              =   0.0000000000000E+00
(PID.TID 0000.0001) %MON dynstat_vvel_del2            =   0.0000000000000E+00
(PID.TID 0000.0001) %MON dynstat_wvel_max             =   5.4724457900975E-03
(PID.TID 0000.0001) %MON dynstat_wvel_min             =  -5.9199942380266E-03
(PID.TID 0000.0001) %MON dynstat_wvel_mean            =  -7.0563594506701E-05
(PID.TID 0000.0001) %MON dynstat_wvel_sd              =   1.6571839466601E-03
(PID.TID 0000.0001) %MON dynstat_wvel_del2            =   6.5407425825827E-05
(PID.TID 0000.0001) %MON dynstat_theta_max            =   4.9611136415774E-02
(PID.TID 0000.0001) %MON dynstat_theta_min            =  -5.0202361135683E-02
(PID.TID 0000.0001) %MON dynstat_theta_mean           =   1.5462791640563E-02
(PID.TID 0000.0001) %MON dynstat_theta_sd             =   2.7758371603812E-02
(PID.TID 0000.0001) %MON dynstat_theta_del2           =   1.5415287383676E-04
(PID.TID 0000.0001) %MON dynstat_salt_max             =   3.5000000000000E+01
(PID.TID 0000.0001) %MON dynstat_salt_min             =   3.5000000000000E+01
(PID.TID 0000.0001) %MON dynstat_salt_mean            =   3.5000000000000E+01
(PID.TID 0000.0001) %MON dynstat_salt_sd              =   3.4816594052245E-13
(PID.TID 0000.0001) %MON dynstat_salt_del2            =   2.6218552499998E-01
(PID.TID 0000.0001) %MON trAdv_CFL_u_max              =   9.3535089338642E-02
(PID.TID 0000.0001) %MON trAdv_CFL_v_max              =   0.0000000000000E+00
(PID.TID 0000.0001) %MON trAdv_CFL_w_max              =   2.7446933986638E-01
(PID.TID 0000.0001) %MON advcfl_uvel_max              =   1.5103415338396E-01
(PID.TID 0000.0001) %MON advcfl_vvel_max              =   0.0000000000000E+00
(PID.TID 0000.0001) %MON advcfl_wvel_max              =   2.6639974071120E-01
(PID.TID 0000.0001) %MON advcfl_W_hf_max              =   2.6639974071120E-01
(PID.TID 0000.0001) %MON pe_b_mean                    =   2.3757048738533E-10
(PID.TID 0000.0001) %MON ke_max                       =   1.3387791005154E-03
(PID.TID 0000.0001) %MON ke_mean                      =   6.5919633033545E-05
(PID.TID 0000.0001) %MON ke_vol                       =   6.4007813759742E+09
(PID.TID 0000.0001) %MON vort_r_min                   =   0.0000000000000E+00
(PID.TID 0000.0001) %MON vort_r_max                   =   0.0000000000000E+00
(PID.TID 0000.0001) %MON vort_a_mean                  =   0.0000000000000E+00
(PID.TID 0000.0001) %MON vort_a_sd                    =   0.0000000000000E+00
(PID.TID 0000.0001) %MON vort_p_mean                  =   0.0000000000000E+00
(PID.TID 0000.0001) %MON vort_p_sd                    =   0.0000000000000E+00
(PID.TID 0000.0001) %MON surfExpan_theta_mean         =  -3.6830457014946E-12
(PID.TID 0000.0001) %MON surfExpan_salt_mean          =   9.7529189518035E-19
(PID.TID 0000.0001) // =======================================================
(PID.TID 0000.0001) // End MONITOR dynamic field statistics
(PID.TID 0000.0001) // =======================================================
(PID.TID 0000.0001) // =======================================================
(PID.TID 0000.0001) // Begin OBCS MONITOR field statistics
(PID.TID 0000.0001) // =======================================================
(PID.TID 0000.0001) %MON obc_W_uVel_max               =   1.0758889071249E-02
(PID.TID 0000.0001) %MON obc_W_uVel_min               =  -1.0758889071249E-02
(PID.TID 0000.0001) %MON obc_W_uVel_mean              =  -4.5474735088646E-19
(PID.TID 0000.0001) %MON obc_W_uVel_sd                =   7.6312078874440E-03
(PID.TID 0000.0001) %MON obc_W_uVel_Int               =  -4.5474735088646E-13
(PID.TID 0000.0001) // =======================================================
(PID.TID 0000.0001) // End OBCS MONITOR field statistics
(PID.TID 0000.0001) // =======================================================
 cg2d: Sum(rhs),rhsMax =  -1.20891035897130E-13  1.33894568670726E-03
 cg2d: Sum(rhs),rhsMax =  -1.28675065394490E-13  1.23480263156216E-03
 cg2d: Sum(rhs),rhsMax =  -1.14182643375094E-13  1.36592343009539E-03
 cg2d: Sum(rhs),rhsMax =  -1.01436654215137E-13  1.48679074852582E-03
 cg2d: Sum(rhs),rhsMax =  -9.79998417485750E-14  1.58220312082829E-03
 cg2d: Sum(rhs),rhsMax =  -9.02140775277394E-14  1.66104352344925E-03
 cg2d: Sum(rhs),rhsMax =  -9.44875146006996E-14  1.70883017624321E-03
 cg2d: Sum(rhs),rhsMax =  -9.06474331360818E-14  1.73605616744434E-03
 cg2d: Sum(rhs),rhsMax =  -8.96223199819968E-14  1.72954155075305E-03
 cg2d: Sum(rhs),rhsMax =  -9.08627556875374E-14  1.70166734631015E-03
 cg2d: Sum(rhs),rhsMax =  -9.48387961045849E-14  1.64090452125885E-03
 cg2d: Sum(rhs),rhsMax =  -9.45752807665623E-14  1.56140218328503E-03
 cg2d: Sum(rhs),rhsMax =  -1.05779941013059E-13  1.45323340890756E-03
 cg2d: Sum(rhs),rhsMax =  -1.18142366549445E-13  1.33182544089365E-03
 cg2d: Sum(rhs),rhsMax =  -1.31146351780740E-13  1.18843716275896E-03
 cg2d: Sum(rhs),rhsMax =  -1.20267511227734E-13  1.24840850479664E-03
(PID.TID 0000.0001)      cg2d_init_res =   2.03190050750445E-01
(PID.TID 0000.0001)      cg2d_iters(min,last) =      -1      58
(PID.TID 0000.0001)      cg2d_last_res =   9.45310716948176E-20
(PID.TID 0000.0001) // =======================================================
(PID.TID 0000.0001) // Begin MONITOR dynamic field statistics
(PID.TID 0000.0001) // =======================================================
(PID.TID 0000.0001) %MON time_tsnumber                =                   256
(PID.TID 0000.0001) %MON time_secondsf                =   1.1520000000000E+05
(PID.TID 0000.0001) %MON dynstat_eta_max              =   1.1519559646420E-04
(PID.TID 0000.0001) %MON dynstat_eta_min              =  -2.2236878271239E-04
(PID.TID 0000.0001) %MON dynstat_eta_mean             =   5.3306254369849E-16
(PID.TID 0000.0001) %MON dynstat_eta_sd               =   6.8613984087693E-05
(PID.TID 0000.0001) %MON dynstat_eta_del2             =   5.7324090084055E-06
(PID.TID 0000.0001) %MON dynstat_uvel_max             =   9.1203573637951E-02
(PID.TID 0000.0001) %MON dynstat_uvel_min             =  -4.4330712547784E-02
(PID.TID 0000.0001) %MON dynstat_uvel_mean            =   1.7334669591077E-08
(PID.TID 0000.0001) %MON dynstat_uvel_sd              =   1.1450666046030E-02
(PID.TID 0000.0001) %MON dynstat_uvel_del2            =   2.8096618801001E-04
(PID.TID 0000.0001) %MON dynstat_vvel_max             =   0.0000000000000E+00
(PID.TID 0000.0001) %MON dynstat_vvel_min             =   0.0000000000000E+00
(PID.TID 0000.0001) %MON dynstat_vvel_mean            =   0.0000000000000E+00
(PID.TID 0000.0001) %MON dynstat_vvel_sd              =   0.0000000000000E+00
(PID.TID 0000.0001) %MON dynstat_vvel_del2            =   0.0000000000000E+00
(PID.TID 0000.0001) %MON dynstat_wvel_max             =   6.2948478492693E-03
(PID.TID 0000.0001) %MON dynstat_wvel_min             =  -5.6584100109790E-03
(PID.TID 0000.0001) %MON dynstat_wvel_mean            =   7.7411146075197E-05
(PID.TID 0000.0001) %MON dynstat_wvel_sd              =   1.7314834477185E-03
(PID.TID 0000.0001) %MON dynstat_wvel_del2            =   6.4279711926876E-05
(PID.TID 0000.0001) %MON dynstat_theta_max            =   4.9669210451840E-02
(PID.TID 0000.0001) %MON dynstat_theta_min            =  -5.0359922938124E-02
(PID.TID 0000.0001) %MON dynstat_theta_mean           =   1.5446457154492E-02
(PID.TID 0000.0001) %MON dynstat_theta_sd             =   2.7765436182373E-02
(PID.TID 0000.0001) %MON dynstat_theta_del2           =   1.6262844793877E-04
(PID.TID 0000.0001) %MON dynstat_salt_max             =   3.5000000000000E+01
(PID.TID 0000.0001) %MON dynstat_salt_min             =   3.5000000000000E+01
(PID.TID 0000.0001) %MON dynstat_salt_mean            =   3.5000000000000E+01
(PID.TID 0000.0001) %MON dynstat_salt_sd              =   3.5527136788005E-13
(PID.TID 0000.0001) %MON dynstat_salt_del2            =   2.6218552499998E-01
(PID.TID 0000.0001) %MON trAdv_CFL_u_max              =   9.2925625526711E-02
(PID.TID 0000.0001) %MON trAdv_CFL_v_max              =   0.0000000000000E+00
(PID.TID 0000.0001) %MON trAdv_CFL_w_max              =   2.7627223765796E-01
(PID.TID 0000.0001) %MON advcfl_uvel_max              =   1.8823594709487E-01
(PID.TID 0000.0001) %MON advcfl_vvel_max              =   0.0000000000000E+00
(PID.TID 0000.0001) %MON advcfl_wvel_max              =   2.8326815321712E-01
(PID.TID 0000.0001) %MON advcfl_W_hf_max              =   2.8326815321712E-01
(PID.TID 0000.0001) %MON pe_b_mean                    =   2.2811355710093E-10
(PID.TID 0000.0001) %MON ke_max                       =   2.0795229610833E-03
(PID.TID 0000.0001) %MON ke_mean                      =   6.4962024556276E-05
(PID.TID 0000.0001) %MON ke_vol                       =   6.4007813759742E+09
(PID.TID 0000.0001) %MON vort_r_min                   =   0.0000000000000E+00
(PID.TID 0000.0001) %MON vort_r_max                   =   0.0000000000000E+00
(PID.TID 0000.0001) %MON vort_a_mean                  =   0.0000000000000E+00
(PID.TID 0000.0001) %MON vort_a_sd                    =   0.0000000000000E+00
(PID.TID 0000.0001) %MON vort_p_mean                  =   0.0000000000000E+00
(PID.TID 0000.0001) %MON vort_p_sd                    =   0.0000000000000E+00
(PID.TID 0000.0001) %MON surfExpan_theta_mean         =   1.9833631431993E-12
(PID.TID 0000.0001) %MON surfExpan_salt_mean          =   4.8805067382398E-19
(PID.TID 0000.0001) // =======================================================
(PID.TID 0000.0001) // End MONITOR dynamic field statistics
(PID.TID 0000.0001) // =======================================================
(PID.TID 0000.0001) // =======================================================
(PID.TID 0000.0001) // Begin OBCS MONITOR field statistics
(PID.TID 0000.0001) // =======================================================
(PID.TID 0000.0001) %MON obc_W_uVel_max               =   1.1802940869490E-02
(PID.TID 0000.0001) %MON obc_W_uVel_min               =  -1.1802940869490E-02
(PID.TID 0000.0001) %MON obc_W_uVel_mean              =   4.5474735088646E-19
(PID.TID 0000.0001) %MON obc_W_uVel_sd                =   8.3717468283029E-03
(PID.TID 0000.0001) %MON obc_W_uVel_Int               =   4.5474735088646E-13
(PID.TID 0000.0001) // =======================================================
(PID.TID 0000.0001) // End OBCS MONITOR field statistics
(PID.TID 0000.0001) // =======================================================
 cg2d: Sum(rhs),rhsMax =  -1.04217470157236E-13  1.33909835517094E-03
 cg2d: Sum(rhs),rhsMax =  -1.00827061543657E-13  1.40916263908975E-03
 cg2d: Sum(rhs),rhsMax =  -9.78117868817574E-14  1.45623592461838E-03
 cg2d: Sum(rhs),rhsMax =  -9.91633126523964E-14  1.47984366829164E-03
 cg2d: Sum(rhs),rhsMax =  -9.73068739300309E-14  1.47999773636661E-03
 cg2d: Sum(rhs),rhsMax =  -9.87019710754766E-14  1.45694146908397E-03
 cg2d: Sum(rhs),rhsMax =  -9.89963319653064E-14  1.41306457797554E-03
 cg2d: Sum(rhs),rhsMax =  -1.02944020495543E-13  1.34912818789911E-03
 cg2d: Sum(rhs),rhsMax =  -9.96425164601078E-14  1.26955725162481E-03
 cg2d: Sum(rhs),rhsMax =  -1.16412305142810E-13  1.17516992520600E-03
 cg2d: Sum(rhs),rhsMax =  -1.20277485887721E-13  1.08808365539696E-03
 cg2d: Sum(rhs),rhsMax =  -1.05021026597374E-13  1.20409595340760E-03
 cg2d: Sum(rhs),rhsMax =  -9.36223754771648E-14  1.30023413702097E-03
 cg2d: Sum(rhs),rhsMax =  -8.38383182322211E-14  1.36805486742907E-03
 cg2d: Sum(rhs),rhsMax =  -8.65783139625265E-14  1.41244455653400E-03
 cg2d: Sum(rhs),rhsMax =  -8.49676232150820E-14  1.42722749785101E-03
(PID.TID 0000.0001)      cg2d_init_res =   1.76600684290955E-01
(PID.TID 0000.0001)      cg2d_iters(min,last) =      -1      58
(PID.TID 0000.0001)      cg2d_last_res =   1.69510777179160E-19
(PID.TID 0000.0001) // =======================================================
(PID.TID 0000.0001) // Begin MONITOR dynamic field statistics
(PID.TID 0000.0001) // =======================================================
(PID.TID 0000.0001) %MON time_tsnumber                =                   272
(PID.TID 0000.0001) %MON time_secondsf                =   1.2240000000000E+05
(PID.TID 0000.0001) %MON dynstat_eta_max              =   1.1320290154208E-04
(PID.TID 0000.0001) %MON dynstat_eta_min              =  -2.2400238593921E-04
(PID.TID 0000.0001) %MON dynstat_eta_mean             =   4.5296007707467E-16
(PID.TID 0000.0001) %MON dynstat_eta_sd               =   7.2706080034324E-05
(PID.TID 0000.0001) %MON dynstat_eta_del2             =   5.8591628509781E-06
(PID.TID 0000.0001) %MON dynstat_uvel_max             =   7.3980238215257E-02
(PID.TID 0000.0001) %MON dynstat_uvel_min             =  -3.8766156952909E-02
(PID.TID 0000.0001) %MON dynstat_uvel_mean            =   1.9266094431081E-08
(PID.TID 0000.0001) %MON dynstat_uvel_sd              =   1.2127832340048E-02
(PID.TID 0000.0001) %MON dynstat_uvel_del2            =   3.3809183058684E-04
(PID.TID 0000.0001) %MON dynstat_vvel_max             =   0.0000000000000E+00
(PID.TID 0000.0001) %MON dynstat_vvel_min             =   0.0000000000000E+00
(PID.TID 0000.0001) %MON dynstat_vvel_mean            =   0.0000000000000E+00
(PID.TID 0000.0001) %MON dynstat_vvel_sd              =   0.0000000000000E+00
(PID.TID 0000.0001) %MON dynstat_vvel_del2            =   0.0000000000000E+00
(PID.TID 0000.0001) %MON dynstat_wvel_max             =   6.4571377732636E-03
(PID.TID 0000.0001) %MON dynstat_wvel_min             =  -5.2388231734800E-03
(PID.TID 0000.0001) %MON dynstat_wvel_mean            =   1.5224080174701E-04
(PID.TID 0000.0001) %MON dynstat_wvel_sd              =   1.7325153683106E-03
(PID.TID 0000.0001) %MON dynstat_wvel_del2            =   6.4610155337024E-05
(PID.TID 0000.0001) %MON dynstat_theta_max            =   4.9710739607076E-02
(PID.TID 0000.0001) %MON dynstat_theta_min            =  -4.9702611913741E-02
(PID.TID 0000.0001) %MON dynstat_theta_mean           =   1.5000645452652E-02
(PID.TID 0000.0001) %MON dynstat_theta_sd             =   2.8055748622912E-02
(PID.TID 0000.0001) %MON dynstat_theta_del2           =   1.7213732457382E-04
(PID.TID 0000.0001) %MON dynstat_salt_max             =   3.5000000000000E+01
(PID.TID 0000.0001) %MON dynstat_salt_min             =   3.5000000000000E+01
(PID.TID 0000.0001) %MON dynstat_salt_mean            =   3.5000000000000E+01
(PID.TID 0000.0001) %MON dynstat_salt_sd              =   3.4816594052245E-13
(PID.TID 0000.0001) %MON dynstat_salt_del2            =   2.6218552499998E-01
(PID.TID 0000.0001) %MON trAdv_CFL_u_max              =   9.4543954233237E-02
(PID.TID 0000.0001) %MON trAdv_CFL_v_max              =   0.0000000000000E+00
(PID.TID 0000.0001) %MON trAdv_CFL_w_max              =   2.9023772334760E-01
(PID.TID 0000.0001) %MON advcfl_uvel_max              =   1.5268853676758E-01
(PID.TID 0000.0001) %MON advcfl_vvel_max              =   0.0000000000000E+00
(PID.TID 0000.0001) %MON advcfl_wvel_max              =   2.9057119979686E-01
(PID.TID 0000.0001) %MON advcfl_W_hf_max              =   2.9057119979686E-01
(PID.TID 0000.0001) %MON pe_b_mean                    =   2.5613402968076E-10
(PID.TID 0000.0001) %MON ke_max                       =   1.3682689115965E-03
(PID.TID 0000.0001) %MON ke_mean                      =   7.1233723156944E-05
(PID.TID 0000.0001) %MON ke_vol                       =   6.4007813759742E+09
(PID.TID 0000.0001) %MON vort_r_min                   =   0.0000000000000E+00
(PID.TID 0000.0001) %MON vort_r_max                   =   0.0000000000000E+00
(PID.TID 0000.0001) %MON vort_a_mean                  =   0.0000000000000E+00
(PID.TID 0000.0001) %MON vort_a_sd                    =   0.0000000000000E+00
(PID.TID 0000.0001) %MON vort_p_mean                  =   0.0000000000000E+00
(PID.TID 0000.0001) %MON vort_p_sd                    =   0.0000000000000E+00
(PID.TID 0000.0001) %MON surfExpan_theta_mean         =   2.0463522774603E-12
(PID.TID 0000.0001) %MON surfExpan_salt_mean          =  -9.0168790821833E-19
(PID.TID 0000.0001) // =======================================================
(PID.TID 0000.0001) // End MONITOR dynamic field statistics
(PID.TID 0000.0001) // =======================================================
(PID.TID 0000.0001) // =======================================================
(PID.TID 0000.0001) // Begin OBCS MONITOR field statistics
(PID.TID 0000.0001) // =======================================================
(PID.TID 0000.0001) %MON obc_W_uVel_max               =   2.3212279782014E-02
(PID.TID 0000.0001) %MON obc_W_uVel_min               =  -2.3212279782014E-02
(PID.TID 0000.0001) %MON obc_W_uVel_mean              =  -2.0463630789891E-18
(PID.TID 0000.0001) %MON obc_W_uVel_sd                =   1.6464314427354E-02
(PID.TID 0000.0001) %MON obc_W_uVel_Int               =  -2.0463630789891E-12
(PID.TID 0000.0001) // =======================================================
(PID.TID 0000.0001) // End OBCS MONITOR field statistics
(PID.TID 0000.0001) // =======================================================
 cg2d: Sum(rhs),rhsMax =  -8.87319731579517E-14  1.41983309612544E-03
 cg2d: Sum(rhs),rhsMax =  -8.71074046226994E-14  1.38622574950845E-03
 cg2d: Sum(rhs),rhsMax =  -8.62599922046847E-14  1.33561784663207E-03
 cg2d: Sum(rhs),rhsMax =  -8.50439510480250E-14  1.26520945804784E-03
 cg2d: Sum(rhs),rhsMax =  -8.94718327204558E-14  1.18480115559367E-03
 cg2d: Sum(rhs),rhsMax =  -1.03948100127482E-13  1.09187786965074E-03
 cg2d: Sum(rhs),rhsMax =  -1.18086096456693E-13  9.95867216630954E-04
 cg2d: Sum(rhs),rhsMax =  -1.20403687020598E-13  9.18420898229433E-04
 cg2d: Sum(rhs),rhsMax =  -9.94690441125101E-14  1.02364473167069E-03
 cg2d: Sum(rhs),rhsMax =  -8.71542421565508E-14  1.10604326657699E-03
 cg2d: Sum(rhs),rhsMax =  -8.24132428967062E-14  1.16132075710515E-03
 cg2d: Sum(rhs),rhsMax =  -7.61717078301416E-14  1.19603332751637E-03
 cg2d: Sum(rhs),rhsMax =  -7.90617571411190E-14  1.20100882896443E-03
 cg2d: Sum(rhs),rhsMax =  -8.10497502445884E-14  1.17331732617853E-03
 cg2d: Sum(rhs),rhsMax =  -8.58618731669480E-14  1.16219305467821E-03
 cg2d: Sum(rhs),rhsMax =  -8.79990524893515E-14  1.12871150960846E-03
(PID.TID 0000.0001)      cg2d_init_res =   2.54985648390651E-01
(PID.TID 0000.0001)      cg2d_iters(min,last) =      -1      58
(PID.TID 0000.0001)      cg2d_last_res =   4.45285656459030E-20
(PID.TID 0000.0001) // =======================================================
(PID.TID 0000.0001) // Begin MONITOR dynamic field statistics
(PID.TID 0000.0001) // =======================================================
(PID.TID 0000.0001) %MON time_tsnumber                =                   288
(PID.TID 0000.0001) %MON time_secondsf                =   1.2960000000000E+05
(PID.TID 0000.0001) %MON dynstat_eta_max              =   1.2069958819709E-04
(PID.TID 0000.0001) %MON dynstat_eta_min              =  -2.1672352493496E-04
(PID.TID 0000.0001) %MON dynstat_eta_mean             =   3.7374870067726E-16
(PID.TID 0000.0001) %MON dynstat_eta_sd               =   7.4489935572617E-05
(PID.TID 0000.0001) %MON dynstat_eta_del2             =   5.7800828890455E-06
(PID.TID 0000.0001) %MON dynstat_uvel_max             =   1.1075628490303E-01
(PID.TID 0000.0001) %MON dynstat_uvel_min             =  -4.0367628254305E-02
(PID.TID 0000.0001) %MON dynstat_uvel_mean            =  -1.1148899931487E-08
(PID.TID 0000.0001) %MON dynstat_uvel_sd              =   1.2555285522186E-02
(PID.TID 0000.0001) %MON dynstat_uvel_del2            =   3.6283335662914E-04
(PID.TID 0000.0001) %MON dynstat_vvel_max             =   0.0000000000000E+00
(PID.TID 0000.0001) %MON dynstat_vvel_min             =   0.0000000000000E+00
(PID.TID 0000.0001) %MON dynstat_vvel_mean            =   0.0000000000000E+00
(PID.TID 0000.0001) %MON dynstat_vvel_sd              =   0.0000000000000E+00
(PID.TID 0000.0001) %MON dynstat_vvel_del2            =   0.0000000000000E+00
(PID.TID 0000.0001) %MON dynstat_wvel_max             =   6.0724493930150E-03
(PID.TID 0000.0001) %MON dynstat_wvel_min             =  -4.6700257941029E-03
(PID.TID 0000.0001) %MON dynstat_wvel_mean            =   8.3219514303388E-05
(PID.TID 0000.0001) %MON dynstat_wvel_sd              =   1.7366571565645E-03
(PID.TID 0000.0001) %MON dynstat_wvel_del2            =   7.4301333231808E-05
(PID.TID 0000.0001) %MON dynstat_theta_max            =   4.9735546062153E-02
(PID.TID 0000.0001) %MON dynstat_theta_min            =  -4.9170455686336E-02
(PID.TID 0000.0001) %MON dynstat_theta_mean           =   1.4545263181739E-02
(PID.TID 0000.0001) %MON dynstat_theta_sd             =   2.8349190304153E-02
(PID.TID 0000.0001) %MON dynstat_theta_del2           =   1.8806171711662E-04
(PID.TID 0000.0001) %MON dynstat_salt_max             =   3.5000000000000E+01
(PID.TID 0000.0001) %MON dynstat_salt_min             =   3.5000000000000E+01
(PID.TID 0000.0001) %MON dynstat_salt_mean            =   3.5000000000000E+01
(PID.TID 0000.0001) %MON dynstat_salt_sd              =   3.5527136788005E-13
(PID.TID 0000.0001) %MON dynstat_salt_del2            =   2.6218552499998E-01
(PID.TID 0000.0001) %MON trAdv_CFL_u_max              =   1.3398522160785E-01
(PID.TID 0000.0001) %MON trAdv_CFL_v_max              =   0.0000000000000E+00
(PID.TID 0000.0001) %MON trAdv_CFL_w_max              =   2.8839189863471E-01
(PID.TID 0000.0001) %MON advcfl_uvel_max              =   2.2859097899159E-01
(PID.TID 0000.0001) %MON advcfl_vvel_max              =   0.0000000000000E+00
(PID.TID 0000.0001) %MON advcfl_wvel_max              =   2.7326022268568E-01
(PID.TID 0000.0001) %MON advcfl_W_hf_max              =   2.7326022268568E-01
(PID.TID 0000.0001) %MON pe_b_mean                    =   2.6885679619838E-10
(PID.TID 0000.0001) %MON ke_max                       =   3.0667386613801E-03
(PID.TID 0000.0001) %MON ke_mean                      =   7.8127816707482E-05
(PID.TID 0000.0001) %MON ke_vol                       =   6.4007813759742E+09
(PID.TID 0000.0001) %MON vort_r_min                   =   0.0000000000000E+00
(PID.TID 0000.0001) %MON vort_r_max                   =   0.0000000000000E+00
(PID.TID 0000.0001) %MON vort_a_mean                  =   0.0000000000000E+00
(PID.TID 0000.0001) %MON vort_a_sd                    =   0.0000000000000E+00
(PID.TID 0000.0001) %MON vort_p_mean                  =   0.0000000000000E+00
(PID.TID 0000.0001) %MON vort_p_sd                    =   0.0000000000000E+00
(PID.TID 0000.0001) %MON surfExpan_theta_mean         =  -6.5752414558732E-12
(PID.TID 0000.0001) %MON surfExpan_salt_mean          =  -1.1509501040991E-18
(PID.TID 0000.0001) // =======================================================
(PID.TID 0000.0001) // End MONITOR dynamic field statistics
(PID.TID 0000.0001) // =======================================================
(PID.TID 0000.0001) // =======================================================
(PID.TID 0000.0001) // Begin OBCS MONITOR field statistics
(PID.TID 0000.0001) // =======================================================
(PID.TID 0000.0001) %MON obc_W_uVel_max               =   1.2688547532373E-02
(PID.TID 0000.0001) %MON obc_W_uVel_min               =  -1.2688547532373E-02
(PID.TID 0000.0001) %MON obc_W_uVel_mean              =  -5.6843418860808E-19
(PID.TID 0000.0001) %MON obc_W_uVel_sd                =   8.9999016969149E-03
(PID.TID 0000.0001) %MON obc_W_uVel_Int               =  -5.6843418860808E-13
(PID.TID 0000.0001) // =======================================================
(PID.TID 0000.0001) // End OBCS MONITOR field statistics
(PID.TID 0000.0001) // =======================================================
 cg2d: Sum(rhs),rhsMax =  -9.67073643387550E-14  1.09690785017212E-03
 cg2d: Sum(rhs),rhsMax =  -9.17182996218457E-14  1.03824211590594E-03
 cg2d: Sum(rhs),rhsMax =  -9.22040221951193E-14  1.10428344090092E-03
 cg2d: Sum(rhs),rhsMax =  -8.57994231218129E-14  1.18987103085896E-03
 cg2d: Sum(rhs),rhsMax =  -7.74449948615086E-14  1.24717912261054E-03
 cg2d: Sum(rhs),rhsMax =  -7.30110416569119E-14  1.29448054972278E-03
 cg2d: Sum(rhs),rhsMax =  -7.89437959447525E-14  1.31089632551896E-03
 cg2d: Sum(rhs),rhsMax =  -7.37153393881584E-14  1.31668091834221E-03
 cg2d: Sum(rhs),rhsMax =  -7.62445662161326E-14  1.29227998950568E-03
 cg2d: Sum(rhs),rhsMax =  -7.81770481683708E-14  1.25976739805119E-03
 cg2d: Sum(rhs),rhsMax =  -8.48418557630737E-14  1.20077443204894E-03
 cg2d: Sum(rhs),rhsMax =  -9.72555369571637E-14  1.13885229499256E-03
(PID.TID 0000.0001) %CHECKPOINT       300 ckptA
(PID.TID 0000.0001)   Seconds in section "ALL                    [THE_MODEL_MAIN]":
(PID.TID 0000.0001)           User time:   10.653381248936057
(PID.TID 0000.0001)         System time:  2.39959994796663523E-002
(PID.TID 0000.0001)     Wall clock time:   10.749572992324829
(PID.TID 0000.0001)          No. starts:           1
(PID.TID 0000.0001)           No. stops:           1
(PID.TID 0000.0001)   Seconds in section "INITIALISE_FIXED       [THE_MODEL_MAIN]":
(PID.TID 0000.0001)           User time:  2.59959995746612549E-002
(PID.TID 0000.0001)         System time:  5.99900004453957081E-003
(PID.TID 0000.0001)     Wall clock time:  5.95929622650146484E-002
(PID.TID 0000.0001)          No. starts:           1
(PID.TID 0000.0001)           No. stops:           1
(PID.TID 0000.0001)   Seconds in section "THE_MAIN_LOOP          [THE_MODEL_MAIN]":
(PID.TID 0000.0001)           User time:   10.627385249361396
(PID.TID 0000.0001)         System time:  1.79969994351267815E-002
(PID.TID 0000.0001)     Wall clock time:   10.689938068389893
(PID.TID 0000.0001)          No. starts:           1
(PID.TID 0000.0001)           No. stops:           1
(PID.TID 0000.0001)   Seconds in section "INITIALISE_VARIA    [THE_MAIN_LOOP]":
(PID.TID 0000.0001)           User time:  9.99900139868259430E-003
(PID.TID 0000.0001)         System time:  2.00000032782554626E-003
(PID.TID 0000.0001)     Wall clock time:  1.18570327758789063E-002
(PID.TID 0000.0001)          No. starts:           1
(PID.TID 0000.0001)           No. stops:           1
(PID.TID 0000.0001)   Seconds in section "MAIN LOOP           [THE_MAIN_LOOP]":
(PID.TID 0000.0001)           User time:   10.617386247962713
(PID.TID 0000.0001)         System time:  1.59969991073012352E-002
(PID.TID 0000.0001)     Wall clock time:   10.678052902221680
(PID.TID 0000.0001)          No. starts:           1
(PID.TID 0000.0001)           No. stops:           1
(PID.TID 0000.0001)   Seconds in section "MAIN_DO_LOOP        [THE_MAIN_LOOP]":
(PID.TID 0000.0001)           User time:   10.615387346595526
(PID.TID 0000.0001)         System time:  1.59969991073012352E-002
(PID.TID 0000.0001)     Wall clock time:   10.675451993942261
(PID.TID 0000.0001)          No. starts:         300
(PID.TID 0000.0001)           No. stops:         300
(PID.TID 0000.0001)   Seconds in section "FORWARD_STEP        [MAIN_DO_LOOP]":
(PID.TID 0000.0001)           User time:   10.612388040870428
(PID.TID 0000.0001)         System time:  1.59969991073012352E-002
(PID.TID 0000.0001)     Wall clock time:   10.670230150222778
(PID.TID 0000.0001)          No. starts:         300
(PID.TID 0000.0001)           No. stops:         300
(PID.TID 0000.0001)   Seconds in section "LOAD_FIELDS_DRIVER  [FORWARD_STEP]":
(PID.TID 0000.0001)           User time:  9.99847054481506348E-003
(PID.TID 0000.0001)         System time:   0.0000000000000000
(PID.TID 0000.0001)     Wall clock time:  7.88235664367675781E-003
(PID.TID 0000.0001)          No. starts:         300
(PID.TID 0000.0001)           No. stops:         300
(PID.TID 0000.0001)   Seconds in section "EXTERNAL_FLDS_LOAD [LOAD_FLDS_DRIVER]":
(PID.TID 0000.0001)           User time:  2.00080871582031250E-003
(PID.TID 0000.0001)         System time:   0.0000000000000000
(PID.TID 0000.0001)     Wall clock time:  2.63643264770507813E-003
(PID.TID 0000.0001)          No. starts:         300
(PID.TID 0000.0001)           No. stops:         300
(PID.TID 0000.0001)   Seconds in section "DO_ATMOSPHERIC_PHYS [FORWARD_STEP]":
(PID.TID 0000.0001)           User time:  4.99820709228515625E-003
(PID.TID 0000.0001)         System time:   0.0000000000000000
(PID.TID 0000.0001)     Wall clock time:  2.64191627502441406E-003
(PID.TID 0000.0001)          No. starts:         300
(PID.TID 0000.0001)           No. stops:         300
(PID.TID 0000.0001)   Seconds in section "DO_OCEANIC_PHYS     [FORWARD_STEP]":
(PID.TID 0000.0001)           User time:   1.0158488824963570
(PID.TID 0000.0001)         System time:  1.00000016391277313E-003
(PID.TID 0000.0001)     Wall clock time:   1.0346491336822510
(PID.TID 0000.0001)          No. starts:         300
(PID.TID 0000.0001)           No. stops:         300
(PID.TID 0000.0001)   Seconds in section "THERMODYNAMICS      [FORWARD_STEP]":
(PID.TID 0000.0001)           User time:   2.2396545149385929
(PID.TID 0000.0001)         System time:  9.99999232590198517E-004
(PID.TID 0000.0001)     Wall clock time:   2.2378873825073242
(PID.TID 0000.0001)          No. starts:         300
(PID.TID 0000.0001)           No. stops:         300
(PID.TID 0000.0001)   Seconds in section "DYNAMICS            [FORWARD_STEP]":
(PID.TID 0000.0001)           User time:   4.9522400349378586
(PID.TID 0000.0001)         System time:  1.00000016391277313E-003
(PID.TID 0000.0001)     Wall clock time:   4.9756848812103271
(PID.TID 0000.0001)          No. starts:         300
(PID.TID 0000.0001)           No. stops:         300
(PID.TID 0000.0001)   Seconds in section "UPDATE_SURF_DR      [FORWARD_STEP]":
(PID.TID 0000.0001)           User time:  1.59969329833984375E-002
(PID.TID 0000.0001)         System time:  1.00000016391277313E-003
(PID.TID 0000.0001)     Wall clock time:  1.69064998626708984E-002
(PID.TID 0000.0001)          No. starts:         300
(PID.TID 0000.0001)           No. stops:         300
(PID.TID 0000.0001)   Seconds in section "UPDATE_CG2D         [FORWARD_STEP]":
(PID.TID 0000.0001)           User time:  0.10399264097213745
(PID.TID 0000.0001)         System time:   0.0000000000000000
(PID.TID 0000.0001)     Wall clock time:  9.63442325592041016E-002
(PID.TID 0000.0001)          No. starts:         300
(PID.TID 0000.0001)           No. stops:         300
(PID.TID 0000.0001)   Seconds in section "SOLVE_FOR_PRESSURE  [FORWARD_STEP]":
(PID.TID 0000.0001)           User time:  0.95485260337591171
(PID.TID 0000.0001)         System time:   0.0000000000000000
(PID.TID 0000.0001)     Wall clock time:  0.96242499351501465
(PID.TID 0000.0001)          No. starts:         300
(PID.TID 0000.0001)           No. stops:         300
(PID.TID 0000.0001)   Seconds in section "MOM_CORRECTION_STEP [FORWARD_STEP]":
(PID.TID 0000.0001)           User time:  0.32095477730035782
(PID.TID 0000.0001)         System time:   0.0000000000000000
(PID.TID 0000.0001)     Wall clock time:  0.32089352607727051
(PID.TID 0000.0001)          No. starts:         300
(PID.TID 0000.0001)           No. stops:         300
(PID.TID 0000.0001)   Seconds in section "INTEGR_CONTINUITY   [FORWARD_STEP]":
(PID.TID 0000.0001)           User time:  0.23496073484420776
(PID.TID 0000.0001)         System time:   0.0000000000000000
(PID.TID 0000.0001)     Wall clock time:  0.23224067687988281
(PID.TID 0000.0001)          No. starts:         300
(PID.TID 0000.0001)           No. stops:         300
(PID.TID 0000.0001)   Seconds in section "CALC_SURF_DR      [FORWARD_STEP]":
(PID.TID 0000.0001)           User time:  3.79893779754638672E-002
(PID.TID 0000.0001)         System time:   0.0000000000000000
(PID.TID 0000.0001)     Wall clock time:  4.09367084503173828E-002
(PID.TID 0000.0001)          No. starts:         300
(PID.TID 0000.0001)           No. stops:         300
(PID.TID 0000.0001)   Seconds in section "TRC_CORRECTION_STEP [FORWARD_STEP]":
(PID.TID 0000.0001)           User time:  9.99927520751953125E-004
(PID.TID 0000.0001)         System time:   0.0000000000000000
(PID.TID 0000.0001)     Wall clock time:  2.78019905090332031E-003
(PID.TID 0000.0001)          No. starts:         300
(PID.TID 0000.0001)           No. stops:         300
(PID.TID 0000.0001)   Seconds in section "BLOCKING_EXCHANGES  [FORWARD_STEP]":
(PID.TID 0000.0001)           User time:  0.59692177176475525
(PID.TID 0000.0001)         System time:  9.98999923467636108E-004
(PID.TID 0000.0001)     Wall clock time:  0.59668302536010742
(PID.TID 0000.0001)          No. starts:         300
(PID.TID 0000.0001)           No. stops:         300
(PID.TID 0000.0001)   Seconds in section "DO_STATEVARS_TAVE   [FORWARD_STEP]":
(PID.TID 0000.0001)           User time:  6.00051879882812500E-003
(PID.TID 0000.0001)         System time:   0.0000000000000000
(PID.TID 0000.0001)     Wall clock time:  2.78472900390625000E-003
(PID.TID 0000.0001)          No. starts:         300
(PID.TID 0000.0001)           No. stops:         300
(PID.TID 0000.0001)   Seconds in section "MONITOR             [FORWARD_STEP]":
(PID.TID 0000.0001)           User time:  4.09901738166809082E-002
(PID.TID 0000.0001)         System time:   0.0000000000000000
(PID.TID 0000.0001)     Wall clock time:  4.49998378753662109E-002
(PID.TID 0000.0001)          No. starts:         300
(PID.TID 0000.0001)           No. stops:         300
(PID.TID 0000.0001)   Seconds in section "DO_THE_MODEL_IO     [FORWARD_STEP]":
(PID.TID 0000.0001)           User time:  3.59937548637390137E-002
(PID.TID 0000.0001)         System time:  3.99900041520595551E-003
(PID.TID 0000.0001)     Wall clock time:  4.08828258514404297E-002
(PID.TID 0000.0001)          No. starts:         300
(PID.TID 0000.0001)           No. stops:         300
(PID.TID 0000.0001)   Seconds in section "DO_WRITE_PICKUP     [FORWARD_STEP]":
(PID.TID 0000.0001)           User time:  3.99875640869140625E-003
(PID.TID 0000.0001)         System time:  1.00000016391277313E-003
(PID.TID 0000.0001)     Wall clock time:  4.05859947204589844E-003
(PID.TID 0000.0001)          No. starts:         300
(PID.TID 0000.0001)           No. stops:         300
(PID.TID 0000.0001) // ======================================================
(PID.TID 0000.0001) // Tile <-> Tile communication statistics
(PID.TID 0000.0001) // ======================================================
(PID.TID 0000.0001) // o Tile number: 000001
(PID.TID 0000.0001) //         No. X exchanges =              0
(PID.TID 0000.0001) //            Max. X spins =              0
(PID.TID 0000.0001) //            Min. X spins =     1000000000
(PID.TID 0000.0001) //          Total. X spins =              0
(PID.TID 0000.0001) //            Avg. X spins =       0.00E+00
(PID.TID 0000.0001) //         No. Y exchanges =              0
(PID.TID 0000.0001) //            Max. Y spins =              0
(PID.TID 0000.0001) //            Min. Y spins =     1000000000
(PID.TID 0000.0001) //          Total. Y spins =              0
(PID.TID 0000.0001) //            Avg. Y spins =       0.00E+00
(PID.TID 0000.0001) // o Tile number: 000002
(PID.TID 0000.0001) //         No. X exchanges =              0
(PID.TID 0000.0001) //            Max. X spins =              0
(PID.TID 0000.0001) //            Min. X spins =     1000000000
(PID.TID 0000.0001) //          Total. X spins =              0
(PID.TID 0000.0001) //            Avg. X spins =       0.00E+00
(PID.TID 0000.0001) //         No. Y exchanges =              0
(PID.TID 0000.0001) //            Max. Y spins =              0
(PID.TID 0000.0001) //            Min. Y spins =     1000000000
(PID.TID 0000.0001) //          Total. Y spins =              0
(PID.TID 0000.0001) //            Avg. Y spins =       0.00E+00
(PID.TID 0000.0001) // o Thread number: 000001
(PID.TID 0000.0001) //            No. barriers =         110416
(PID.TID 0000.0001) //      Max. barrier spins =              1
(PID.TID 0000.0001) //      Min. barrier spins =              1
(PID.TID 0000.0001) //     Total barrier spins =         110416
(PID.TID 0000.0001) //      Avg. barrier spins =       1.00E+00
PROGRAM MAIN: Execution ended Normally
