(PID.TID 0000.0001) 
(PID.TID 0000.0001) // ======================================================
(PID.TID 0000.0001) //                      MITgcm UV
(PID.TID 0000.0001) //                      =========
(PID.TID 0000.0001) // ======================================================
(PID.TID 0000.0001) // execution environment starting up...
(PID.TID 0000.0001) 
(PID.TID 0000.0001) // MITgcmUV version:  checkpoint67e
(PID.TID 0000.0001) // Build user:        jmc
(PID.TID 0000.0001) // Build host:        baudelaire
(PID.TID 0000.0001) // Build date:        Tue Nov 27 13:58:15 EST 2018
(PID.TID 0000.0001) 
(PID.TID 0000.0001) // =======================================================
(PID.TID 0000.0001) // Execution Environment parameter file "eedata"
(PID.TID 0000.0001) // =======================================================
(PID.TID 0000.0001) ># Example "eedata" file
(PID.TID 0000.0001) ># Lines beginning "#" are comments
(PID.TID 0000.0001) >#  nTx      :: No. threads per process in X
(PID.TID 0000.0001) >#  nTy      :: No. threads per process in Y
(PID.TID 0000.0001) ># debugMode :: print debug msg (sequence of S/R calls)
(PID.TID 0000.0001) > &EEPARMS
(PID.TID 0000.0001) > nTx=1,
(PID.TID 0000.0001) > nTy=1,
(PID.TID 0000.0001) > /
(PID.TID 0000.0001) ># Note: Some systems use & as the namelist terminator (as shown here).
(PID.TID 0000.0001) >#       Other systems use a / character.
(PID.TID 0000.0001) 
(PID.TID 0000.0001) // =======================================================
(PID.TID 0000.0001) // Computational Grid Specification ( see files "SIZE.h" )
(PID.TID 0000.0001) //                                  ( and "eedata"       )
(PID.TID 0000.0001) // =======================================================
(PID.TID 0000.0001)      nPx =    1 ; /* No. processes in X */
(PID.TID 0000.0001)      nPy =    1 ; /* No. processes in Y */
(PID.TID 0000.0001)      nSx =    1 ; /* No. tiles in X per process */
(PID.TID 0000.0001)      nSy =    1 ; /* No. tiles in Y per process */
(PID.TID 0000.0001)      sNx =   62 ; /* Tile size in X */
(PID.TID 0000.0001)      sNy =   62 ; /* Tile size in Y */
(PID.TID 0000.0001)      OLx =    2 ; /* Tile overlap distance in X */
(PID.TID 0000.0001)      OLy =    2 ; /* Tile overlap distance in Y */
(PID.TID 0000.0001)      nTx =    1 ; /* No. threads in X per process */
(PID.TID 0000.0001)      nTy =    1 ; /* No. threads in Y per process */
(PID.TID 0000.0001)       Nr =    1 ; /* No. levels in the vertical   */
(PID.TID 0000.0001)       Nx =   62 ; /* Total domain size in X ( = nPx*nSx*sNx ) */
(PID.TID 0000.0001)       Ny =   62 ; /* Total domain size in Y ( = nPy*nSy*sNy ) */
(PID.TID 0000.0001)   nTiles =    1 ; /* Total no. tiles per process ( = nSx*nSy ) */
(PID.TID 0000.0001)   nProcs =    1 ; /* Total no. processes ( = nPx*nPy ) */
(PID.TID 0000.0001) nThreads =    1 ; /* Total no. threads per process ( = nTx*nTy ) */
(PID.TID 0000.0001) usingMPI =    F ; /* Flag used to control whether MPI is in use */
(PID.TID 0000.0001)                   /*  note: To execute a program with MPI calls */
(PID.TID 0000.0001)                   /*  it must be launched appropriately e.g     */
(PID.TID 0000.0001)                   /*  "mpirun -np 64 ......"                    */
(PID.TID 0000.0001) useCoupler=    F ;/* Flag used to control communications with   */
(PID.TID 0000.0001)                   /*  other model components, through a coupler */
(PID.TID 0000.0001) debugMode =    F ; /* print debug msg. (sequence of S/R calls)  */
(PID.TID 0000.0001) printMapIncludesZeros=    F ; /* print zeros in Std.Output maps */
(PID.TID 0000.0001) maxLengthPrt1D=   65 /* maxLength of 1D array printed to StdOut */
(PID.TID 0000.0001) 
(PID.TID 0000.0001) // ======================================================
(PID.TID 0000.0001) // Mapping of tiles to threads
(PID.TID 0000.0001) // ======================================================
(PID.TID 0000.0001) // -o- Thread   1, tiles (   1:   1,   1:   1)
(PID.TID 0000.0001) 
(PID.TID 0000.0001) // ======================================================
(PID.TID 0000.0001) // Tile <-> Tile connectvity table
(PID.TID 0000.0001) // ======================================================
(PID.TID 0000.0001) // Tile number: 000001 (process no. = 000000)
(PID.TID 0000.0001) //        WEST: Tile = 000001, Process = 000000, Comm = put
(PID.TID 0000.0001) //                bi = 000001, bj = 000001
(PID.TID 0000.0001) //        EAST: Tile = 000001, Process = 000000, Comm = put
(PID.TID 0000.0001) //                bi = 000001, bj = 000001
(PID.TID 0000.0001) //       SOUTH: Tile = 000001, Process = 000000, Comm = put
(PID.TID 0000.0001) //                bi = 000001, bj = 000001
(PID.TID 0000.0001) //       NORTH: Tile = 000001, Process = 000000, Comm = put
(PID.TID 0000.0001) //                bi = 000001, bj = 000001
(PID.TID 0000.0001) 
(PID.TID 0000.0001)  INI_PARMS: opening model parameter file "data"
(PID.TID 0000.0001)  OPEN_COPY_DATA_FILE: opening file data
(PID.TID 0000.0001) // =======================================================
(PID.TID 0000.0001) // Parameter file "data"
(PID.TID 0000.0001) // =======================================================
(PID.TID 0000.0001) ># Model parameters
(PID.TID 0000.0001) ># Continuous equation parameters
(PID.TID 0000.0001) > &PARM01
(PID.TID 0000.0001) > viscAh=4.E2,
(PID.TID 0000.0001) > f0=1.E-4,
(PID.TID 0000.0001) > beta=1.E-11,
(PID.TID 0000.0001) > rhoNil=1000.,
(PID.TID 0000.0001) > gBaro=9.81,
(PID.TID 0000.0001) > rigidLid=.FALSE.,
(PID.TID 0000.0001) > implicitFreeSurface=.TRUE.,
(PID.TID 0000.0001) ># momAdvection=.FALSE.,
(PID.TID 0000.0001) > tempStepping=.FALSE.,
(PID.TID 0000.0001) > saltStepping=.FALSE.,
(PID.TID 0000.0001) > /
(PID.TID 0000.0001) >
(PID.TID 0000.0001) ># Elliptic solver parameters
(PID.TID 0000.0001) > &PARM02
(PID.TID 0000.0001) > cg2dTargetResidual=1.E-7,
(PID.TID 0000.0001) > cg2dMaxIters=1000,
(PID.TID 0000.0001) > /
(PID.TID 0000.0001) >
(PID.TID 0000.0001) ># Time stepping parameters
(PID.TID 0000.0001) > &PARM03
(PID.TID 0000.0001) > nIter0=0,
(PID.TID 0000.0001) > nTimeSteps=10,
(PID.TID 0000.0001) > deltaT=1200.0,
(PID.TID 0000.0001) > pChkptFreq=31536000.0,
(PID.TID 0000.0001) > chkptFreq=15552000.0,
(PID.TID 0000.0001) > dumpFreq= 15552000.0,
(PID.TID 0000.0001) > monitorSelect=2,
(PID.TID 0000.0001) > monitorFreq=1200.,
(PID.TID 0000.0001) >#- longer run (3.yr):
(PID.TID 0000.0001) ># nTimeSteps=77760,
(PID.TID 0000.0001) ># monitorFreq=864000.,
(PID.TID 0000.0001) > /
(PID.TID 0000.0001) >
(PID.TID 0000.0001) ># Gridding parameters
(PID.TID 0000.0001) > &PARM04
(PID.TID 0000.0001) > usingCartesianGrid=.TRUE.,
(PID.TID 0000.0001) > delX=62*20.E3,
(PID.TID 0000.0001) > delY=62*20.E3,
(PID.TID 0000.0001) > xgOrigin=-20.E3,
(PID.TID 0000.0001) > ygOrigin=-20.E3,
(PID.TID 0000.0001) > delR=5000.,
(PID.TID 0000.0001) > /
(PID.TID 0000.0001) >
(PID.TID 0000.0001) ># Input datasets
(PID.TID 0000.0001) > &PARM05
(PID.TID 0000.0001) > bathyFile='bathy.bin'
(PID.TID 0000.0001) > zonalWindFile='windx_cosy.bin',
(PID.TID 0000.0001) >#zonalWindFile='windx_siny.bin',
(PID.TID 0000.0001) > meridWindFile=,
(PID.TID 0000.0001) > /
(PID.TID 0000.0001) 
(PID.TID 0000.0001)  INI_PARMS ; starts to read PARM01
(PID.TID 0000.0001)  INI_PARMS ; read PARM01 : OK
(PID.TID 0000.0001)  INI_PARMS ; starts to read PARM02
(PID.TID 0000.0001)  INI_PARMS ; read PARM02 : OK
(PID.TID 0000.0001)  INI_PARMS ; starts to read PARM03
(PID.TID 0000.0001)  INI_PARMS ; read PARM03 : OK
(PID.TID 0000.0001)  INI_PARMS ; starts to read PARM04
(PID.TID 0000.0001)  INI_PARMS ; read PARM04 : OK
(PID.TID 0000.0001)  INI_PARMS ; starts to read PARM05
(PID.TID 0000.0001)  INI_PARMS ; read PARM05 : OK
(PID.TID 0000.0001)  INI_PARMS: finished reading file "data"
(PID.TID 0000.0001)  PACKAGES_BOOT: opening data.pkg
(PID.TID 0000.0001)  OPEN_COPY_DATA_FILE: opening file data.pkg
(PID.TID 0000.0001) // =======================================================
(PID.TID 0000.0001) // Parameter file "data.pkg"
(PID.TID 0000.0001) // =======================================================
(PID.TID 0000.0001) ># Packages
(PID.TID 0000.0001) > &PACKAGES
(PID.TID 0000.0001) > /
(PID.TID 0000.0001) 
(PID.TID 0000.0001)  PACKAGES_BOOT: finished reading data.pkg
(PID.TID 0000.0001)  PACKAGES_BOOT: On/Off package Summary
 --------  pkgs with a standard "usePKG" On/Off switch in "data.pkg":  --------
 -------- pkgs without standard "usePKG" On/Off switch in "data.pkg":  --------
 pkg/generic_advdiff      compiled but not used ( useGAD                   = F )
 pkg/mom_common           compiled   and   used ( momStepping              = T )
 pkg/mom_vecinv           compiled but not used ( +vectorInvariantMomentum = F )
 pkg/mom_fluxform         compiled   and   used ( & not vectorInvariantMom = T )
 pkg/monitor              compiled   and   used ( monitorFreq > 0.         = T )
 pkg/debug                compiled but not used ( debugMode                = F )
 pkg/rw                   compiled   and   used
 pkg/mdsio                compiled   and   used
(PID.TID 0000.0001)  PACKAGES_BOOT: End of package Summary
(PID.TID 0000.0001) 
(PID.TID 0000.0001) SET_PARMS: done
(PID.TID 0000.0001) Enter INI_VERTICAL_GRID: setInterFDr=    T ; setCenterDr=    F
(PID.TID 0000.0001) %MON XC_max                       =   1.2100000000000E+06
(PID.TID 0000.0001) %MON XC_min                       =  -1.0000000000000E+04
(PID.TID 0000.0001) %MON XC_mean                      =   6.0000000000000E+05
(PID.TID 0000.0001) %MON XC_sd                        =   3.5791060336347E+05
(PID.TID 0000.0001) %MON XG_max                       =   1.2000000000000E+06
(PID.TID 0000.0001) %MON XG_min                       =  -2.0000000000000E+04
(PID.TID 0000.0001) %MON XG_mean                      =   5.9000000000000E+05
(PID.TID 0000.0001) %MON XG_sd                        =   3.5791060336347E+05
(PID.TID 0000.0001) %MON DXC_max                      =   2.0000000000000E+04
(PID.TID 0000.0001) %MON DXC_min                      =   2.0000000000000E+04
(PID.TID 0000.0001) %MON DXC_mean                     =   2.0000000000000E+04
(PID.TID 0000.0001) %MON DXC_sd                       =   3.6379788070917E-12
(PID.TID 0000.0001) %MON DXF_max                      =   2.0000000000000E+04
(PID.TID 0000.0001) %MON DXF_min                      =   2.0000000000000E+04
(PID.TID 0000.0001) %MON DXF_mean                     =   2.0000000000000E+04
(PID.TID 0000.0001) %MON DXF_sd                       =   3.6379788070917E-12
(PID.TID 0000.0001) %MON DXG_max                      =   2.0000000000000E+04
(PID.TID 0000.0001) %MON DXG_min                      =   2.0000000000000E+04
(PID.TID 0000.0001) %MON DXG_mean                     =   2.0000000000000E+04
(PID.TID 0000.0001) %MON DXG_sd                       =   3.6379788070917E-12
(PID.TID 0000.0001) %MON DXV_max                      =   2.0000000000000E+04
(PID.TID 0000.0001) %MON DXV_min                      =   2.0000000000000E+04
(PID.TID 0000.0001) %MON DXV_mean                     =   2.0000000000000E+04
(PID.TID 0000.0001) %MON DXV_sd                       =   3.6379788070917E-12
(PID.TID 0000.0001) %MON YC_max                       =   1.2100000000000E+06
(PID.TID 0000.0001) %MON YC_min                       =  -1.0000000000000E+04
(PID.TID 0000.0001) %MON YC_mean                      =   6.0000000000000E+05
(PID.TID 0000.0001) %MON YC_sd                        =   3.5791060336347E+05
(PID.TID 0000.0001) %MON YG_max                       =   1.2000000000000E+06
(PID.TID 0000.0001) %MON YG_min                       =  -2.0000000000000E+04
(PID.TID 0000.0001) %MON YG_mean                      =   5.9000000000000E+05
(PID.TID 0000.0001) %MON YG_sd                        =   3.5791060336347E+05
(PID.TID 0000.0001) %MON DYC_max                      =   2.0000000000000E+04
(PID.TID 0000.0001) %MON DYC_min                      =   2.0000000000000E+04
(PID.TID 0000.0001) %MON DYC_mean                     =   2.0000000000000E+04
(PID.TID 0000.0001) %MON DYC_sd                       =   3.6379788070917E-12
(PID.TID 0000.0001) %MON DYF_max                      =   2.0000000000000E+04
(PID.TID 0000.0001) %MON DYF_min                      =   2.0000000000000E+04
(PID.TID 0000.0001) %MON DYF_mean                     =   2.0000000000000E+04
(PID.TID 0000.0001) %MON DYF_sd                       =   3.6379788070917E-12
(PID.TID 0000.0001) %MON DYG_max                      =   2.0000000000000E+04
(PID.TID 0000.0001) %MON DYG_min                      =   2.0000000000000E+04
(PID.TID 0000.0001) %MON DYG_mean                     =   2.0000000000000E+04
(PID.TID 0000.0001) %MON DYG_sd                       =   3.6379788070917E-12
(PID.TID 0000.0001) %MON DYU_max                      =   2.0000000000000E+04
(PID.TID 0000.0001) %MON DYU_min                      =   2.0000000000000E+04
(PID.TID 0000.0001) %MON DYU_mean                     =   2.0000000000000E+04
(PID.TID 0000.0001) %MON DYU_sd                       =   3.6379788070917E-12
(PID.TID 0000.0001) %MON RA_max                       =   4.0000000000000E+08
(PID.TID 0000.0001) %MON RA_min                       =   4.0000000000000E+08
(PID.TID 0000.0001) %MON RA_mean                      =   4.0000000000000E+08
(PID.TID 0000.0001) %MON RA_sd                        =   5.9604644775391E-08
(PID.TID 0000.0001) %MON RAW_max                      =   4.0000000000000E+08
(PID.TID 0000.0001) %MON RAW_min                      =   4.0000000000000E+08
(PID.TID 0000.0001) %MON RAW_mean                     =   4.0000000000000E+08
(PID.TID 0000.0001) %MON RAW_sd                       =   5.9604644775391E-08
(PID.TID 0000.0001) %MON RAS_max                      =   4.0000000000000E+08
(PID.TID 0000.0001) %MON RAS_min                      =   4.0000000000000E+08
(PID.TID 0000.0001) %MON RAS_mean                     =   4.0000000000000E+08
(PID.TID 0000.0001) %MON RAS_sd                       =   5.9604644775391E-08
(PID.TID 0000.0001) %MON RAZ_max                      =   4.0000000000000E+08
(PID.TID 0000.0001) %MON RAZ_min                      =   4.0000000000000E+08
(PID.TID 0000.0001) %MON RAZ_mean                     =   4.0000000000000E+08
(PID.TID 0000.0001) %MON RAZ_sd                       =   5.9604644775391E-08
(PID.TID 0000.0001) %MON AngleCS_max                  =   1.0000000000000E+00
(PID.TID 0000.0001) %MON AngleCS_min                  =   1.0000000000000E+00
(PID.TID 0000.0001) %MON AngleCS_mean                 =   1.0000000000000E+00
(PID.TID 0000.0001) %MON AngleCS_sd                   =   0.0000000000000E+00
(PID.TID 0000.0001) %MON AngleSN_max                  =   0.0000000000000E+00
(PID.TID 0000.0001) %MON AngleSN_min                  =   0.0000000000000E+00
(PID.TID 0000.0001) %MON AngleSN_mean                 =   0.0000000000000E+00
(PID.TID 0000.0001) %MON AngleSN_sd                   =   0.0000000000000E+00
(PID.TID 0000.0001)  MDS_READ_FIELD: opening global file: bathy.bin
(PID.TID 0000.0001) // =======================================================
(PID.TID 0000.0001) // Field Model R_low (ini_masks_etc)
(PID.TID 0000.0001) // CMIN =         -5.000000000000000E+03
(PID.TID 0000.0001) // CMAX =         -5.000000000000000E+03
(PID.TID 0000.0001) // CINT =          0.000000000000000E+00
(PID.TID 0000.0001) // SYMBOLS (CMIN->CMAX): -abcdefghijklmnopqrstuvwxyz+
(PID.TID 0000.0001) //                  0.0: .
(PID.TID 0000.0001) // RANGE I (Lo:Hi:Step):(    -1:    64:     1)
(PID.TID 0000.0001) // RANGE J (Lo:Hi:Step):(    64:    -1:    -1)
(PID.TID 0000.0001) // RANGE K (Lo:Hi:Step):(   1:   1:   1)
(PID.TID 0000.0001) // =======================================================
(PID.TID 0000.0001) // =======================================================
(PID.TID 0000.0001) // END OF FIELD                                          =
(PID.TID 0000.0001) // =======================================================
(PID.TID 0000.0001) 
(PID.TID 0000.0001) // =======================================================
(PID.TID 0000.0001) // Field Model Ro_surf (ini_masks_etc)
(PID.TID 0000.0001) // CMIN =          1.000000000000000E+32
(PID.TID 0000.0001) // CMAX =         -1.000000000000000E+32
(PID.TID 0000.0001) // CINT =          0.000000000000000E+00
(PID.TID 0000.0001) // SYMBOLS (CMIN->CMAX): -abcdefghijklmnopqrstuvwxyz+
(PID.TID 0000.0001) //                  0.0: .
(PID.TID 0000.0001) // RANGE I (Lo:Hi:Step):(    -1:    64:     1)
(PID.TID 0000.0001) // RANGE J (Lo:Hi:Step):(    64:    -1:    -1)
(PID.TID 0000.0001) // RANGE K (Lo:Hi:Step):(   1:   1:   1)
(PID.TID 0000.0001) // =======================================================
(PID.TID 0000.0001) // =======================================================
(PID.TID 0000.0001) // END OF FIELD                                          =
(PID.TID 0000.0001) // =======================================================
(PID.TID 0000.0001) 
(PID.TID 0000.0001) // =======================================================
(PID.TID 0000.0001) // Field hFacC at iteration          0
(PID.TID 0000.0001) // CMIN =          1.000000000000000E+00
(PID.TID 0000.0001) // CMAX =          1.000000000000000E+00
(PID.TID 0000.0001) // CINT =          0.000000000000000E+00
(PID.TID 0000.0001) // SYMBOLS (CMIN->CMAX): -abcdefghijklmnopqrstuvwxyz+
(PID.TID 0000.0001) //                  0.0: .
(PID.TID 0000.0001) // RANGE I (Lo:Hi:Step):(    -1:    64:     1)
(PID.TID 0000.0001) // RANGE J (Lo:Hi:Step):(    64:    -1:    -1)
(PID.TID 0000.0001) // RANGE K (Lo:Hi:Step):(   1:   1:   1)
(PID.TID 0000.0001) // =======================================================
(PID.TID 0000.0001) // =======================================================
(PID.TID 0000.0001) // END OF FIELD                                          =
(PID.TID 0000.0001) // =======================================================
(PID.TID 0000.0001) 
(PID.TID 0000.0001) // =======================================================
(PID.TID 0000.0001) // Field hFacW at iteration          0
(PID.TID 0000.0001) // CMIN =          1.000000000000000E+00
(PID.TID 0000.0001) // CMAX =          1.000000000000000E+00
(PID.TID 0000.0001) // CINT =          0.000000000000000E+00
(PID.TID 0000.0001) // SYMBOLS (CMIN->CMAX): -abcdefghijklmnopqrstuvwxyz+
(PID.TID 0000.0001) //                  0.0: .
(PID.TID 0000.0001) // RANGE I (Lo:Hi:Step):(    -1:    64:     1)
(PID.TID 0000.0001) // RANGE J (Lo:Hi:Step):(    64:    -1:    -1)
(PID.TID 0000.0001) // RANGE K (Lo:Hi:Step):(   1:   1:   1)
(PID.TID 0000.0001) // =======================================================
(PID.TID 0000.0001) // =======================================================
(PID.TID 0000.0001) // END OF FIELD                                          =
(PID.TID 0000.0001) // =======================================================
(PID.TID 0000.0001) 
(PID.TID 0000.0001) // =======================================================
(PID.TID 0000.0001) // Field hFacS at iteration          0
(PID.TID 0000.0001) // CMIN =          1.000000000000000E+00
(PID.TID 0000.0001) // CMAX =          1.000000000000000E+00
(PID.TID 0000.0001) // CINT =          0.000000000000000E+00
(PID.TID 0000.0001) // SYMBOLS (CMIN->CMAX): -abcdefghijklmnopqrstuvwxyz+
(PID.TID 0000.0001) //                  0.0: .
(PID.TID 0000.0001) // RANGE I (Lo:Hi:Step):(    -1:    64:     1)
(PID.TID 0000.0001) // RANGE J (Lo:Hi:Step):(    64:    -1:    -1)
(PID.TID 0000.0001) // RANGE K (Lo:Hi:Step):(   1:   1:   1)
(PID.TID 0000.0001) // =======================================================
(PID.TID 0000.0001) // =======================================================
(PID.TID 0000.0001) // END OF FIELD                                          =
(PID.TID 0000.0001) // =======================================================
(PID.TID 0000.0001) 
(PID.TID 0000.0001) GAD_INIT_FIXED: GAD_OlMinSize=  0  0  1
(PID.TID 0000.0001) 
(PID.TID 0000.0001) // ===================================
(PID.TID 0000.0001) // GAD parameters :
(PID.TID 0000.0001) // ===================================
(PID.TID 0000.0001) tempAdvScheme =   /* Temp. Horiz.Advection scheme selector */
(PID.TID 0000.0001)                       2
(PID.TID 0000.0001)     ;
(PID.TID 0000.0001) tempVertAdvScheme =   /* Temp. Vert. Advection scheme selector */
(PID.TID 0000.0001)                       2
(PID.TID 0000.0001)     ;
(PID.TID 0000.0001) tempMultiDimAdvec =   /* use Muti-Dim Advec method for Temp */
(PID.TID 0000.0001)                   F
(PID.TID 0000.0001)     ;
(PID.TID 0000.0001) tempSOM_Advection = /* use 2nd Order Moment Advection for Temp */
(PID.TID 0000.0001)                   F
(PID.TID 0000.0001)     ;
(PID.TID 0000.0001) AdamsBashforthGt = /* apply Adams-Bashforth extrapolation on Gt */
(PID.TID 0000.0001)                   F
(PID.TID 0000.0001)     ;
(PID.TID 0000.0001) AdamsBashforth_T = /* apply Adams-Bashforth extrapolation on Temp */
(PID.TID 0000.0001)                   F
(PID.TID 0000.0001)     ;
(PID.TID 0000.0001) saltAdvScheme =   /* Salt. Horiz.advection scheme selector */
(PID.TID 0000.0001)                       2
(PID.TID 0000.0001)     ;
(PID.TID 0000.0001) saltVertAdvScheme =   /* Salt. Vert. Advection scheme selector */
(PID.TID 0000.0001)                       2
(PID.TID 0000.0001)     ;
(PID.TID 0000.0001) saltMultiDimAdvec =   /* use Muti-Dim Advec method for Salt */
(PID.TID 0000.0001)                   F
(PID.TID 0000.0001)     ;
(PID.TID 0000.0001) saltSOM_Advection = /* use 2nd Order Moment Advection for Salt */
(PID.TID 0000.0001)                   F
(PID.TID 0000.0001)     ;
(PID.TID 0000.0001) AdamsBashforthGs = /* apply Adams-Bashforth extrapolation on Gs */
(PID.TID 0000.0001)                   F
(PID.TID 0000.0001)     ;
(PID.TID 0000.0001) AdamsBashforth_S = /* apply Adams-Bashforth extrapolation on Salt */
(PID.TID 0000.0001)                   F
(PID.TID 0000.0001)     ;
(PID.TID 0000.0001) // ===================================
(PID.TID 0000.0001) %MON fCori_max                    =   1.1210000000000E-04
(PID.TID 0000.0001) %MON fCori_min                    =   9.9900000000000E-05
(PID.TID 0000.0001) %MON fCori_mean                   =   1.0600000000000E-04
(PID.TID 0000.0001) %MON fCori_sd                     =   3.5791060336346E-06
(PID.TID 0000.0001) %MON fCoriG_max                   =   1.1200000000000E-04
(PID.TID 0000.0001) %MON fCoriG_min                   =   9.9800000000000E-05
(PID.TID 0000.0001) %MON fCoriG_mean                  =   1.0590000000000E-04
(PID.TID 0000.0001) %MON fCoriG_sd                    =   3.5791060336346E-06
(PID.TID 0000.0001) %MON fCoriCos_max                 =   0.0000000000000E+00
(PID.TID 0000.0001) %MON fCoriCos_min                 =   0.0000000000000E+00
(PID.TID 0000.0001) %MON fCoriCos_mean                =   0.0000000000000E+00
(PID.TID 0000.0001) %MON fCoriCos_sd                  =   0.0000000000000E+00
(PID.TID 0000.0001) INI_CG2D: CG2D normalisation factor =  2.0000000000000001E-04
(PID.TID 0000.0001) 
(PID.TID 0000.0001) // =======================================================
(PID.TID 0000.0001) // Model configuration
(PID.TID 0000.0001) // =======================================================
(PID.TID 0000.0001) //
(PID.TID 0000.0001) // "Physical" paramters ( PARM01 in namelist )
(PID.TID 0000.0001) //
(PID.TID 0000.0001) buoyancyRelation = /* Type of relation to get Buoyancy */
(PID.TID 0000.0001)               'OCEANIC'
(PID.TID 0000.0001)     ;
(PID.TID 0000.0001) fluidIsAir   =  /* fluid major constituent is Air */
(PID.TID 0000.0001)                   F
(PID.TID 0000.0001)     ;
(PID.TID 0000.0001) fluidIsWater =  /* fluid major constituent is Water */
(PID.TID 0000.0001)                   T
(PID.TID 0000.0001)     ;
(PID.TID 0000.0001) usingPCoords =  /* use p (or p*) vertical coordinate */
(PID.TID 0000.0001)                   F
(PID.TID 0000.0001)     ;
(PID.TID 0000.0001) usingZCoords =  /* use z (or z*) vertical coordinate */
(PID.TID 0000.0001)                   T
(PID.TID 0000.0001)     ;
(PID.TID 0000.0001) tRef =   /* Reference temperature profile ( oC or K ) */
(PID.TID 0000.0001)                 2.000000000000000E+01       /* K =  1 */
(PID.TID 0000.0001)     ;
(PID.TID 0000.0001) sRef =   /* Reference salinity profile ( psu ) */
(PID.TID 0000.0001)                 3.000000000000000E+01       /* K =  1 */
(PID.TID 0000.0001)     ;
(PID.TID 0000.0001) useStrainTensionVisc= /* Use StrainTension Form of Viscous Operator */
(PID.TID 0000.0001)                   F
(PID.TID 0000.0001)     ;
(PID.TID 0000.0001) useVariableVisc = /* Use variable horizontal viscosity */
(PID.TID 0000.0001)                   F
(PID.TID 0000.0001)     ;
(PID.TID 0000.0001) useHarmonicVisc = /* Use harmonic horizontal viscosity */
(PID.TID 0000.0001)                   T
(PID.TID 0000.0001)     ;
(PID.TID 0000.0001) useBiharmonicVisc= /* Use biharmonic horiz.  viscosity */
(PID.TID 0000.0001)                   F
(PID.TID 0000.0001)     ;
(PID.TID 0000.0001) useSmag3D = /* Use isotropic 3-D Smagorinsky viscosity */
(PID.TID 0000.0001)                   F
(PID.TID 0000.0001)     ;
(PID.TID 0000.0001) viscAh  =   /* Lateral harmonic viscosity ( m^2/s ) */
(PID.TID 0000.0001)                 4.000000000000000E+02
(PID.TID 0000.0001)     ;
(PID.TID 0000.0001) viscA4  =   /* Lateral biharmonic viscosity ( m^4/s ) */
(PID.TID 0000.0001)                 0.000000000000000E+00
(PID.TID 0000.0001)     ;
(PID.TID 0000.0001) no_slip_sides =  /* Viscous BCs: No-slip sides */
(PID.TID 0000.0001)                   T
(PID.TID 0000.0001)     ;
(PID.TID 0000.0001) sideDragFactor = /* side-drag scaling factor (non-dim) */
(PID.TID 0000.0001)                 2.000000000000000E+00
(PID.TID 0000.0001)     ;
(PID.TID 0000.0001) viscArNr = /* vertical profile of vertical viscosity ( m^2/s )*/
(PID.TID 0000.0001)                 0.000000000000000E+00       /* K =  1 */
(PID.TID 0000.0001)     ;
(PID.TID 0000.0001) no_slip_bottom =  /* Viscous BCs: No-slip bottom */
(PID.TID 0000.0001)                   T
(PID.TID 0000.0001)     ;
(PID.TID 0000.0001) bottomVisc_pCell = /* Partial-cell in bottom Visc. BC */
(PID.TID 0000.0001)                   F
(PID.TID 0000.0001)     ;
(PID.TID 0000.0001) bottomDragLinear = /* linear bottom-drag coefficient ( m/s ) */
(PID.TID 0000.0001)                 0.000000000000000E+00
(PID.TID 0000.0001)     ;
(PID.TID 0000.0001) bottomDragQuadratic = /* quadratic bottom-drag coefficient (-) */
(PID.TID 0000.0001)                 0.000000000000000E+00
(PID.TID 0000.0001)     ;
(PID.TID 0000.0001) selectBotDragQuadr = /* select quadratic bottom drag options */
(PID.TID 0000.0001)                      -1
(PID.TID 0000.0001)     ;
(PID.TID 0000.0001) diffKhT =   /* Laplacian diffusion of heat laterally ( m^2/s ) */
(PID.TID 0000.0001)                 0.000000000000000E+00
(PID.TID 0000.0001)     ;
(PID.TID 0000.0001) diffK4T =   /* Biharmonic diffusion of heat laterally ( m^4/s ) */
(PID.TID 0000.0001)                 0.000000000000000E+00
(PID.TID 0000.0001)     ;
(PID.TID 0000.0001) diffKhS =   /* Laplacian diffusion of salt laterally ( m^2/s ) */
(PID.TID 0000.0001)                 0.000000000000000E+00
(PID.TID 0000.0001)     ;
(PID.TID 0000.0001) diffK4S =   /* Biharmonic diffusion of salt laterally ( m^4/s ) */
(PID.TID 0000.0001)                 0.000000000000000E+00
(PID.TID 0000.0001)     ;
(PID.TID 0000.0001) diffKrNrT = /* vertical profile of vertical diffusion of Temp ( m^2/s )*/
(PID.TID 0000.0001)                 0.000000000000000E+00       /* K =  1 */
(PID.TID 0000.0001)     ;
(PID.TID 0000.0001) diffKrNrS = /* vertical profile of vertical diffusion of Salt ( m^2/s )*/
(PID.TID 0000.0001)                 0.000000000000000E+00       /* K =  1 */
(PID.TID 0000.0001)     ;
(PID.TID 0000.0001) diffKrBL79surf = /* Surface diffusion for Bryan and Lewis 79 ( m^2/s ) */
(PID.TID 0000.0001)                 0.000000000000000E+00
(PID.TID 0000.0001)     ;
(PID.TID 0000.0001) diffKrBL79deep = /* Deep diffusion for Bryan and Lewis 1979 ( m^2/s ) */
(PID.TID 0000.0001)                 0.000000000000000E+00
(PID.TID 0000.0001)     ;
(PID.TID 0000.0001) diffKrBL79scl = /* Depth scale for Bryan and Lewis 1979 ( m ) */
(PID.TID 0000.0001)                 2.000000000000000E+02
(PID.TID 0000.0001)     ;
(PID.TID 0000.0001) diffKrBL79Ho = /* Turning depth for Bryan and Lewis 1979 ( m ) */
(PID.TID 0000.0001)                -2.000000000000000E+03
(PID.TID 0000.0001)     ;
(PID.TID 0000.0001) ivdc_kappa = /* Implicit Vertical Diffusivity for Convection ( m^2/s) */
(PID.TID 0000.0001)                 0.000000000000000E+00
(PID.TID 0000.0001)     ;
(PID.TID 0000.0001) hMixCriteria=  /* Criteria for mixed-layer diagnostic */
(PID.TID 0000.0001)                -8.000000000000000E-01
(PID.TID 0000.0001)     ;
(PID.TID 0000.0001) dRhoSmall =  /* Parameter for mixed-layer diagnostic */
(PID.TID 0000.0001)                 1.000000000000000E-06
(PID.TID 0000.0001)     ;
(PID.TID 0000.0001) hMixSmooth=  /* Smoothing parameter for mixed-layer diagnostic */
(PID.TID 0000.0001)                 0.000000000000000E+00
(PID.TID 0000.0001)     ;
(PID.TID 0000.0001) eosType =  /* Type of Equation of State */
(PID.TID 0000.0001)               'LINEAR'
(PID.TID 0000.0001)     ;
(PID.TID 0000.0001) tAlpha = /* Linear EOS thermal expansion coefficient ( 1/oC ) */
(PID.TID 0000.0001)                 2.000000000000000E-04
(PID.TID 0000.0001)     ;
(PID.TID 0000.0001) sBeta  = /* Linear EOS haline contraction coefficient ( 1/psu ) */
(PID.TID 0000.0001)                 7.400000000000000E-04
(PID.TID 0000.0001)     ;
(PID.TID 0000.0001) rhoNil    = /* Reference density for Linear EOS ( kg/m^3 ) */
(PID.TID 0000.0001)                 1.000000000000000E+03
(PID.TID 0000.0001)     ;
(PID.TID 0000.0001) selectP_inEOS_Zc = /* select pressure to use in EOS (0,1,2,3) */
(PID.TID 0000.0001)                       0
(PID.TID 0000.0001)     0= -g*rhoConst*z ; 1= pRef (from tRef,sRef); 2= Hyd P ; 3= Hyd+NH P
(PID.TID 0000.0001)     ;
(PID.TID 0000.0001) HeatCapacity_Cp =  /* Specific heat capacity ( J/kg/K ) */
(PID.TID 0000.0001)                 3.994000000000000E+03
(PID.TID 0000.0001)     ;
(PID.TID 0000.0001) celsius2K = /* 0 degree Celsius converted to Kelvin ( K ) */
(PID.TID 0000.0001)                 2.731500000000000E+02
(PID.TID 0000.0001)     ;
(PID.TID 0000.0001) rhoConst  = /* Reference density (Boussinesq)  ( kg/m^3 ) */
(PID.TID 0000.0001)                 1.000000000000000E+03
(PID.TID 0000.0001)     ;
(PID.TID 0000.0001) rhoFacC = /* normalized Reference density @ cell-Center (-) */
(PID.TID 0000.0001)                 1.000000000000000E+00       /* K =  1 */
(PID.TID 0000.0001)     ;
(PID.TID 0000.0001) rhoFacF = /* normalized Reference density @ W-Interface (-) */
(PID.TID 0000.0001)     2 @  1.000000000000000E+00              /* K =  1:  2 */
(PID.TID 0000.0001)     ;
(PID.TID 0000.0001) rhoConstFresh = /* Fresh-water reference density ( kg/m^3 ) */
(PID.TID 0000.0001)                 1.000000000000000E+03
(PID.TID 0000.0001)     ;
(PID.TID 0000.0001) gravity =   /* Gravitational acceleration ( m/s^2 ) */
(PID.TID 0000.0001)                 9.810000000000000E+00
(PID.TID 0000.0001)     ;
(PID.TID 0000.0001) gBaro =   /* Barotropic gravity ( m/s^2 ) */
(PID.TID 0000.0001)                 9.810000000000000E+00
(PID.TID 0000.0001)     ;
(PID.TID 0000.0001) gravFacC = /* gravity factor (vs surf.) @ cell-Center (-) */
(PID.TID 0000.0001)                 1.000000000000000E+00       /* K =  1 */
(PID.TID 0000.0001)     ;
(PID.TID 0000.0001) gravFacF = /* gravity factor (vs surf.) @ W-Interface (-) */
(PID.TID 0000.0001)     2 @  1.000000000000000E+00              /* K =  1:  2 */
(PID.TID 0000.0001)     ;
(PID.TID 0000.0001) rotationPeriod =   /* Rotation Period ( s ) */
(PID.TID 0000.0001)                 8.616400000000000E+04
(PID.TID 0000.0001)     ;
(PID.TID 0000.0001) omega =   /* Angular velocity ( rad/s ) */
(PID.TID 0000.0001)                 7.292123516990375E-05
(PID.TID 0000.0001)     ;
(PID.TID 0000.0001) f0 =   /* Reference coriolis parameter ( 1/s ) */
(PID.TID 0000.0001)                 1.000000000000000E-04
(PID.TID 0000.0001)     ;
(PID.TID 0000.0001) beta =   /* Beta ( 1/(m.s) ) */
(PID.TID 0000.0001)                 9.999999999999999E-12
(PID.TID 0000.0001)     ;
(PID.TID 0000.0001) fPrime =   /* Second coriolis parameter ( 1/s ) */
(PID.TID 0000.0001)                 0.000000000000000E+00
(PID.TID 0000.0001)     ;
(PID.TID 0000.0001) rigidLid =   /* Rigid lid on/off flag */
(PID.TID 0000.0001)                   F
(PID.TID 0000.0001)     ;
(PID.TID 0000.0001) implicitFreeSurface =   /* Implicit free surface on/off flag */
(PID.TID 0000.0001)                   T
(PID.TID 0000.0001)     ;
(PID.TID 0000.0001) freeSurfFac =   /* Implicit free surface factor */
(PID.TID 0000.0001)                 1.000000000000000E+00
(PID.TID 0000.0001)     ;
(PID.TID 0000.0001) implicSurfPress =  /* Surface Pressure implicit factor (0-1)*/
(PID.TID 0000.0001)                 1.000000000000000E+00
(PID.TID 0000.0001)     ;
(PID.TID 0000.0001) implicDiv2DFlow =  /* Barot. Flow Div. implicit factor (0-1)*/
(PID.TID 0000.0001)                 1.000000000000000E+00
(PID.TID 0000.0001)     ;
(PID.TID 0000.0001) uniformLin_PhiSurf = /* use uniform Bo_surf on/off flag*/
(PID.TID 0000.0001)                   T
(PID.TID 0000.0001)     ;
(PID.TID 0000.0001) uniformFreeSurfLev = /* free-surface level-index is uniform */
(PID.TID 0000.0001)                   T
(PID.TID 0000.0001)     ;
(PID.TID 0000.0001) hFacMin =   /* minimum partial cell factor (hFac) */
(PID.TID 0000.0001)                 1.000000000000000E+00
(PID.TID 0000.0001)     ;
(PID.TID 0000.0001) hFacMinDr = /* minimum partial cell thickness ( m) */
(PID.TID 0000.0001)                 0.000000000000000E+00
(PID.TID 0000.0001)     ;
(PID.TID 0000.0001) exactConserv =  /* Exact Volume Conservation on/off flag*/
(PID.TID 0000.0001)                   F
(PID.TID 0000.0001)     ;
(PID.TID 0000.0001) linFSConserveTr = /* Tracer correction for Lin Free Surface on/off flag*/
(PID.TID 0000.0001)                   F
(PID.TID 0000.0001)     ;
(PID.TID 0000.0001) nonlinFreeSurf = /* Non-linear Free Surf. options (-1,0,1,2,3)*/
(PID.TID 0000.0001)                       0
(PID.TID 0000.0001)      -1,0= Off ; 1,2,3= On, 2=+rescale gU,gV, 3=+update cg2d solv.
(PID.TID 0000.0001)     ;
(PID.TID 0000.0001) hFacInf =   /* lower threshold for hFac (nonlinFreeSurf only)*/
(PID.TID 0000.0001)                 2.000000000000000E-01
(PID.TID 0000.0001)     ;
(PID.TID 0000.0001) hFacSup =   /* upper threshold for hFac (nonlinFreeSurf only)*/
(PID.TID 0000.0001)                 2.000000000000000E+00
(PID.TID 0000.0001)     ;
(PID.TID 0000.0001) select_rStar = /* r* Vertical coord. options (=0 r coord.; >0 uses r*)*/
(PID.TID 0000.0001)                       0
(PID.TID 0000.0001)     ;
(PID.TID 0000.0001) useRealFreshWaterFlux = /* Real Fresh Water Flux on/off flag*/
(PID.TID 0000.0001)                   F
(PID.TID 0000.0001)     ;
(PID.TID 0000.0001) temp_EvPrRn = /* Temp. of Evap/Prec/R (UNSET=use local T)(oC)*/
(PID.TID 0000.0001)                 1.234567000000000E+05
(PID.TID 0000.0001)     ;
(PID.TID 0000.0001) salt_EvPrRn = /* Salin. of Evap/Prec/R (UNSET=use local S)(psu)*/
(PID.TID 0000.0001)                 0.000000000000000E+00
(PID.TID 0000.0001)     ;
(PID.TID 0000.0001) selectAddFluid = /* option for mass source/sink of fluid (=0: off) */
(PID.TID 0000.0001)                       0
(PID.TID 0000.0001)     ;
(PID.TID 0000.0001) temp_addMass = /* Temp. of addMass array (UNSET=use local T)(oC)*/
(PID.TID 0000.0001)                 1.234567000000000E+05
(PID.TID 0000.0001)     ;
(PID.TID 0000.0001) salt_addMass = /* Salin. of addMass array (UNSET=use local S)(psu)*/
(PID.TID 0000.0001)                 0.000000000000000E+00
(PID.TID 0000.0001)     ;
(PID.TID 0000.0001) convertFW2Salt = /* convert F.W. Flux to Salt Flux (-1=use local S)(psu)*/
(PID.TID 0000.0001)                 3.500000000000000E+01
(PID.TID 0000.0001)     ;
(PID.TID 0000.0001) use3Dsolver = /* use 3-D pressure solver on/off flag */
(PID.TID 0000.0001)                   F
(PID.TID 0000.0001)     ;
(PID.TID 0000.0001) nonHydrostatic =  /* Non-Hydrostatic on/off flag */
(PID.TID 0000.0001)                   F
(PID.TID 0000.0001)     ;
(PID.TID 0000.0001) nh_Am2 = /* Non-Hydrostatic terms scaling factor */
(PID.TID 0000.0001)                 1.000000000000000E+00
(PID.TID 0000.0001)     ;
(PID.TID 0000.0001) implicitNHPress = /* Non-Hyd Pressure implicit factor (0-1)*/
(PID.TID 0000.0001)                 1.000000000000000E+00
(PID.TID 0000.0001)     ;
(PID.TID 0000.0001) selectNHfreeSurf = /* Non-Hyd (free-)Surface option */
(PID.TID 0000.0001)                       0
(PID.TID 0000.0001)     ;
(PID.TID 0000.0001) quasiHydrostatic = /* Quasi-Hydrostatic on/off flag */
(PID.TID 0000.0001)                   F
(PID.TID 0000.0001)     ;
(PID.TID 0000.0001) calc_wVelocity = /* vertical velocity calculation on/off flag */
(PID.TID 0000.0001)                   T
(PID.TID 0000.0001)     ;
(PID.TID 0000.0001) momStepping =  /* Momentum equation on/off flag */
(PID.TID 0000.0001)                   T
(PID.TID 0000.0001)     ;
(PID.TID 0000.0001) vectorInvariantMomentum= /* Vector-Invariant Momentum on/off */
(PID.TID 0000.0001)                   F
(PID.TID 0000.0001)     ;
(PID.TID 0000.0001) momAdvection =  /* Momentum advection on/off flag */
(PID.TID 0000.0001)                   T
(PID.TID 0000.0001)     ;
(PID.TID 0000.0001) momViscosity =  /* Momentum viscosity on/off flag */
(PID.TID 0000.0001)                   T
(PID.TID 0000.0001)     ;
(PID.TID 0000.0001) momImplVertAdv= /* Momentum implicit vert. advection on/off*/
(PID.TID 0000.0001)                   F
(PID.TID 0000.0001)     ;
(PID.TID 0000.0001) implicitViscosity = /* Implicit viscosity on/off flag */
(PID.TID 0000.0001)                   F
(PID.TID 0000.0001)     ;
(PID.TID 0000.0001) selectImplicitDrag= /* Implicit bot Drag options (0,1,2)*/
(PID.TID 0000.0001)                       0
(PID.TID 0000.0001)     0= Expl. ; 1= Impl. on provis. Vel ; 2= Fully Impl (with surf.P)
(PID.TID 0000.0001)     ;
(PID.TID 0000.0001) metricTerms =  /* metric-Terms on/off flag */
(PID.TID 0000.0001)                   F
(PID.TID 0000.0001)     ;
(PID.TID 0000.0001) useNHMTerms = /* Non-Hydrostatic Metric-Terms on/off */
(PID.TID 0000.0001)                   F
(PID.TID 0000.0001)     ;
(PID.TID 0000.0001) selectCoriMap = /* Coriolis Map options (0,1,2,3)*/
(PID.TID 0000.0001)                       1
(PID.TID 0000.0001)     0= f-Plane ; 1= Beta-Plane ; 2= Spherical ; 3= read from file
(PID.TID 0000.0001)     ;
(PID.TID 0000.0001) use3dCoriolis = /* 3-D Coriolis on/off flag */
(PID.TID 0000.0001)                   F
(PID.TID 0000.0001)     ;
(PID.TID 0000.0001) useCoriolis =  /* Coriolis on/off flag */
(PID.TID 0000.0001)                   T
(PID.TID 0000.0001)     ;
(PID.TID 0000.0001) useCDscheme =  /* CD scheme on/off flag */
(PID.TID 0000.0001)                   F
(PID.TID 0000.0001)     ;
(PID.TID 0000.0001) useEnergyConservingCoriolis= /* Flx-Form Coriolis scheme flag */
(PID.TID 0000.0001)                   F
(PID.TID 0000.0001)     ;
(PID.TID 0000.0001) useJamartWetPoints= /* Coriolis WetPoints method flag */
(PID.TID 0000.0001)                   F
(PID.TID 0000.0001)     ;
(PID.TID 0000.0001) useJamartMomAdv= /* V.I Non-linear terms Jamart flag */
(PID.TID 0000.0001)                   F
(PID.TID 0000.0001)     ;
(PID.TID 0000.0001) useAbsVorticity= /* V.I Works with f+zeta in Coriolis */
(PID.TID 0000.0001)                   F
(PID.TID 0000.0001)     ;
(PID.TID 0000.0001) selectVortScheme= /* V.I Scheme selector for Vorticity-Term */
(PID.TID 0000.0001)               123456789
(PID.TID 0000.0001)    = 0 : enstrophy (Shallow-Water Eq.) conserving scheme by Sadourny, JAS 75
(PID.TID 0000.0001)    = 1 : same as 0 with modified hFac
(PID.TID 0000.0001)    = 2 : energy conserving scheme (used by Sadourny in JAS 75 paper)
(PID.TID 0000.0001)    = 3 : energy (general) and enstrophy (2D, nonDiv.) conserving scheme
(PID.TID 0000.0001)          from Sadourny (Burridge & Haseler, ECMWF Rep.4, 1977)
(PID.TID 0000.0001)     ;
(PID.TID 0000.0001) upwindVorticity= /* V.I Upwind bias vorticity flag */
(PID.TID 0000.0001)                   F
(PID.TID 0000.0001)     ;
(PID.TID 0000.0001) highOrderVorticity= /* V.I High order vort. advect. flag */
(PID.TID 0000.0001)                   F
(PID.TID 0000.0001)     ;
(PID.TID 0000.0001) upwindShear= /* V.I Upwind vertical Shear advection flag */
(PID.TID 0000.0001)                   F
(PID.TID 0000.0001)     ;
(PID.TID 0000.0001) selectKEscheme= /* V.I Kinetic Energy scheme selector */
(PID.TID 0000.0001)                       0
(PID.TID 0000.0001)     ;
(PID.TID 0000.0001) momForcing =  /* Momentum forcing on/off flag */
(PID.TID 0000.0001)                   T
(PID.TID 0000.0001)     ;
(PID.TID 0000.0001) momTidalForcing = /* Momentum Tidal forcing on/off flag */
(PID.TID 0000.0001)                   T
(PID.TID 0000.0001)     ;
(PID.TID 0000.0001) momPressureForcing =  /* Momentum pressure term on/off flag */
(PID.TID 0000.0001)                   T
(PID.TID 0000.0001)     ;
(PID.TID 0000.0001) implicitIntGravWave= /* Implicit Internal Gravity Wave flag */
(PID.TID 0000.0001)                   F
(PID.TID 0000.0001)     ;
(PID.TID 0000.0001) staggerTimeStep =    /* Stagger time stepping on/off flag */
(PID.TID 0000.0001)                   F
(PID.TID 0000.0001)     ;
(PID.TID 0000.0001) doResetHFactors = /* reset thickness factors @ each time-step */
(PID.TID 0000.0001)                   F
(PID.TID 0000.0001)     ;
(PID.TID 0000.0001) multiDimAdvection =  /* enable/disable Multi-Dim Advection */
(PID.TID 0000.0001)                   T
(PID.TID 0000.0001)     ;
(PID.TID 0000.0001) useMultiDimAdvec =   /* Multi-Dim Advection is/is-not used */
(PID.TID 0000.0001)                   F
(PID.TID 0000.0001)     ;
(PID.TID 0000.0001) implicitDiffusion = /* Implicit Diffusion on/off flag */
(PID.TID 0000.0001)                   F
(PID.TID 0000.0001)     ;
(PID.TID 0000.0001) tempStepping =  /* Temperature equation on/off flag */
(PID.TID 0000.0001)                   F
(PID.TID 0000.0001)     ;
(PID.TID 0000.0001) tempAdvection = /* Temperature advection on/off flag */
(PID.TID 0000.0001)                   F
(PID.TID 0000.0001)     ;
(PID.TID 0000.0001) tempImplVertAdv = /* Temp. implicit vert. advection on/off */
(PID.TID 0000.0001)                   F
(PID.TID 0000.0001)     ;
(PID.TID 0000.0001) tempForcing  =  /* Temperature forcing on/off flag */
(PID.TID 0000.0001)                   F
(PID.TID 0000.0001)     ;
(PID.TID 0000.0001) doThetaClimRelax = /* apply SST relaxation on/off flag */
(PID.TID 0000.0001)                   F
(PID.TID 0000.0001)     ;
(PID.TID 0000.0001) tempIsActiveTr = /* Temp. is a dynamically Active Tracer */
(PID.TID 0000.0001)                   F
(PID.TID 0000.0001)     ;
(PID.TID 0000.0001) saltStepping =  /* Salinity equation on/off flag */
(PID.TID 0000.0001)                   F
(PID.TID 0000.0001)     ;
(PID.TID 0000.0001) saltAdvection = /* Salinity advection on/off flag */
(PID.TID 0000.0001)                   F
(PID.TID 0000.0001)     ;
(PID.TID 0000.0001) saltImplVertAdv = /* Sali. implicit vert. advection on/off */
(PID.TID 0000.0001)                   F
(PID.TID 0000.0001)     ;
(PID.TID 0000.0001) saltForcing  =  /* Salinity forcing on/off flag */
(PID.TID 0000.0001)                   F
(PID.TID 0000.0001)     ;
(PID.TID 0000.0001) doSaltClimRelax = /* apply SSS relaxation on/off flag */
(PID.TID 0000.0001)                   F
(PID.TID 0000.0001)     ;
(PID.TID 0000.0001) saltIsActiveTr = /* Salt  is a dynamically Active Tracer */
(PID.TID 0000.0001)                   F
(PID.TID 0000.0001)     ;
(PID.TID 0000.0001)  readBinaryPrec = /* Precision used for reading binary files */
(PID.TID 0000.0001)                      32
(PID.TID 0000.0001)     ;
(PID.TID 0000.0001) writeBinaryPrec = /* Precision used for writing binary files */
(PID.TID 0000.0001)                      32
(PID.TID 0000.0001)     ;
(PID.TID 0000.0001)  rwSuffixType =   /* select format of mds file suffix */
(PID.TID 0000.0001)                       0
(PID.TID 0000.0001)    = 0 : myIter (I10.10) ;   = 1 : 100*myTime (100th sec) ;
(PID.TID 0000.0001)    = 2 : myTime (seconds);   = 3 : myTime/360 (10th of hr);
(PID.TID 0000.0001)    = 4 : myTime/3600 (hours)
(PID.TID 0000.0001)     ;
(PID.TID 0000.0001)  globalFiles = /* write "global" (=not per tile) files */
(PID.TID 0000.0001)                   F
(PID.TID 0000.0001)     ;
(PID.TID 0000.0001)  useSingleCpuIO = /* only master MPI process does I/O */
(PID.TID 0000.0001)                   F
(PID.TID 0000.0001)     ;
(PID.TID 0000.0001)  useSingleCpuInput = /* only master process reads input */
(PID.TID 0000.0001)                   F
(PID.TID 0000.0001)     ;
(PID.TID 0000.0001) /* debLev[*]  : level of debug & auxiliary message printing */
(PID.TID 0000.0001) debLevZero =  0 ; /* level of disabled aux. msg printing */
(PID.TID 0000.0001)    debLevA =  1 ; /* level of minimum  aux. msg printing */
(PID.TID 0000.0001)    debLevB =  2 ; /* level of low aux. print (report read-file opening)*/
(PID.TID 0000.0001)    debLevC =  3 ; /* level of moderate debug prt (most pkgs debug msg) */
(PID.TID 0000.0001)    debLevD =  4 ; /* level of enhanced debug prt (add DEBUG_STATS prt) */
(PID.TID 0000.0001)    debLevE =  5 ; /* level of extensive debug printing */
(PID.TID 0000.0001) debugLevel =  /* select debug printing level */
(PID.TID 0000.0001)                       2
(PID.TID 0000.0001)     ;
(PID.TID 0000.0001)  plotLevel =  /* select PLOT_FIELD printing level */
(PID.TID 0000.0001)                       2
(PID.TID 0000.0001)     ;
(PID.TID 0000.0001) //
(PID.TID 0000.0001) // Elliptic solver(s) paramters ( PARM02 in namelist )
(PID.TID 0000.0001) //
(PID.TID 0000.0001) cg2dMaxIters =   /* Upper limit on 2d con. grad iterations  */
(PID.TID 0000.0001)                    1000
(PID.TID 0000.0001)     ;
(PID.TID 0000.0001) cg2dChkResFreq =   /* 2d con. grad convergence test frequency */
(PID.TID 0000.0001)                       1
(PID.TID 0000.0001)     ;
(PID.TID 0000.0001) cg2dUseMinResSol= /* use cg2d last-iter(=0) / min-resid.(=1) solution */
(PID.TID 0000.0001)                       0
(PID.TID 0000.0001)     ;
(PID.TID 0000.0001) cg2dTargetResidual =   /* 2d con. grad target residual  */
(PID.TID 0000.0001)                 1.000000000000000E-07
(PID.TID 0000.0001)     ;
(PID.TID 0000.0001) cg2dTargetResWunit =   /* CG2d target residual [W units] */
(PID.TID 0000.0001)                -1.000000000000000E+00
(PID.TID 0000.0001)     ;
(PID.TID 0000.0001) cg2dPreCondFreq =   /* Freq. for updating cg2d preconditioner */
(PID.TID 0000.0001)                       1
(PID.TID 0000.0001)     ;
(PID.TID 0000.0001) useSRCGSolver =  /* use single reduction CG solver(s) */
(PID.TID 0000.0001)                   F
(PID.TID 0000.0001)     ;
(PID.TID 0000.0001) printResidualFreq = /* Freq. for printing CG residual */
(PID.TID 0000.0001)                       0
(PID.TID 0000.0001)     ;
(PID.TID 0000.0001) //
(PID.TID 0000.0001) // Time stepping paramters ( PARM03 in namelist )
(PID.TID 0000.0001) //
(PID.TID 0000.0001) deltaTMom =   /* Momentum equation timestep ( s ) */
(PID.TID 0000.0001)                 1.200000000000000E+03
(PID.TID 0000.0001)     ;
(PID.TID 0000.0001) deltaTFreeSurf = /* FreeSurface equation timestep ( s ) */
(PID.TID 0000.0001)                 1.200000000000000E+03
(PID.TID 0000.0001)     ;
(PID.TID 0000.0001) dTtracerLev =  /* Tracer equation timestep ( s ) */
(PID.TID 0000.0001)                 1.200000000000000E+03       /* K =  1 */
(PID.TID 0000.0001)     ;
(PID.TID 0000.0001) deltaTClock  =   /* Model clock timestep ( s ) */
(PID.TID 0000.0001)                 1.200000000000000E+03
(PID.TID 0000.0001)     ;
(PID.TID 0000.0001) cAdjFreq =   /* Convective adjustment interval ( s ) */
(PID.TID 0000.0001)                 0.000000000000000E+00
(PID.TID 0000.0001)     ;
(PID.TID 0000.0001) momForcingOutAB = /* =1: take Momentum Forcing out of Adams-Bash. stepping */
(PID.TID 0000.0001)                       0
(PID.TID 0000.0001)     ;
(PID.TID 0000.0001) tracForcingOutAB = /* =1: take T,S,pTr Forcing out of Adams-Bash. stepping */
(PID.TID 0000.0001)                       0
(PID.TID 0000.0001)     ;
(PID.TID 0000.0001) momDissip_In_AB = /* put Dissipation Tendency in Adams-Bash. stepping */
(PID.TID 0000.0001)                   T
(PID.TID 0000.0001)     ;
(PID.TID 0000.0001) doAB_onGtGs = /* apply AB on Tendencies (rather than on T,S)*/
(PID.TID 0000.0001)                   T
(PID.TID 0000.0001)     ;
(PID.TID 0000.0001) abEps =   /* Adams-Bashforth-2 stabilizing weight */
(PID.TID 0000.0001)                 1.000000000000000E-02
(PID.TID 0000.0001)     ;
(PID.TID 0000.0001) applyExchUV_early = /* Apply EXCH to U,V earlier in time-step */
(PID.TID 0000.0001)                   F
(PID.TID 0000.0001)     ;
(PID.TID 0000.0001) pickupStrictlyMatch= /* stop if pickup do not strictly match */
(PID.TID 0000.0001)                   T
(PID.TID 0000.0001)     ;
(PID.TID 0000.0001) nIter0   =   /* Run starting timestep number */
(PID.TID 0000.0001)                       0
(PID.TID 0000.0001)     ;
(PID.TID 0000.0001) nTimeSteps = /* Number of timesteps */
(PID.TID 0000.0001)                      10
(PID.TID 0000.0001)     ;
(PID.TID 0000.0001) nEndIter =   /* Run ending timestep number */
(PID.TID 0000.0001)                      10
(PID.TID 0000.0001)     ;
(PID.TID 0000.0001) baseTime =   /* Model base time ( s ) */
(PID.TID 0000.0001)                 0.000000000000000E+00
(PID.TID 0000.0001)     ;
(PID.TID 0000.0001) startTime =  /* Run start time ( s ) */
(PID.TID 0000.0001)                 0.000000000000000E+00
(PID.TID 0000.0001)     ;
(PID.TID 0000.0001) endTime  =   /* Integration ending time ( s ) */
(PID.TID 0000.0001)                 1.200000000000000E+04
(PID.TID 0000.0001)     ;
(PID.TID 0000.0001) pChkPtFreq = /* Permanent restart/pickup file interval ( s ) */
(PID.TID 0000.0001)                 3.153600000000000E+07
(PID.TID 0000.0001)     ;
(PID.TID 0000.0001) chkPtFreq  = /* Rolling restart/pickup file interval ( s ) */
(PID.TID 0000.0001)                 1.555200000000000E+07
(PID.TID 0000.0001)     ;
(PID.TID 0000.0001) pickup_write_mdsio =   /* Model IO flag. */
(PID.TID 0000.0001)                   T
(PID.TID 0000.0001)     ;
(PID.TID 0000.0001) pickup_read_mdsio =   /* Model IO flag. */
(PID.TID 0000.0001)                   T
(PID.TID 0000.0001)     ;
(PID.TID 0000.0001) writePickupAtEnd =   /* Model IO flag. */
(PID.TID 0000.0001)                   T
(PID.TID 0000.0001)     ;
(PID.TID 0000.0001) dumpFreq =   /* Model state write out interval ( s ). */
(PID.TID 0000.0001)                 1.555200000000000E+07
(PID.TID 0000.0001)     ;
(PID.TID 0000.0001) dumpInitAndLast= /* write out Initial & Last iter. model state */
(PID.TID 0000.0001)                   T
(PID.TID 0000.0001)     ;
(PID.TID 0000.0001) snapshot_mdsio =   /* Model IO flag. */
(PID.TID 0000.0001)                   T
(PID.TID 0000.0001)     ;
(PID.TID 0000.0001) monitorFreq =   /* Monitor output interval ( s ). */
(PID.TID 0000.0001)                 1.200000000000000E+03
(PID.TID 0000.0001)     ;
(PID.TID 0000.0001) monitorSelect = /* select group of variables to monitor */
(PID.TID 0000.0001)                       2
(PID.TID 0000.0001)     ;
(PID.TID 0000.0001) monitor_stdio =   /* Model IO flag. */
(PID.TID 0000.0001)                   T
(PID.TID 0000.0001)     ;
(PID.TID 0000.0001) externForcingPeriod =   /* forcing period (s) */
(PID.TID 0000.0001)                 0.000000000000000E+00
(PID.TID 0000.0001)     ;
(PID.TID 0000.0001) externForcingCycle =   /* period of the cyle (s). */
(PID.TID 0000.0001)                 0.000000000000000E+00
(PID.TID 0000.0001)     ;
(PID.TID 0000.0001) tauThetaClimRelax =   /* relaxation time scale (s) */
(PID.TID 0000.0001)                 0.000000000000000E+00
(PID.TID 0000.0001)     ;
(PID.TID 0000.0001) tauSaltClimRelax =   /* relaxation time scale (s) */
(PID.TID 0000.0001)                 0.000000000000000E+00
(PID.TID 0000.0001)     ;
(PID.TID 0000.0001) latBandClimRelax =   /* max. Lat. where relaxation */
(PID.TID 0000.0001)                 3.720000000000000E+06
(PID.TID 0000.0001)     ;
(PID.TID 0000.0001) //
(PID.TID 0000.0001) // Gridding paramters ( PARM04 in namelist )
(PID.TID 0000.0001) //
(PID.TID 0000.0001) usingCartesianGrid = /* Cartesian coordinates flag ( True/False ) */
(PID.TID 0000.0001)                   T
(PID.TID 0000.0001)     ;
(PID.TID 0000.0001) usingCylindricalGrid = /* Cylindrical coordinates flag ( True/False ) */
(PID.TID 0000.0001)                   F
(PID.TID 0000.0001)     ;
(PID.TID 0000.0001) usingSphericalPolarGrid = /* Spherical coordinates flag ( True/False ) */
(PID.TID 0000.0001)                   F
(PID.TID 0000.0001)     ;
(PID.TID 0000.0001) usingCurvilinearGrid = /* Curvilinear coordinates flag ( True/False ) */
(PID.TID 0000.0001)                   F
(PID.TID 0000.0001)     ;
(PID.TID 0000.0001) useMin4hFacEdges = /* set hFacW,S as minimum of adjacent hFacC factor */
(PID.TID 0000.0001)                   F
(PID.TID 0000.0001)     ;
(PID.TID 0000.0001) interViscAr_pCell = /* account for partial-cell in interior vert. viscosity */
(PID.TID 0000.0001)                   F
(PID.TID 0000.0001)     ;
(PID.TID 0000.0001) interDiffKr_pCell = /* account for partial-cell in interior vert. diffusion */
(PID.TID 0000.0001)                   F
(PID.TID 0000.0001)     ;
(PID.TID 0000.0001) pCellMix_select = /* option to enhance mixing near surface & bottom */
(PID.TID 0000.0001)                       0
(PID.TID 0000.0001)     ;
(PID.TID 0000.0001) selectSigmaCoord = /* Hybrid-Sigma Vert. Coordinate option */
(PID.TID 0000.0001)                       0
(PID.TID 0000.0001)     ;
(PID.TID 0000.0001) rSigmaBnd = /* r/sigma transition ( units of r ==  m ) */
(PID.TID 0000.0001)                 1.234567000000000E+05
(PID.TID 0000.0001)     ;
(PID.TID 0000.0001) rkSign =   /* index orientation relative to vertical coordinate */
(PID.TID 0000.0001)                -1.000000000000000E+00
(PID.TID 0000.0001)     ;
(PID.TID 0000.0001) gravitySign = /* gravity orientation relative to vertical coordinate */
(PID.TID 0000.0001)                -1.000000000000000E+00
(PID.TID 0000.0001)     ;
(PID.TID 0000.0001) seaLev_Z =  /* reference height of sea-level [m] */
(PID.TID 0000.0001)                 0.000000000000000E+00
(PID.TID 0000.0001)     ;
(PID.TID 0000.0001) top_Pres =  /* reference pressure at the top [Pa] */
(PID.TID 0000.0001)                 0.000000000000000E+00
(PID.TID 0000.0001)     ;
(PID.TID 0000.0001) mass2rUnit = /* convert mass per unit area [kg/m2] to r-units [m] */
(PID.TID 0000.0001)                 1.000000000000000E-03
(PID.TID 0000.0001)     ;
(PID.TID 0000.0001) rUnit2mass = /* convert r-units [m] to mass per unit area [kg/m2] */
(PID.TID 0000.0001)                 1.000000000000000E+03
(PID.TID 0000.0001)     ;
(PID.TID 0000.0001) drC =   /* C spacing ( units of r ) */
(PID.TID 0000.0001)     2 @  2.500000000000000E+03              /* K =  1:  2 */
(PID.TID 0000.0001)     ;
(PID.TID 0000.0001) drF =   /* W spacing ( units of r ) */
(PID.TID 0000.0001)                 5.000000000000000E+03       /* K =  1 */
(PID.TID 0000.0001)     ;
(PID.TID 0000.0001) delX = /* U spacing ( m - cartesian, degrees - spherical ) */
(PID.TID 0000.0001)    62 @  2.000000000000000E+04              /* I =  1: 62 */
(PID.TID 0000.0001)     ;
(PID.TID 0000.0001) delY = /* V spacing ( m - cartesian, degrees - spherical ) */
(PID.TID 0000.0001)    62 @  2.000000000000000E+04              /* J =  1: 62 */
(PID.TID 0000.0001)     ;
(PID.TID 0000.0001) xgOrigin = /* X-axis origin of West  edge (cartesian: m, lat-lon: deg) */
(PID.TID 0000.0001)                -2.000000000000000E+04
(PID.TID 0000.0001)     ;
(PID.TID 0000.0001) ygOrigin = /* Y-axis origin of South edge (cartesian: m, lat-lon: deg) */
(PID.TID 0000.0001)                -2.000000000000000E+04
(PID.TID 0000.0001)     ;
(PID.TID 0000.0001) rSphere =  /* Radius ( ignored - cartesian, m - spherical ) */
(PID.TID 0000.0001)                 6.370000000000000E+06
(PID.TID 0000.0001)     ;
(PID.TID 0000.0001) deepAtmosphere = /* Deep/Shallow Atmosphere flag (True/False) */
(PID.TID 0000.0001)                   F
(PID.TID 0000.0001)     ;
(PID.TID 0000.0001) xC =  /* xC(:,1,:,1) : P-point X coord ( deg. or m if cartesian) */
(PID.TID 0000.0001)                -1.000000000000000E+04,      /* I =  1 */
(PID.TID 0000.0001)                 1.000000000000000E+04,      /* I =  2 */
(PID.TID 0000.0001)                 3.000000000000000E+04,      /* I =  3 */
(PID.TID 0000.0001)                 5.000000000000000E+04,      /* I =  4 */
(PID.TID 0000.0001)                 7.000000000000000E+04,      /* I =  5 */
(PID.TID 0000.0001)                 9.000000000000000E+04,      /* I =  6 */
(PID.TID 0000.0001)                 1.100000000000000E+05,      /* I =  7 */
(PID.TID 0000.0001)                 1.300000000000000E+05,      /* I =  8 */
(PID.TID 0000.0001)                 1.500000000000000E+05,      /* I =  9 */
(PID.TID 0000.0001)                 1.700000000000000E+05,      /* I = 10 */
(PID.TID 0000.0001)                 1.900000000000000E+05,      /* I = 11 */
(PID.TID 0000.0001)                 2.100000000000000E+05,      /* I = 12 */
(PID.TID 0000.0001)                 2.300000000000000E+05,      /* I = 13 */
(PID.TID 0000.0001)                 2.500000000000000E+05,      /* I = 14 */
(PID.TID 0000.0001)                 2.700000000000000E+05,      /* I = 15 */
(PID.TID 0000.0001)                 2.900000000000000E+05,      /* I = 16 */
(PID.TID 0000.0001)                 3.100000000000000E+05,      /* I = 17 */
(PID.TID 0000.0001)                 3.300000000000000E+05,      /* I = 18 */
(PID.TID 0000.0001)                 3.500000000000000E+05,      /* I = 19 */
(PID.TID 0000.0001)                 3.700000000000000E+05,      /* I = 20 */
(PID.TID 0000.0001)                 3.900000000000000E+05,      /* I = 21 */
(PID.TID 0000.0001)                 4.100000000000000E+05,      /* I = 22 */
(PID.TID 0000.0001)                 4.300000000000000E+05,      /* I = 23 */
(PID.TID 0000.0001)                 4.500000000000000E+05,      /* I = 24 */
(PID.TID 0000.0001)                 4.700000000000000E+05,      /* I = 25 */
(PID.TID 0000.0001)                 4.900000000000000E+05,      /* I = 26 */
(PID.TID 0000.0001)                 5.100000000000000E+05,      /* I = 27 */
(PID.TID 0000.0001)                 5.300000000000000E+05,      /* I = 28 */
(PID.TID 0000.0001)                 5.500000000000000E+05,      /* I = 29 */
(PID.TID 0000.0001)                 5.700000000000000E+05,      /* I = 30 */
(PID.TID 0000.0001)                 5.900000000000000E+05,      /* I = 31 */
(PID.TID 0000.0001)                 6.100000000000000E+05,      /* I = 32 */
(PID.TID 0000.0001)                 6.300000000000000E+05,      /* I = 33 */
(PID.TID 0000.0001)                 6.500000000000000E+05,      /* I = 34 */
(PID.TID 0000.0001)                 6.700000000000000E+05,      /* I = 35 */
(PID.TID 0000.0001)                 6.900000000000000E+05,      /* I = 36 */
(PID.TID 0000.0001)                 7.100000000000000E+05,      /* I = 37 */
(PID.TID 0000.0001)                 7.300000000000000E+05,      /* I = 38 */
(PID.TID 0000.0001)                 7.500000000000000E+05,      /* I = 39 */
(PID.TID 0000.0001)                 7.700000000000000E+05,      /* I = 40 */
(PID.TID 0000.0001)                 7.900000000000000E+05,      /* I = 41 */
(PID.TID 0000.0001)                 8.100000000000000E+05,      /* I = 42 */
(PID.TID 0000.0001)                 8.300000000000000E+05,      /* I = 43 */
(PID.TID 0000.0001)                 8.500000000000000E+05,      /* I = 44 */
(PID.TID 0000.0001)                 8.700000000000000E+05,      /* I = 45 */
(PID.TID 0000.0001)                 8.900000000000000E+05,      /* I = 46 */
(PID.TID 0000.0001)                 9.100000000000000E+05,      /* I = 47 */
(PID.TID 0000.0001)                 9.300000000000000E+05,      /* I = 48 */
(PID.TID 0000.0001)                 9.500000000000000E+05,      /* I = 49 */
(PID.TID 0000.0001)                 9.700000000000000E+05,      /* I = 50 */
(PID.TID 0000.0001)                 9.900000000000000E+05,      /* I = 51 */
(PID.TID 0000.0001)                 1.010000000000000E+06,      /* I = 52 */
(PID.TID 0000.0001)                 1.030000000000000E+06,      /* I = 53 */
(PID.TID 0000.0001)                 1.050000000000000E+06,      /* I = 54 */
(PID.TID 0000.0001)                 1.070000000000000E+06,      /* I = 55 */
(PID.TID 0000.0001)                 1.090000000000000E+06,      /* I = 56 */
(PID.TID 0000.0001)                 1.110000000000000E+06,      /* I = 57 */
(PID.TID 0000.0001)                 1.130000000000000E+06,      /* I = 58 */
(PID.TID 0000.0001)                 1.150000000000000E+06,      /* I = 59 */
(PID.TID 0000.0001)                 1.170000000000000E+06,      /* I = 60 */
(PID.TID 0000.0001)                 1.190000000000000E+06,      /* I = 61 */
(PID.TID 0000.0001)                 1.210000000000000E+06       /* I = 62 */
(PID.TID 0000.0001)     ;
(PID.TID 0000.0001) yC =  /* yC(1,:,1,:) : P-point Y coord ( deg. or m if cartesian) */
(PID.TID 0000.0001)                -1.000000000000000E+04,      /* J =  1 */
(PID.TID 0000.0001)                 1.000000000000000E+04,      /* J =  2 */
(PID.TID 0000.0001)                 3.000000000000000E+04,      /* J =  3 */
(PID.TID 0000.0001)                 5.000000000000000E+04,      /* J =  4 */
(PID.TID 0000.0001)                 7.000000000000000E+04,      /* J =  5 */
(PID.TID 0000.0001)                 9.000000000000000E+04,      /* J =  6 */
(PID.TID 0000.0001)                 1.100000000000000E+05,      /* J =  7 */
(PID.TID 0000.0001)                 1.300000000000000E+05,      /* J =  8 */
(PID.TID 0000.0001)                 1.500000000000000E+05,      /* J =  9 */
(PID.TID 0000.0001)                 1.700000000000000E+05,      /* J = 10 */
(PID.TID 0000.0001)                 1.900000000000000E+05,      /* J = 11 */
(PID.TID 0000.0001)                 2.100000000000000E+05,      /* J = 12 */
(PID.TID 0000.0001)                 2.300000000000000E+05,      /* J = 13 */
(PID.TID 0000.0001)                 2.500000000000000E+05,      /* J = 14 */
(PID.TID 0000.0001)                 2.700000000000000E+05,      /* J = 15 */
(PID.TID 0000.0001)                 2.900000000000000E+05,      /* J = 16 */
(PID.TID 0000.0001)                 3.100000000000000E+05,      /* J = 17 */
(PID.TID 0000.0001)                 3.300000000000000E+05,      /* J = 18 */
(PID.TID 0000.0001)                 3.500000000000000E+05,      /* J = 19 */
(PID.TID 0000.0001)                 3.700000000000000E+05,      /* J = 20 */
(PID.TID 0000.0001)                 3.900000000000000E+05,      /* J = 21 */
(PID.TID 0000.0001)                 4.100000000000000E+05,      /* J = 22 */
(PID.TID 0000.0001)                 4.300000000000000E+05,      /* J = 23 */
(PID.TID 0000.0001)                 4.500000000000000E+05,      /* J = 24 */
(PID.TID 0000.0001)                 4.700000000000000E+05,      /* J = 25 */
(PID.TID 0000.0001)                 4.900000000000000E+05,      /* J = 26 */
(PID.TID 0000.0001)                 5.100000000000000E+05,      /* J = 27 */
(PID.TID 0000.0001)                 5.300000000000000E+05,      /* J = 28 */
(PID.TID 0000.0001)                 5.500000000000000E+05,      /* J = 29 */
(PID.TID 0000.0001)                 5.700000000000000E+05,      /* J = 30 */
(PID.TID 0000.0001)                 5.900000000000000E+05,      /* J = 31 */
(PID.TID 0000.0001)                 6.100000000000000E+05,      /* J = 32 */
(PID.TID 0000.0001)                 6.300000000000000E+05,      /* J = 33 */
(PID.TID 0000.0001)                 6.500000000000000E+05,      /* J = 34 */
(PID.TID 0000.0001)                 6.700000000000000E+05,      /* J = 35 */
(PID.TID 0000.0001)                 6.900000000000000E+05,      /* J = 36 */
(PID.TID 0000.0001)                 7.100000000000000E+05,      /* J = 37 */
(PID.TID 0000.0001)                 7.300000000000000E+05,      /* J = 38 */
(PID.TID 0000.0001)                 7.500000000000000E+05,      /* J = 39 */
(PID.TID 0000.0001)                 7.700000000000000E+05,      /* J = 40 */
(PID.TID 0000.0001)                 7.900000000000000E+05,      /* J = 41 */
(PID.TID 0000.0001)                 8.100000000000000E+05,      /* J = 42 */
(PID.TID 0000.0001)                 8.300000000000000E+05,      /* J = 43 */
(PID.TID 0000.0001)                 8.500000000000000E+05,      /* J = 44 */
(PID.TID 0000.0001)                 8.700000000000000E+05,      /* J = 45 */
(PID.TID 0000.0001)                 8.900000000000000E+05,      /* J = 46 */
(PID.TID 0000.0001)                 9.100000000000000E+05,      /* J = 47 */
(PID.TID 0000.0001)                 9.300000000000000E+05,      /* J = 48 */
(PID.TID 0000.0001)                 9.500000000000000E+05,      /* J = 49 */
(PID.TID 0000.0001)                 9.700000000000000E+05,      /* J = 50 */
(PID.TID 0000.0001)                 9.900000000000000E+05,      /* J = 51 */
(PID.TID 0000.0001)                 1.010000000000000E+06,      /* J = 52 */
(PID.TID 0000.0001)                 1.030000000000000E+06,      /* J = 53 */
(PID.TID 0000.0001)                 1.050000000000000E+06,      /* J = 54 */
(PID.TID 0000.0001)                 1.070000000000000E+06,      /* J = 55 */
(PID.TID 0000.0001)                 1.090000000000000E+06,      /* J = 56 */
(PID.TID 0000.0001)                 1.110000000000000E+06,      /* J = 57 */
(PID.TID 0000.0001)                 1.130000000000000E+06,      /* J = 58 */
(PID.TID 0000.0001)                 1.150000000000000E+06,      /* J = 59 */
(PID.TID 0000.0001)                 1.170000000000000E+06,      /* J = 60 */
(PID.TID 0000.0001)                 1.190000000000000E+06,      /* J = 61 */
(PID.TID 0000.0001)                 1.210000000000000E+06       /* J = 62 */
(PID.TID 0000.0001)     ;
(PID.TID 0000.0001) rcoord = /* P-point R coordinate (  units of r ) */
(PID.TID 0000.0001)                -2.500000000000000E+03       /* K =  1 */
(PID.TID 0000.0001)     ;
(PID.TID 0000.0001) rF =   /* W-Interf. R coordinate (  units of r ) */
(PID.TID 0000.0001)                 0.000000000000000E+00,      /* K =  1 */
(PID.TID 0000.0001)                -5.000000000000000E+03       /* K =  2 */
(PID.TID 0000.0001)     ;
(PID.TID 0000.0001) deepFacC = /* deep-model grid factor @ cell-Center (-) */
(PID.TID 0000.0001)                 1.000000000000000E+00       /* K =  1 */
(PID.TID 0000.0001)     ;
(PID.TID 0000.0001) deepFacF = /* deep-model grid factor @ W-Interface (-) */
(PID.TID 0000.0001)     2 @  1.000000000000000E+00              /* K =  1:  2 */
(PID.TID 0000.0001)     ;
(PID.TID 0000.0001) rVel2wUnit = /* convert units: rVel -> wSpeed (=1 if z-coord)*/
(PID.TID 0000.0001)     2 @  1.000000000000000E+00              /* K =  1:  2 */
(PID.TID 0000.0001)     ;
(PID.TID 0000.0001) wUnit2rVel = /* convert units: wSpeed -> rVel (=1 if z-coord)*/
(PID.TID 0000.0001)     2 @  1.000000000000000E+00              /* K =  1:  2 */
(PID.TID 0000.0001)     ;
(PID.TID 0000.0001) dBdrRef = /* Vertical grad. of reference buoyancy [(m/s/r)^2] */
(PID.TID 0000.0001)                 0.000000000000000E+00       /* K =  1 */
(PID.TID 0000.0001)     ;
(PID.TID 0000.0001) rotateGrid = /* use rotated grid ( True/False ) */
(PID.TID 0000.0001)                   F
(PID.TID 0000.0001)     ;
(PID.TID 0000.0001) phiEuler = /* Euler angle, rotation about original z-coordinate [rad] */
(PID.TID 0000.0001)                 0.000000000000000E+00
(PID.TID 0000.0001)     ;
(PID.TID 0000.0001) thetaEuler = /* Euler angle, rotation about new x-coordinate [rad] */
(PID.TID 0000.0001)                 0.000000000000000E+00
(PID.TID 0000.0001)     ;
(PID.TID 0000.0001) psiEuler = /* Euler angle, rotation about new z-coordinate [rad] */
(PID.TID 0000.0001)                 0.000000000000000E+00
(PID.TID 0000.0001)     ;
(PID.TID 0000.0001) dxF =  /* dxF(:,1,:,1) ( units: m ) */
(PID.TID 0000.0001)    62 @  2.000000000000000E+04              /* I =  1: 62 */
(PID.TID 0000.0001)     ;
(PID.TID 0000.0001) dxF =  /* dxF(1,:,1,:) ( units: m ) */
(PID.TID 0000.0001)    62 @  2.000000000000000E+04              /* J =  1: 62 */
(PID.TID 0000.0001)     ;
(PID.TID 0000.0001) dyF =  /* dyF(:,1,:,1) ( units: m ) */
(PID.TID 0000.0001)    62 @  2.000000000000000E+04              /* I =  1: 62 */
(PID.TID 0000.0001)     ;
(PID.TID 0000.0001) dyF =  /* dyF(1,:,1,:) ( units: m ) */
(PID.TID 0000.0001)    62 @  2.000000000000000E+04              /* J =  1: 62 */
(PID.TID 0000.0001)     ;
(PID.TID 0000.0001) dxG =  /* dxG(:,1,:,1) ( units: m ) */
(PID.TID 0000.0001)    62 @  2.000000000000000E+04              /* I =  1: 62 */
(PID.TID 0000.0001)     ;
(PID.TID 0000.0001) dxG =  /* dxG(1,:,1,:) ( units: m ) */
(PID.TID 0000.0001)    62 @  2.000000000000000E+04              /* J =  1: 62 */
(PID.TID 0000.0001)     ;
(PID.TID 0000.0001) dyG =  /* dyG(:,1,:,1) ( units: m ) */
(PID.TID 0000.0001)    62 @  2.000000000000000E+04              /* I =  1: 62 */
(PID.TID 0000.0001)     ;
(PID.TID 0000.0001) dyG =  /* dyG(1,:,1,:) ( units: m ) */
(PID.TID 0000.0001)    62 @  2.000000000000000E+04              /* J =  1: 62 */
(PID.TID 0000.0001)     ;
(PID.TID 0000.0001) dxC =  /* dxC(:,1,:,1) ( units: m ) */
(PID.TID 0000.0001)    62 @  2.000000000000000E+04              /* I =  1: 62 */
(PID.TID 0000.0001)     ;
(PID.TID 0000.0001) dxC =  /* dxC(1,:,1,:) ( units: m ) */
(PID.TID 0000.0001)    62 @  2.000000000000000E+04              /* J =  1: 62 */
(PID.TID 0000.0001)     ;
(PID.TID 0000.0001) dyC =  /* dyC(:,1,:,1) ( units: m ) */
(PID.TID 0000.0001)    62 @  2.000000000000000E+04              /* I =  1: 62 */
(PID.TID 0000.0001)     ;
(PID.TID 0000.0001) dyC =  /* dyC(1,:,1,:) ( units: m ) */
(PID.TID 0000.0001)    62 @  2.000000000000000E+04              /* J =  1: 62 */
(PID.TID 0000.0001)     ;
(PID.TID 0000.0001) dxV =  /* dxV(:,1,:,1) ( units: m ) */
(PID.TID 0000.0001)    62 @  2.000000000000000E+04              /* I =  1: 62 */
(PID.TID 0000.0001)     ;
(PID.TID 0000.0001) dxV =  /* dxV(1,:,1,:) ( units: m ) */
(PID.TID 0000.0001)    62 @  2.000000000000000E+04              /* J =  1: 62 */
(PID.TID 0000.0001)     ;
(PID.TID 0000.0001) dyU =  /* dyU(:,1,:,1) ( units: m ) */
(PID.TID 0000.0001)    62 @  2.000000000000000E+04              /* I =  1: 62 */
(PID.TID 0000.0001)     ;
(PID.TID 0000.0001) dyU =  /* dyU(1,:,1,:) ( units: m ) */
(PID.TID 0000.0001)    62 @  2.000000000000000E+04              /* J =  1: 62 */
(PID.TID 0000.0001)     ;
(PID.TID 0000.0001) rA  =  /* rA (:,1,:,1) ( units: m^2 ) */
(PID.TID 0000.0001)    62 @  4.000000000000000E+08              /* I =  1: 62 */
(PID.TID 0000.0001)     ;
(PID.TID 0000.0001) rA  =  /* rA (1,:,1,:) ( units: m^2 ) */
(PID.TID 0000.0001)    62 @  4.000000000000000E+08              /* J =  1: 62 */
(PID.TID 0000.0001)     ;
(PID.TID 0000.0001) rAw =  /* rAw(:,1,:,1) ( units: m^2 ) */
(PID.TID 0000.0001)    62 @  4.000000000000000E+08              /* I =  1: 62 */
(PID.TID 0000.0001)     ;
(PID.TID 0000.0001) rAw =  /* rAw(1,:,1,:) ( units: m^2 ) */
(PID.TID 0000.0001)    62 @  4.000000000000000E+08              /* J =  1: 62 */
(PID.TID 0000.0001)     ;
(PID.TID 0000.0001) rAs =  /* rAs(:,1,:,1) ( units: m^2 ) */
(PID.TID 0000.0001)    62 @  4.000000000000000E+08              /* I =  1: 62 */
(PID.TID 0000.0001)     ;
(PID.TID 0000.0001) rAs =  /* rAs(1,:,1,:) ( units: m^2 ) */
(PID.TID 0000.0001)    62 @  4.000000000000000E+08              /* J =  1: 62 */
(PID.TID 0000.0001)     ;
(PID.TID 0000.0001) globalArea = /* Integrated horizontal Area (m^2) */
(PID.TID 0000.0001)                 1.440000000000000E+12
(PID.TID 0000.0001)     ;
(PID.TID 0000.0001) // =======================================================
(PID.TID 0000.0001) // End of Model config. summary
(PID.TID 0000.0001) // =======================================================
(PID.TID 0000.0001) 
(PID.TID 0000.0001) == Packages configuration : Check & print summary ==
(PID.TID 0000.0001) 
(PID.TID 0000.0001) // =======================================================
(PID.TID 0000.0001) // Check Model config. (CONFIG_CHECK):
(PID.TID 0000.0001) // CONFIG_CHECK : Normal End
(PID.TID 0000.0001) // =======================================================
(PID.TID 0000.0001) 
(PID.TID 0000.0001) Start initial hydrostatic pressure computation
(PID.TID 0000.0001) Pressure is predetermined for buoyancyRelation OCEANIC
(PID.TID 0000.0001) 
(PID.TID 0000.0001)  MDS_READ_FIELD: opening global file: windx_cosy.bin
(PID.TID 0000.0001) // =======================================================
(PID.TID 0000.0001) // Model current state
(PID.TID 0000.0001) // =======================================================
(PID.TID 0000.0001) 
(PID.TID 0000.0001) // =======================================================
(PID.TID 0000.0001) // Begin MONITOR dynamic field statistics
(PID.TID 0000.0001) // =======================================================
(PID.TID 0000.0001) %MON time_tsnumber                =                     0
(PID.TID 0000.0001) %MON time_secondsf                =   0.0000000000000E+00
(PID.TID 0000.0001) %MON dynstat_eta_max              =   0.0000000000000E+00
(PID.TID 0000.0001) %MON dynstat_eta_min              =   0.0000000000000E+00
(PID.TID 0000.0001) %MON dynstat_eta_mean             =   0.0000000000000E+00
(PID.TID 0000.0001) %MON dynstat_eta_sd               =   0.0000000000000E+00
(PID.TID 0000.0001) %MON dynstat_eta_del2             =   0.0000000000000E+00
(PID.TID 0000.0001) %MON dynstat_uvel_max             =   0.0000000000000E+00
(PID.TID 0000.0001) %MON dynstat_uvel_min             =   0.0000000000000E+00
(PID.TID 0000.0001) %MON dynstat_uvel_mean            =   0.0000000000000E+00
(PID.TID 0000.0001) %MON dynstat_uvel_sd              =   0.0000000000000E+00
(PID.TID 0000.0001) %MON dynstat_uvel_del2            =   0.0000000000000E+00
(PID.TID 0000.0001) %MON dynstat_vvel_max             =   0.0000000000000E+00
(PID.TID 0000.0001) %MON dynstat_vvel_min             =   0.0000000000000E+00
(PID.TID 0000.0001) %MON dynstat_vvel_mean            =   0.0000000000000E+00
(PID.TID 0000.0001) %MON dynstat_vvel_sd              =   0.0000000000000E+00
(PID.TID 0000.0001) %MON dynstat_vvel_del2            =   0.0000000000000E+00
(PID.TID 0000.0001) %MON dynstat_wvel_max             =  -0.0000000000000E+00
(PID.TID 0000.0001) %MON dynstat_wvel_min             =  -0.0000000000000E+00
(PID.TID 0000.0001) %MON dynstat_wvel_mean            =   0.0000000000000E+00
(PID.TID 0000.0001) %MON dynstat_wvel_sd              =   0.0000000000000E+00
(PID.TID 0000.0001) %MON dynstat_wvel_del2            =   0.0000000000000E+00
(PID.TID 0000.0001) %MON dynstat_theta_max            =   2.0000000000000E+01
(PID.TID 0000.0001) %MON dynstat_theta_min            =   2.0000000000000E+01
(PID.TID 0000.0001) %MON dynstat_theta_mean           =   2.0000000000000E+01
(PID.TID 0000.0001) %MON dynstat_theta_sd             =   0.0000000000000E+00
(PID.TID 0000.0001) %MON dynstat_theta_del2           =   0.0000000000000E+00
(PID.TID 0000.0001) %MON dynstat_salt_max             =   3.0000000000000E+01
(PID.TID 0000.0001) %MON dynstat_salt_min             =   3.0000000000000E+01
(PID.TID 0000.0001) %MON dynstat_salt_mean            =   3.0000000000000E+01
(PID.TID 0000.0001) %MON dynstat_salt_sd              =   0.0000000000000E+00
(PID.TID 0000.0001) %MON dynstat_salt_del2            =   0.0000000000000E+00
(PID.TID 0000.0001) %MON trAdv_CFL_u_max              =   0.0000000000000E+00
(PID.TID 0000.0001) %MON trAdv_CFL_v_max              =   0.0000000000000E+00
(PID.TID 0000.0001) %MON trAdv_CFL_w_max              =   0.0000000000000E+00
(PID.TID 0000.0001) %MON advcfl_uvel_max              =   0.0000000000000E+00
(PID.TID 0000.0001) %MON advcfl_vvel_max              =   0.0000000000000E+00
(PID.TID 0000.0001) %MON advcfl_wvel_max              =   0.0000000000000E+00
(PID.TID 0000.0001) %MON advcfl_W_hf_max              =   0.0000000000000E+00
(PID.TID 0000.0001) %MON pe_b_mean                    =   0.0000000000000E+00
(PID.TID 0000.0001) %MON ke_max                       =   0.0000000000000E+00
(PID.TID 0000.0001) %MON ke_mean                      =   0.0000000000000E+00
(PID.TID 0000.0001) %MON ke_vol                       =   7.2000000000000E+15
(PID.TID 0000.0001) %MON vort_r_min                   =   0.0000000000000E+00
(PID.TID 0000.0001) %MON vort_r_max                   =   0.0000000000000E+00
(PID.TID 0000.0001) %MON vort_a_mean                  =   1.0600000000000E-04
(PID.TID 0000.0001) %MON vort_a_sd                    =   3.5177554171049E-06
(PID.TID 0000.0001) %MON vort_p_mean                  =   1.1130000000000E-04
(PID.TID 0000.0001) %MON vort_p_sd                    =   4.0927537591861E-05
(PID.TID 0000.0001) %MON surfExpan_theta_mean         =   0.0000000000000E+00
(PID.TID 0000.0001) %MON surfExpan_salt_mean          =   0.0000000000000E+00
(PID.TID 0000.0001) // =======================================================
(PID.TID 0000.0001) // End MONITOR dynamic field statistics
(PID.TID 0000.0001) // =======================================================
(PID.TID 0000.0001) SOLVE_FOR_PRESSURE: putPmEinXvector =    F
 cg2d: Sum(rhs),rhsMax =   0.00000000000000E+00  3.99862915277481E-04
(PID.TID 0000.0001)      cg2d_init_res =   7.74862225643044E+00
(PID.TID 0000.0001)      cg2d_iters(min,last) =      -1      59
(PID.TID 0000.0001)      cg2d_last_res =   9.82442078878732E-08
(PID.TID 0000.0001) // =======================================================
(PID.TID 0000.0001) // Begin MONITOR dynamic field statistics
(PID.TID 0000.0001) // =======================================================
(PID.TID 0000.0001) %MON time_tsnumber                =                     1
(PID.TID 0000.0001) %MON time_secondsf                =   1.2000000000000E+03
(PID.TID 0000.0001) %MON dynstat_eta_max              =   4.2108595523874E-04
(PID.TID 0000.0001) %MON dynstat_eta_min              =  -4.2108595523874E-04
(PID.TID 0000.0001) %MON dynstat_eta_mean             =   3.0464596218533E-21
(PID.TID 0000.0001) %MON dynstat_eta_sd               =   1.3044039398983E-04
(PID.TID 0000.0001) %MON dynstat_eta_del2             =   1.7576571042770E-08
(PID.TID 0000.0001) %MON dynstat_uvel_max             =   2.0934506612668E-05
(PID.TID 0000.0001) %MON dynstat_uvel_min             =  -2.0934506612668E-05
(PID.TID 0000.0001) %MON dynstat_uvel_mean            =   1.0177461525141E-21
(PID.TID 0000.0001) %MON dynstat_uvel_sd              =   1.1694658908319E-05
(PID.TID 0000.0001) %MON dynstat_uvel_del2            =   1.0561990910541E-09
(PID.TID 0000.0001) %MON dynstat_vvel_max             =   1.2980423801171E-05
(PID.TID 0000.0001) %MON dynstat_vvel_min             =  -1.2980423801171E-05
(PID.TID 0000.0001) %MON dynstat_vvel_mean            =  -4.5227681386605E-22
(PID.TID 0000.0001) %MON dynstat_vvel_sd              =   4.0535075857238E-06
(PID.TID 0000.0001) %MON dynstat_vvel_del2            =   5.5291008143798E-10
(PID.TID 0000.0001) %MON dynstat_wvel_max             =   3.5090493372126E-07
(PID.TID 0000.0001) %MON dynstat_wvel_min             =  -3.5090493372122E-07
(PID.TID 0000.0001) %MON dynstat_wvel_mean            =   6.3058299322923E-25
(PID.TID 0000.0001) %MON dynstat_wvel_sd              =   1.0870032832486E-07
(PID.TID 0000.0001) %MON dynstat_wvel_del2            =   1.4647144846154E-11
(PID.TID 0000.0001) %MON dynstat_theta_max            =   2.0000000000000E+01
(PID.TID 0000.0001) %MON dynstat_theta_min            =   2.0000000000000E+01
(PID.TID 0000.0001) %MON dynstat_theta_mean           =   2.0000000000000E+01
(PID.TID 0000.0001) %MON dynstat_theta_sd             =   0.0000000000000E+00
(PID.TID 0000.0001) %MON dynstat_theta_del2           =   0.0000000000000E+00
(PID.TID 0000.0001) %MON dynstat_salt_max             =   3.0000000000000E+01
(PID.TID 0000.0001) %MON dynstat_salt_min             =   3.0000000000000E+01
(PID.TID 0000.0001) %MON dynstat_salt_mean            =   3.0000000000000E+01
(PID.TID 0000.0001) %MON dynstat_salt_sd              =   0.0000000000000E+00
(PID.TID 0000.0001) %MON dynstat_salt_del2            =   0.0000000000000E+00
(PID.TID 0000.0001) %MON trAdv_CFL_u_max              =   0.0000000000000E+00
(PID.TID 0000.0001) %MON trAdv_CFL_v_max              =   0.0000000000000E+00
(PID.TID 0000.0001) %MON trAdv_CFL_w_max              =   0.0000000000000E+00
(PID.TID 0000.0001) %MON advcfl_uvel_max              =   1.2560703967601E-06
(PID.TID 0000.0001) %MON advcfl_vvel_max              =   7.7882542807025E-07
(PID.TID 0000.0001) %MON advcfl_wvel_max              =   1.6843436818620E-07
(PID.TID 0000.0001) %MON advcfl_W_hf_max              =   0.0000000000000E+00
(PID.TID 0000.0001) %MON pe_b_mean                    =   1.6691417152921E-11
(PID.TID 0000.0001) %MON ke_max                       =   2.1899235880045E-10
(PID.TID 0000.0001) %MON ke_mean                      =   7.5321352275313E-11
(PID.TID 0000.0001) %MON ke_vol                       =   7.2000000000000E+15
(PID.TID 0000.0001) %MON vort_r_min                   =  -6.2824677675963E-11
(PID.TID 0000.0001) %MON vort_r_max                   =   1.0467253306334E-09
(PID.TID 0000.0001) %MON vort_a_mean                  =   1.0600000000000E-04
(PID.TID 0000.0001) %MON vort_a_sd                    =   3.5177554213869E-06
(PID.TID 0000.0001) %MON vort_p_mean                  =   1.1130000000000E-04
(PID.TID 0000.0001) %MON vort_p_sd                    =   4.0927848278846E-05
(PID.TID 0000.0001) %MON surfExpan_theta_mean         =   4.5474735088646E-23
(PID.TID 0000.0001) %MON surfExpan_salt_mean          =  -4.6737922174442E-23
(PID.TID 0000.0001) // =======================================================
(PID.TID 0000.0001) // End MONITOR dynamic field statistics
(PID.TID 0000.0001) // =======================================================
 cg2d: Sum(rhs),rhsMax =  -2.88657986402541E-15  4.51170334505832E-04
(PID.TID 0000.0001)      cg2d_init_res =   2.43626753063721E+00
(PID.TID 0000.0001)      cg2d_iters(min,last) =      -1     106
(PID.TID 0000.0001)      cg2d_last_res =   9.04236084038905E-08
(PID.TID 0000.0001) // =======================================================
(PID.TID 0000.0001) // Begin MONITOR dynamic field statistics
(PID.TID 0000.0001) // =======================================================
(PID.TID 0000.0001) %MON time_tsnumber                =                     2
(PID.TID 0000.0001) %MON time_secondsf                =   2.4000000000000E+03
(PID.TID 0000.0001) %MON dynstat_eta_max              =   6.7758384414281E-04
(PID.TID 0000.0001) %MON dynstat_eta_min              =  -7.3381947552727E-04
(PID.TID 0000.0001) %MON dynstat_eta_mean             =  -1.9741465979152E-15
(PID.TID 0000.0001) %MON dynstat_eta_sd               =   2.5395314680457E-04
(PID.TID 0000.0001) %MON dynstat_eta_del2             =   1.6208172706938E-08
(PID.TID 0000.0001) %MON dynstat_uvel_max             =   3.6190848547517E-05
(PID.TID 0000.0001) %MON dynstat_uvel_min             =  -3.6186968073227E-05
(PID.TID 0000.0001) %MON dynstat_uvel_mean            =   7.2624744836893E-21
(PID.TID 0000.0001) %MON dynstat_uvel_sd              =   1.9425827571506E-05
(PID.TID 0000.0001) %MON dynstat_uvel_del2            =   1.4545802953777E-09
(PID.TID 0000.0001) %MON dynstat_vvel_max             =   3.4660498126437E-05
(PID.TID 0000.0001) %MON dynstat_vvel_min             =  -3.4641383987592E-05
(PID.TID 0000.0001) %MON dynstat_vvel_mean            =  -2.6950753616319E-08
(PID.TID 0000.0001) %MON dynstat_vvel_sd              =   1.1914748528259E-05
(PID.TID 0000.0001) %MON dynstat_vvel_del2            =   1.0159937821175E-09
(PID.TID 0000.0001) %MON dynstat_wvel_max             =   2.1374821503704E-07
(PID.TID 0000.0001) %MON dynstat_wvel_min             =  -2.6061125078650E-07
(PID.TID 0000.0001) %MON dynstat_wvel_mean            =  -3.4358688733644E-24
(PID.TID 0000.0001) %MON dynstat_wvel_sd              =   1.0543050436872E-07
(PID.TID 0000.0001) %MON dynstat_wvel_del2            =   8.1801963055532E-12
(PID.TID 0000.0001) %MON dynstat_theta_max            =   2.0000000000000E+01
(PID.TID 0000.0001) %MON dynstat_theta_min            =   2.0000000000000E+01
(PID.TID 0000.0001) %MON dynstat_theta_mean           =   2.0000000000000E+01
(PID.TID 0000.0001) %MON dynstat_theta_sd             =   0.0000000000000E+00
(PID.TID 0000.0001) %MON dynstat_theta_del2           =   0.0000000000000E+00
(PID.TID 0000.0001) %MON dynstat_salt_max             =   3.0000000000000E+01
(PID.TID 0000.0001) %MON dynstat_salt_min             =   3.0000000000000E+01
(PID.TID 0000.0001) %MON dynstat_salt_mean            =   3.0000000000000E+01
(PID.TID 0000.0001) %MON dynstat_salt_sd              =   0.0000000000000E+00
(PID.TID 0000.0001) %MON dynstat_salt_del2            =   0.0000000000000E+00
(PID.TID 0000.0001) %MON trAdv_CFL_u_max              =   1.2560703967601E-06
(PID.TID 0000.0001) %MON trAdv_CFL_v_max              =   7.7882542807025E-07
(PID.TID 0000.0001) %MON trAdv_CFL_w_max              =   8.4217184093102E-08
(PID.TID 0000.0001) %MON advcfl_uvel_max              =   2.1714509128510E-06
(PID.TID 0000.0001) %MON advcfl_vvel_max              =   2.0796298875862E-06
(PID.TID 0000.0001) %MON advcfl_wvel_max              =   1.2509340037752E-07
(PID.TID 0000.0001) %MON advcfl_W_hf_max              =   0.0000000000000E+00
(PID.TID 0000.0001) %MON pe_b_mean                    =   6.3266848957278E-11
(PID.TID 0000.0001) %MON ke_max                       =   6.5471059062026E-10
(PID.TID 0000.0001) %MON ke_mean                      =   2.5533466170573E-10
(PID.TID 0000.0001) %MON ke_vol                       =   7.2000000000000E+15
(PID.TID 0000.0001) %MON vort_r_min                   =  -1.2639660756763E-10
(PID.TID 0000.0001) %MON vort_r_max                   =   1.8095424273758E-09
(PID.TID 0000.0001) %MON vort_a_mean                  =   1.0600000000000E-04
(PID.TID 0000.0001) %MON vort_a_sd                    =   3.5177554335356E-06
(PID.TID 0000.0001) %MON vort_p_mean                  =   1.1130000000000E-04
(PID.TID 0000.0001) %MON vort_p_sd                    =   4.0928157819607E-05
(PID.TID 0000.0001) %MON surfExpan_theta_mean         =   1.0831829260698E-22
(PID.TID 0000.0001) %MON surfExpan_salt_mean          =  -1.5789838572447E-24
(PID.TID 0000.0001) // =======================================================
(PID.TID 0000.0001) // End MONITOR dynamic field statistics
(PID.TID 0000.0001) // =======================================================
 cg2d: Sum(rhs),rhsMax =   8.40966296600243E-10  4.69500491569728E-04
(PID.TID 0000.0001)      cg2d_init_res =   1.44917644409902E+00
(PID.TID 0000.0001)      cg2d_iters(min,last) =      -1     104
(PID.TID 0000.0001)      cg2d_last_res =   8.60477923814705E-08
(PID.TID 0000.0001) // =======================================================
(PID.TID 0000.0001) // Begin MONITOR dynamic field statistics
(PID.TID 0000.0001) // =======================================================
(PID.TID 0000.0001) %MON time_tsnumber                =                     3
(PID.TID 0000.0001) %MON time_secondsf                =   3.6000000000000E+03
(PID.TID 0000.0001) %MON dynstat_eta_max              =   7.6548436675078E-04
(PID.TID 0000.0001) %MON dynstat_eta_min              =  -8.8814310029333E-04
(PID.TID 0000.0001) %MON dynstat_eta_mean             =  -2.6282079021136E-15
(PID.TID 0000.0001) %MON dynstat_eta_sd               =   3.1735956302879E-04
(PID.TID 0000.0001) %MON dynstat_eta_del2             =   1.7141656389638E-08
(PID.TID 0000.0001) %MON dynstat_uvel_max             =   4.7294450665732E-05
(PID.TID 0000.0001) %MON dynstat_uvel_min             =  -4.7293807700005E-05
(PID.TID 0000.0001) %MON dynstat_uvel_mean            =  -5.9119621489805E-09
(PID.TID 0000.0001) %MON dynstat_uvel_sd              =   2.5112255656496E-05
(PID.TID 0000.0001) %MON dynstat_uvel_del2            =   1.9107875784273E-09
(PID.TID 0000.0001) %MON dynstat_vvel_max             =   5.9952135724205E-05
(PID.TID 0000.0001) %MON dynstat_vvel_min             =  -5.9827737820094E-05
(PID.TID 0000.0001) %MON dynstat_vvel_mean            =  -4.0502860938812E-08
(PID.TID 0000.0001) %MON dynstat_vvel_sd              =   2.1633726583306E-05
(PID.TID 0000.0001) %MON dynstat_vvel_del2            =   1.4688119436462E-09
(PID.TID 0000.0001) %MON dynstat_wvel_max             =   7.4816970502550E-08
(PID.TID 0000.0001) %MON dynstat_wvel_min             =  -1.2860301967753E-07
(PID.TID 0000.0001) %MON dynstat_wvel_mean            =  -7.7529370577799E-24
(PID.TID 0000.0001) %MON dynstat_wvel_sd              =   5.6205430085046E-08
(PID.TID 0000.0001) %MON dynstat_wvel_del2            =   4.5350417594942E-12
(PID.TID 0000.0001) %MON dynstat_theta_max            =   2.0000000000000E+01
(PID.TID 0000.0001) %MON dynstat_theta_min            =   2.0000000000000E+01
(PID.TID 0000.0001) %MON dynstat_theta_mean           =   2.0000000000000E+01
(PID.TID 0000.0001) %MON dynstat_theta_sd             =   0.0000000000000E+00
(PID.TID 0000.0001) %MON dynstat_theta_del2           =   0.0000000000000E+00
(PID.TID 0000.0001) %MON dynstat_salt_max             =   3.0000000000000E+01
(PID.TID 0000.0001) %MON dynstat_salt_min             =   3.0000000000000E+01
(PID.TID 0000.0001) %MON dynstat_salt_mean            =   3.0000000000000E+01
(PID.TID 0000.0001) %MON dynstat_salt_sd              =   0.0000000000000E+00
(PID.TID 0000.0001) %MON dynstat_salt_del2            =   0.0000000000000E+00
(PID.TID 0000.0001) %MON trAdv_CFL_u_max              =   2.1714509128510E-06
(PID.TID 0000.0001) %MON trAdv_CFL_v_max              =   2.0796298875862E-06
(PID.TID 0000.0001) %MON trAdv_CFL_w_max              =   5.1299571608891E-08
(PID.TID 0000.0001) %MON advcfl_uvel_max              =   2.8376670399439E-06
(PID.TID 0000.0001) %MON advcfl_vvel_max              =   3.5971281434523E-06
(PID.TID 0000.0001) %MON advcfl_wvel_max              =   6.1729449445213E-08
(PID.TID 0000.0001) %MON advcfl_W_hf_max              =   0.0000000000000E+00
(PID.TID 0000.0001) %MON pe_b_mean                    =   9.8803467493153E-11
(PID.TID 0000.0001) %MON ke_max                       =   1.7967205854479E-09
(PID.TID 0000.0001) %MON ke_mean                      =   5.4016721619015E-10
(PID.TID 0000.0001) %MON ke_vol                       =   7.2000000000000E+15
(PID.TID 0000.0001) %MON vort_r_min                   =  -1.8992134066261E-10
(PID.TID 0000.0001) %MON vort_r_max                   =   2.9976067862102E-09
(PID.TID 0000.0001) %MON vort_a_mean                  =   1.0600000000000E-04
(PID.TID 0000.0001) %MON vort_a_sd                    =   3.5177554383338E-06
(PID.TID 0000.0001) %MON vort_p_mean                  =   1.1130000000000E-04
(PID.TID 0000.0001) %MON vort_p_sd                    =   4.0928466364285E-05
(PID.TID 0000.0001) %MON surfExpan_theta_mean         =   1.9737298215558E-24
(PID.TID 0000.0001) %MON surfExpan_salt_mean          =  -3.1003348036999E-22
(PID.TID 0000.0001) // =======================================================
(PID.TID 0000.0001) // End MONITOR dynamic field statistics
(PID.TID 0000.0001) // =======================================================
 cg2d: Sum(rhs),rhsMax =   1.07877695665337E-09  4.87249555766483E-04
(PID.TID 0000.0001)      cg2d_init_res =   1.06580192580488E+00
(PID.TID 0000.0001)      cg2d_iters(min,last) =      -1     102
(PID.TID 0000.0001)      cg2d_last_res =   8.61058520499172E-08
(PID.TID 0000.0001) // =======================================================
(PID.TID 0000.0001) // Begin MONITOR dynamic field statistics
(PID.TID 0000.0001) // =======================================================
(PID.TID 0000.0001) %MON time_tsnumber                =                     4
(PID.TID 0000.0001) %MON time_secondsf                =   4.8000000000000E+03
(PID.TID 0000.0001) %MON dynstat_eta_max              =   7.3294601558701E-04
(PID.TID 0000.0001) %MON dynstat_eta_min              =  -9.1775068891420E-04
(PID.TID 0000.0001) %MON dynstat_eta_mean             =  -3.3150228857994E-15
(PID.TID 0000.0001) %MON dynstat_eta_sd               =   3.2158835157183E-04
(PID.TID 0000.0001) %MON dynstat_eta_del2             =   1.8165612259542E-08
(PID.TID 0000.0001) %MON dynstat_uvel_max             =   5.7796568709344E-05
(PID.TID 0000.0001) %MON dynstat_uvel_min             =  -5.7792220628275E-05
(PID.TID 0000.0001) %MON dynstat_uvel_mean            =  -8.6988050531826E-09
(PID.TID 0000.0001) %MON dynstat_uvel_sd              =   3.0796328229524E-05
(PID.TID 0000.0001) %MON dynstat_uvel_del2            =   2.4608376159302E-09
(PID.TID 0000.0001) %MON dynstat_vvel_max             =   8.5130330681627E-05
(PID.TID 0000.0001) %MON dynstat_vvel_min             =  -8.4773662754969E-05
(PID.TID 0000.0001) %MON dynstat_vvel_mean            =  -4.2282132289292E-08
(PID.TID 0000.0001) %MON dynstat_vvel_sd              =   3.1375792230097E-05
(PID.TID 0000.0001) %MON dynstat_vvel_del2            =   1.9724095434178E-09
(PID.TID 0000.0001) %MON dynstat_wvel_max             =   3.4019394592179E-08
(PID.TID 0000.0001) %MON dynstat_wvel_min             =  -3.4330792706417E-08
(PID.TID 0000.0001) %MON dynstat_wvel_mean            =  -9.8205216798104E-24
(PID.TID 0000.0001) %MON dynstat_wvel_sd              =   1.7828224677924E-08
(PID.TID 0000.0001) %MON dynstat_wvel_del2            =   2.5324232127218E-12
(PID.TID 0000.0001) %MON dynstat_theta_max            =   2.0000000000000E+01
(PID.TID 0000.0001) %MON dynstat_theta_min            =   2.0000000000000E+01
(PID.TID 0000.0001) %MON dynstat_theta_mean           =   2.0000000000000E+01
(PID.TID 0000.0001) %MON dynstat_theta_sd             =   0.0000000000000E+00
(PID.TID 0000.0001) %MON dynstat_theta_del2           =   0.0000000000000E+00
(PID.TID 0000.0001) %MON dynstat_salt_max             =   3.0000000000000E+01
(PID.TID 0000.0001) %MON dynstat_salt_min             =   3.0000000000000E+01
(PID.TID 0000.0001) %MON dynstat_salt_mean            =   3.0000000000000E+01
(PID.TID 0000.0001) %MON dynstat_salt_sd              =   0.0000000000000E+00
(PID.TID 0000.0001) %MON dynstat_salt_del2            =   0.0000000000000E+00
(PID.TID 0000.0001) %MON trAdv_CFL_u_max              =   2.8376670399439E-06
(PID.TID 0000.0001) %MON trAdv_CFL_v_max              =   3.5971281434523E-06
(PID.TID 0000.0001) %MON trAdv_CFL_w_max              =   1.7956072920612E-08
(PID.TID 0000.0001) %MON advcfl_uvel_max              =   3.4677941225606E-06
(PID.TID 0000.0001) %MON advcfl_vvel_max              =   5.1078198408976E-06
(PID.TID 0000.0001) %MON advcfl_wvel_max              =   1.6478780499080E-08
(PID.TID 0000.0001) %MON advcfl_W_hf_max              =   0.0000000000000E+00
(PID.TID 0000.0001) %MON pe_b_mean                    =   1.0145410557722E-10
(PID.TID 0000.0001) %MON ke_max                       =   3.6232293064703E-09
(PID.TID 0000.0001) %MON ke_mean                      =   9.5032088335123E-10
(PID.TID 0000.0001) %MON ke_vol                       =   7.2000000000000E+15
(PID.TID 0000.0001) %MON vort_r_min                   =  -2.5389204194623E-10
(PID.TID 0000.0001) %MON vort_r_max                   =   4.2565165340813E-09
(PID.TID 0000.0001) %MON vort_a_mean                  =   1.0600000000000E-04
(PID.TID 0000.0001) %MON vort_a_sd                    =   3.5177554606572E-06
(PID.TID 0000.0001) %MON vort_p_mean                  =   1.1130000000000E-04
(PID.TID 0000.0001) %MON vort_p_sd                    =   4.0928774224893E-05
(PID.TID 0000.0001) %MON surfExpan_theta_mean         =  -2.5737436873088E-22
(PID.TID 0000.0001) %MON surfExpan_salt_mean          =  -1.6381957518913E-22
(PID.TID 0000.0001) // =======================================================
(PID.TID 0000.0001) // End MONITOR dynamic field statistics
(PID.TID 0000.0001) // =======================================================
 cg2d: Sum(rhs),rhsMax =   1.31611976872392E-09  5.03746102821348E-04
(PID.TID 0000.0001)      cg2d_init_res =   1.04266756093831E+00
(PID.TID 0000.0001)      cg2d_iters(min,last) =      -1     102
(PID.TID 0000.0001)      cg2d_last_res =   8.56171920858307E-08
(PID.TID 0000.0001) // =======================================================
(PID.TID 0000.0001) // Begin MONITOR dynamic field statistics
(PID.TID 0000.0001) // =======================================================
(PID.TID 0000.0001) %MON time_tsnumber                =                     5
(PID.TID 0000.0001) %MON time_secondsf                =   6.0000000000000E+03
(PID.TID 0000.0001) %MON dynstat_eta_max              =   6.4601863339867E-04
(PID.TID 0000.0001) %MON dynstat_eta_min              =  -8.8514808779668E-04
(PID.TID 0000.0001) %MON dynstat_eta_mean             =  -4.2811335126559E-15
(PID.TID 0000.0001) %MON dynstat_eta_sd               =   2.9666946922339E-04
(PID.TID 0000.0001) %MON dynstat_eta_del2             =   1.9032280609204E-08
(PID.TID 0000.0001) %MON dynstat_uvel_max             =   6.9982055395058E-05
(PID.TID 0000.0001) %MON dynstat_uvel_min             =  -6.9969529346477E-05
(PID.TID 0000.0001) %MON dynstat_uvel_mean            =  -8.0007791046952E-09
(PID.TID 0000.0001) %MON dynstat_uvel_sd              =   3.7451177205140E-05
(PID.TID 0000.0001) %MON dynstat_uvel_del2            =   3.1061297137337E-09
(PID.TID 0000.0001) %MON dynstat_vvel_max             =   1.0843571911298E-04
(PID.TID 0000.0001) %MON dynstat_vvel_min             =  -1.0772875274684E-04
(PID.TID 0000.0001) %MON dynstat_vvel_mean            =  -3.8289745962863E-08
(PID.TID 0000.0001) %MON dynstat_vvel_sd              =   4.0200445446793E-05
(PID.TID 0000.0001) %MON dynstat_vvel_del2            =   2.5352106144587E-09
(PID.TID 0000.0001) %MON dynstat_wvel_max             =   3.1511647555811E-08
(PID.TID 0000.0001) %MON dynstat_wvel_min             =  -7.5134212302774E-08
(PID.TID 0000.0001) %MON dynstat_wvel_mean            =   7.2193668327398E-24
(PID.TID 0000.0001) %MON dynstat_wvel_sd              =   2.9604719219167E-08
(PID.TID 0000.0001) %MON dynstat_wvel_del2            =   2.5759831434479E-12
(PID.TID 0000.0001) %MON dynstat_theta_max            =   2.0000000000000E+01
(PID.TID 0000.0001) %MON dynstat_theta_min            =   2.0000000000000E+01
(PID.TID 0000.0001) %MON dynstat_theta_mean           =   2.0000000000000E+01
(PID.TID 0000.0001) %MON dynstat_theta_sd             =   0.0000000000000E+00
(PID.TID 0000.0001) %MON dynstat_theta_del2           =   0.0000000000000E+00
(PID.TID 0000.0001) %MON dynstat_salt_max             =   3.0000000000000E+01
(PID.TID 0000.0001) %MON dynstat_salt_min             =   3.0000000000000E+01
(PID.TID 0000.0001) %MON dynstat_salt_mean            =   3.0000000000000E+01
(PID.TID 0000.0001) %MON dynstat_salt_sd              =   0.0000000000000E+00
(PID.TID 0000.0001) %MON dynstat_salt_del2            =   0.0000000000000E+00
(PID.TID 0000.0001) %MON trAdv_CFL_u_max              =   3.4677941225606E-06
(PID.TID 0000.0001) %MON trAdv_CFL_v_max              =   5.1078198408976E-06
(PID.TID 0000.0001) %MON trAdv_CFL_w_max              =   8.1646547021231E-09
(PID.TID 0000.0001) %MON advcfl_uvel_max              =   4.1989233237035E-06
(PID.TID 0000.0001) %MON advcfl_vvel_max              =   6.5061431467790E-06
(PID.TID 0000.0001) %MON advcfl_wvel_max              =   3.6064421905332E-08
(PID.TID 0000.0001) %MON advcfl_W_hf_max              =   0.0000000000000E+00
(PID.TID 0000.0001) %MON pe_b_mean                    =   8.6340531263869E-11
(PID.TID 0000.0001) %MON ke_max                       =   5.8771744729617E-09
(PID.TID 0000.0001) %MON ke_mean                      =   1.4841784423252E-09
(PID.TID 0000.0001) %MON ke_vol                       =   7.2000000000000E+15
(PID.TID 0000.0001) %MON vort_r_min                   =  -3.1841179574551E-10
(PID.TID 0000.0001) %MON vort_r_max                   =   5.4217859556491E-09
(PID.TID 0000.0001) %MON vort_a_mean                  =   1.0600000000000E-04
(PID.TID 0000.0001) %MON vort_a_sd                    =   3.5177555007166E-06
(PID.TID 0000.0001) %MON vort_p_mean                  =   1.1130000000000E-04
(PID.TID 0000.0001) %MON vort_p_sd                    =   4.0929081372964E-05
(PID.TID 0000.0001) %MON surfExpan_theta_mean         =  -2.1000485301354E-23
(PID.TID 0000.0001) %MON surfExpan_salt_mean          =   5.2738060831972E-23
(PID.TID 0000.0001) // =======================================================
(PID.TID 0000.0001) // End MONITOR dynamic field statistics
(PID.TID 0000.0001) // =======================================================
 cg2d: Sum(rhs),rhsMax =   1.64350322240381E-09  5.20990584498866E-04
(PID.TID 0000.0001)      cg2d_init_res =   9.71502991231296E-01
(PID.TID 0000.0001)      cg2d_iters(min,last) =      -1     103
(PID.TID 0000.0001)      cg2d_last_res =   8.56829816876788E-08
(PID.TID 0000.0001) // =======================================================
(PID.TID 0000.0001) // Begin MONITOR dynamic field statistics
(PID.TID 0000.0001) // =======================================================
(PID.TID 0000.0001) %MON time_tsnumber                =                     6
(PID.TID 0000.0001) %MON time_secondsf                =   7.2000000000000E+03
(PID.TID 0000.0001) %MON dynstat_eta_max              =   5.6017071779290E-04
(PID.TID 0000.0001) %MON dynstat_eta_min              =  -8.4911882919894E-04
(PID.TID 0000.0001) %MON dynstat_eta_mean             =  -4.7874577509032E-15
(PID.TID 0000.0001) %MON dynstat_eta_sd               =   2.7271686987461E-04
(PID.TID 0000.0001) %MON dynstat_eta_del2             =   2.0262373694463E-08
(PID.TID 0000.0001) %MON dynstat_uvel_max             =   8.4135154897121E-05
(PID.TID 0000.0001) %MON dynstat_uvel_min             =  -8.4110529167129E-05
(PID.TID 0000.0001) %MON dynstat_uvel_mean            =  -5.8431623935454E-09
(PID.TID 0000.0001) %MON dynstat_uvel_sd              =   4.5083707243490E-05
(PID.TID 0000.0001) %MON dynstat_uvel_del2            =   3.8404722777624E-09
(PID.TID 0000.0001) %MON dynstat_vvel_max             =   1.2982791941213E-04
(PID.TID 0000.0001) %MON dynstat_vvel_min             =  -1.2868337955478E-04
(PID.TID 0000.0001) %MON dynstat_vvel_mean            =  -3.3455025026135E-08
(PID.TID 0000.0001) %MON dynstat_vvel_sd              =   4.8079417235975E-05
(PID.TID 0000.0001) %MON dynstat_vvel_del2            =   3.1614427427396E-09
(PID.TID 0000.0001) %MON dynstat_wvel_max             =   3.3453920775471E-08
(PID.TID 0000.0001) %MON dynstat_wvel_min             =  -7.3900620525531E-08
(PID.TID 0000.0001) %MON dynstat_wvel_mean            =   1.8254569214251E-23
(PID.TID 0000.0001) %MON dynstat_wvel_sd              =   2.9660473599808E-08
(PID.TID 0000.0001) %MON dynstat_wvel_del2            =   2.4784868617241E-12
(PID.TID 0000.0001) %MON dynstat_theta_max            =   2.0000000000000E+01
(PID.TID 0000.0001) %MON dynstat_theta_min            =   2.0000000000000E+01
(PID.TID 0000.0001) %MON dynstat_theta_mean           =   2.0000000000000E+01
(PID.TID 0000.0001) %MON dynstat_theta_sd             =   0.0000000000000E+00
(PID.TID 0000.0001) %MON dynstat_theta_del2           =   0.0000000000000E+00
(PID.TID 0000.0001) %MON dynstat_salt_max             =   3.0000000000000E+01
(PID.TID 0000.0001) %MON dynstat_salt_min             =   3.0000000000000E+01
(PID.TID 0000.0001) %MON dynstat_salt_mean            =   3.0000000000000E+01
(PID.TID 0000.0001) %MON dynstat_salt_sd              =   0.0000000000000E+00
(PID.TID 0000.0001) %MON dynstat_salt_del2            =   0.0000000000000E+00
(PID.TID 0000.0001) %MON trAdv_CFL_u_max              =   4.1989233237035E-06
(PID.TID 0000.0001) %MON trAdv_CFL_v_max              =   6.5061431467790E-06
(PID.TID 0000.0001) %MON trAdv_CFL_w_max              =   7.5627954133947E-09
(PID.TID 0000.0001) %MON advcfl_uvel_max              =   5.0481092938272E-06
(PID.TID 0000.0001) %MON advcfl_vvel_max              =   7.7896751647276E-06
(PID.TID 0000.0001) %MON advcfl_wvel_max              =   3.5472297852255E-08
(PID.TID 0000.0001) %MON advcfl_W_hf_max              =   0.0000000000000E+00
(PID.TID 0000.0001) %MON pe_b_mean                    =   7.2961375783035E-11
(PID.TID 0000.0001) %MON ke_max                       =   8.4218418632465E-09
(PID.TID 0000.0001) %MON ke_mean                      =   2.1358846521916E-09
(PID.TID 0000.0001) %MON ke_vol                       =   7.2000000000000E+15
(PID.TID 0000.0001) %MON vort_r_min                   =  -3.8306245508759E-10
(PID.TID 0000.0001) %MON vort_r_max                   =   6.4913959706063E-09
(PID.TID 0000.0001) %MON vort_a_mean                  =   1.0600000000000E-04
(PID.TID 0000.0001) %MON vort_a_sd                    =   3.5177555523139E-06
(PID.TID 0000.0001) %MON vort_p_mean                  =   1.1130000000000E-04
(PID.TID 0000.0001) %MON vort_p_sd                    =   4.0929387791689E-05
(PID.TID 0000.0001) %MON surfExpan_theta_mean         =   3.4871858487248E-22
(PID.TID 0000.0001) %MON surfExpan_salt_mean          =   8.0046586643018E-22
(PID.TID 0000.0001) // =======================================================
(PID.TID 0000.0001) // End MONITOR dynamic field statistics
(PID.TID 0000.0001) // =======================================================
 cg2d: Sum(rhs),rhsMax =   1.76783487848553E-09  5.41620638207755E-04
(PID.TID 0000.0001)      cg2d_init_res =   8.66118567863755E-01
(PID.TID 0000.0001)      cg2d_iters(min,last) =      -1     103
(PID.TID 0000.0001)      cg2d_last_res =   8.00861936450805E-08
(PID.TID 0000.0001) // =======================================================
(PID.TID 0000.0001) // Begin MONITOR dynamic field statistics
(PID.TID 0000.0001) // =======================================================
(PID.TID 0000.0001) %MON time_tsnumber                =                     7
(PID.TID 0000.0001) %MON time_secondsf                =   8.4000000000000E+03
(PID.TID 0000.0001) %MON dynstat_eta_max              =   5.0325546372223E-04
(PID.TID 0000.0001) %MON dynstat_eta_min              =  -8.4177473881595E-04
(PID.TID 0000.0001) %MON dynstat_eta_mean             =  -5.2978095743391E-15
(PID.TID 0000.0001) %MON dynstat_eta_sd               =   2.6436270415529E-04
(PID.TID 0000.0001) %MON dynstat_eta_del2             =   2.1809425061426E-08
(PID.TID 0000.0001) %MON dynstat_uvel_max             =   9.9371840164019E-05
(PID.TID 0000.0001) %MON dynstat_uvel_min             =  -9.9360536763105E-05
(PID.TID 0000.0001) %MON dynstat_uvel_mean            =  -4.1959726525845E-09
(PID.TID 0000.0001) %MON dynstat_uvel_sd              =   5.3222829615871E-05
(PID.TID 0000.0001) %MON dynstat_uvel_del2            =   4.6485704177281E-09
(PID.TID 0000.0001) %MON dynstat_vvel_max             =   1.5017750584046E-04
(PID.TID 0000.0001) %MON dynstat_vvel_min             =  -1.4853141379839E-04
(PID.TID 0000.0001) %MON dynstat_vvel_mean            =  -3.0579796040103E-08
(PID.TID 0000.0001) %MON dynstat_vvel_sd              =   5.5459821098227E-05
(PID.TID 0000.0001) %MON dynstat_vvel_del2            =   3.8604375565775E-09
(PID.TID 0000.0001) %MON dynstat_wvel_max             =   2.6309858626960E-08
(PID.TID 0000.0001) %MON dynstat_wvel_min             =  -4.9486082810395E-08
(PID.TID 0000.0001) %MON dynstat_wvel_mean            =   2.3788339199705E-24
(PID.TID 0000.0001) %MON dynstat_wvel_sd              =   1.9795052221661E-08
(PID.TID 0000.0001) %MON dynstat_wvel_del2            =   2.0840607644330E-12
(PID.TID 0000.0001) %MON dynstat_theta_max            =   2.0000000000000E+01
(PID.TID 0000.0001) %MON dynstat_theta_min            =   2.0000000000000E+01
(PID.TID 0000.0001) %MON dynstat_theta_mean           =   2.0000000000000E+01
(PID.TID 0000.0001) %MON dynstat_theta_sd             =   0.0000000000000E+00
(PID.TID 0000.0001) %MON dynstat_theta_del2           =   0.0000000000000E+00
(PID.TID 0000.0001) %MON dynstat_salt_max             =   3.0000000000000E+01
(PID.TID 0000.0001) %MON dynstat_salt_min             =   3.0000000000000E+01
(PID.TID 0000.0001) %MON dynstat_salt_mean            =   3.0000000000000E+01
(PID.TID 0000.0001) %MON dynstat_salt_sd              =   0.0000000000000E+00
(PID.TID 0000.0001) %MON dynstat_salt_del2            =   0.0000000000000E+00
(PID.TID 0000.0001) %MON trAdv_CFL_u_max              =   5.0481092938272E-06
(PID.TID 0000.0001) %MON trAdv_CFL_v_max              =   7.7896751647276E-06
(PID.TID 0000.0001) %MON trAdv_CFL_w_max              =   8.0289409861130E-09
(PID.TID 0000.0001) %MON advcfl_uvel_max              =   5.9623104098411E-06
(PID.TID 0000.0001) %MON advcfl_vvel_max              =   9.0106503504276E-06
(PID.TID 0000.0001) %MON advcfl_wvel_max              =   2.3753319748990E-08
(PID.TID 0000.0001) %MON advcfl_W_hf_max              =   0.0000000000000E+00
(PID.TID 0000.0001) %MON pe_b_mean                    =   6.8559774200679E-11
(PID.TID 0000.0001) %MON ke_max                       =   1.1265862518610E-08
(PID.TID 0000.0001) %MON ke_mean                      =   2.9049939648046E-09
(PID.TID 0000.0001) %MON ke_vol                       =   7.2000000000000E+15
(PID.TID 0000.0001) %MON vort_r_min                   =  -4.4768139614111E-10
(PID.TID 0000.0001) %MON vort_r_max                   =   7.5088752920230E-09
(PID.TID 0000.0001) %MON vort_a_mean                  =   1.0600000000000E-04
(PID.TID 0000.0001) %MON vort_a_sd                    =   3.5177556101366E-06
(PID.TID 0000.0001) %MON vort_p_mean                  =   1.1130000000000E-04
(PID.TID 0000.0001) %MON vort_p_sd                    =   4.0929693468071E-05
(PID.TID 0000.0001) %MON surfExpan_theta_mean         =   1.0610771520684E-22
(PID.TID 0000.0001) %MON surfExpan_salt_mean          =  -9.3160047577435E-23
(PID.TID 0000.0001) // =======================================================
(PID.TID 0000.0001) // End MONITOR dynamic field statistics
(PID.TID 0000.0001) // =======================================================
 cg2d: Sum(rhs),rhsMax =   1.86995319229055E-09  5.66631268108299E-04
(PID.TID 0000.0001)      cg2d_init_res =   8.07791861451064E-01
(PID.TID 0000.0001)      cg2d_iters(min,last) =      -1      99
(PID.TID 0000.0001)      cg2d_last_res =   9.85887178389471E-08
(PID.TID 0000.0001) // =======================================================
(PID.TID 0000.0001) // Begin MONITOR dynamic field statistics
(PID.TID 0000.0001) // =======================================================
(PID.TID 0000.0001) %MON time_tsnumber                =                     8
(PID.TID 0000.0001) %MON time_secondsf                =   9.6000000000000E+03
(PID.TID 0000.0001) %MON dynstat_eta_max              =   4.7628159266184E-04
(PID.TID 0000.0001) %MON dynstat_eta_min              =  -8.6595025019332E-04
(PID.TID 0000.0001) %MON dynstat_eta_mean             =  -6.5848658978939E-15
(PID.TID 0000.0001) %MON dynstat_eta_sd               =   2.7127781722186E-04
(PID.TID 0000.0001) %MON dynstat_eta_del2             =   2.3518886093097E-08
(PID.TID 0000.0001) %MON dynstat_uvel_max             =   1.1471252083232E-04
(PID.TID 0000.0001) %MON dynstat_uvel_min             =  -1.1471115498067E-04
(PID.TID 0000.0001) %MON dynstat_uvel_mean            =  -4.0105142131784E-09
(PID.TID 0000.0001) %MON dynstat_uvel_sd              =   6.1387083894357E-05
(PID.TID 0000.0001) %MON dynstat_uvel_del2            =   5.5137139625205E-09
(PID.TID 0000.0001) %MON dynstat_vvel_max             =   1.7042328456544E-04
(PID.TID 0000.0001) %MON dynstat_vvel_min             =  -1.6821833209836E-04
(PID.TID 0000.0001) %MON dynstat_vvel_mean            =  -3.0121749630550E-08
(PID.TID 0000.0001) %MON dynstat_vvel_sd              =   6.2808009337628E-05
(PID.TID 0000.0001) %MON dynstat_vvel_del2            =   4.6422126023228E-09
(PID.TID 0000.0001) %MON dynstat_wvel_max             =   2.7251895525456E-08
(PID.TID 0000.0001) %MON dynstat_wvel_min             =  -2.7573359395087E-08
(PID.TID 0000.0001) %MON dynstat_wvel_mean            =   1.2429760924230E-25
(PID.TID 0000.0001) %MON dynstat_wvel_sd              =   1.4817557419754E-08
(PID.TID 0000.0001) %MON dynstat_wvel_del2            =   2.0005457229020E-12
(PID.TID 0000.0001) %MON dynstat_theta_max            =   2.0000000000000E+01
(PID.TID 0000.0001) %MON dynstat_theta_min            =   2.0000000000000E+01
(PID.TID 0000.0001) %MON dynstat_theta_mean           =   2.0000000000000E+01
(PID.TID 0000.0001) %MON dynstat_theta_sd             =   0.0000000000000E+00
(PID.TID 0000.0001) %MON dynstat_theta_del2           =   0.0000000000000E+00
(PID.TID 0000.0001) %MON dynstat_salt_max             =   3.0000000000000E+01
(PID.TID 0000.0001) %MON dynstat_salt_min             =   3.0000000000000E+01
(PID.TID 0000.0001) %MON dynstat_salt_mean            =   3.0000000000000E+01
(PID.TID 0000.0001) %MON dynstat_salt_sd              =   0.0000000000000E+00
(PID.TID 0000.0001) %MON dynstat_salt_del2            =   0.0000000000000E+00
(PID.TID 0000.0001) %MON trAdv_CFL_u_max              =   5.9623104098411E-06
(PID.TID 0000.0001) %MON trAdv_CFL_v_max              =   9.0106503504276E-06
(PID.TID 0000.0001) %MON trAdv_CFL_w_max              =   6.3143660704705E-09
(PID.TID 0000.0001) %MON advcfl_uvel_max              =   6.8827512499391E-06
(PID.TID 0000.0001) %MON advcfl_vvel_max              =   1.0225397073926E-05
(PID.TID 0000.0001) %MON advcfl_wvel_max              =   1.3235212509642E-08
(PID.TID 0000.0001) %MON advcfl_W_hf_max              =   0.0000000000000E+00
(PID.TID 0000.0001) %MON pe_b_mean                    =   7.2193412688439E-11
(PID.TID 0000.0001) %MON ke_max                       =   1.4506395923196E-08
(PID.TID 0000.0001) %MON ke_mean                      =   3.7923336727945E-09
(PID.TID 0000.0001) %MON ke_vol                       =   7.2000000000000E+15
(PID.TID 0000.0001) %MON vort_r_min                   =  -5.1235833920541E-10
(PID.TID 0000.0001) %MON vort_r_max                   =   8.5211642282720E-09
(PID.TID 0000.0001) %MON vort_a_mean                  =   1.0600000000000E-04
(PID.TID 0000.0001) %MON vort_a_sd                    =   3.5177556719069E-06
(PID.TID 0000.0001) %MON vort_p_mean                  =   1.1130000000000E-04
(PID.TID 0000.0001) %MON vort_p_sd                    =   4.0929998398577E-05
(PID.TID 0000.0001) %MON surfExpan_theta_mean         =  -2.3242642378641E-22
(PID.TID 0000.0001) %MON surfExpan_salt_mean          =   1.0152866202083E-22
(PID.TID 0000.0001) // =======================================================
(PID.TID 0000.0001) // End MONITOR dynamic field statistics
(PID.TID 0000.0001) // =======================================================
 cg2d: Sum(rhs),rhsMax =   2.20969642583668E-09  5.96007458958334E-04
(PID.TID 0000.0001)      cg2d_init_res =   7.73479850827268E-01
(PID.TID 0000.0001)      cg2d_iters(min,last) =      -1      99
(PID.TID 0000.0001)      cg2d_last_res =   8.31786752027686E-08
(PID.TID 0000.0001) // =======================================================
(PID.TID 0000.0001) // Begin MONITOR dynamic field statistics
(PID.TID 0000.0001) // =======================================================
(PID.TID 0000.0001) %MON time_tsnumber                =                     9
(PID.TID 0000.0001) %MON time_secondsf                =   1.0800000000000E+04
(PID.TID 0000.0001) %MON dynstat_eta_max              =   4.6570416217033E-04
(PID.TID 0000.0001) %MON dynstat_eta_min              =  -9.0770929666066E-04
(PID.TID 0000.0001) %MON dynstat_eta_mean             =  -7.6622624860870E-15
(PID.TID 0000.0001) %MON dynstat_eta_sd               =   2.8626184297893E-04
(PID.TID 0000.0001) %MON dynstat_eta_del2             =   2.5339141928624E-08
(PID.TID 0000.0001) %MON dynstat_uvel_max             =   1.2961391019296E-04
(PID.TID 0000.0001) %MON dynstat_uvel_min             =  -1.2961208540050E-04
(PID.TID 0000.0001) %MON dynstat_uvel_mean            =  -5.2275446618817E-09
(PID.TID 0000.0001) %MON dynstat_uvel_sd              =   6.9322341172538E-05
(PID.TID 0000.0001) %MON dynstat_uvel_del2            =   6.4269711115228E-09
(PID.TID 0000.0001) %MON dynstat_vvel_max             =   1.9109079060542E-04
(PID.TID 0000.0001) %MON dynstat_vvel_min             =  -1.8826486494551E-04
(PID.TID 0000.0001) %MON dynstat_vvel_mean            =  -3.1069766692097E-08
(PID.TID 0000.0001) %MON dynstat_vvel_sd              =   7.0373811702148E-05
(PID.TID 0000.0001) %MON dynstat_vvel_del2            =   5.5157764455827E-09
(PID.TID 0000.0001) %MON dynstat_wvel_max             =   2.7720893686122E-08
(PID.TID 0000.0001) %MON dynstat_wvel_min             =  -3.4799209334185E-08
(PID.TID 0000.0001) %MON dynstat_wvel_mean            =   3.7535856891837E-23
(PID.TID 0000.0001) %MON dynstat_wvel_sd              =   1.6109812640396E-08
(PID.TID 0000.0001) %MON dynstat_wvel_del2            =   2.0443970716017E-12
(PID.TID 0000.0001) %MON dynstat_theta_max            =   2.0000000000000E+01
(PID.TID 0000.0001) %MON dynstat_theta_min            =   2.0000000000000E+01
(PID.TID 0000.0001) %MON dynstat_theta_mean           =   2.0000000000000E+01
(PID.TID 0000.0001) %MON dynstat_theta_sd             =   0.0000000000000E+00
(PID.TID 0000.0001) %MON dynstat_theta_del2           =   0.0000000000000E+00
(PID.TID 0000.0001) %MON dynstat_salt_max             =   3.0000000000000E+01
(PID.TID 0000.0001) %MON dynstat_salt_min             =   3.0000000000000E+01
(PID.TID 0000.0001) %MON dynstat_salt_mean            =   3.0000000000000E+01
(PID.TID 0000.0001) %MON dynstat_salt_sd              =   0.0000000000000E+00
(PID.TID 0000.0001) %MON dynstat_salt_del2            =   0.0000000000000E+00
(PID.TID 0000.0001) %MON trAdv_CFL_u_max              =   6.8827512499391E-06
(PID.TID 0000.0001) %MON trAdv_CFL_v_max              =   1.0225397073926E-05
(PID.TID 0000.0001) %MON trAdv_CFL_w_max              =   6.5404549261095E-09
(PID.TID 0000.0001) %MON advcfl_uvel_max              =   7.7768346115778E-06
(PID.TID 0000.0001) %MON advcfl_vvel_max              =   1.1465447436325E-05
(PID.TID 0000.0001) %MON advcfl_wvel_max              =   1.6703620480409E-08
(PID.TID 0000.0001) %MON advcfl_W_hf_max              =   0.0000000000000E+00
(PID.TID 0000.0001) %MON pe_b_mean                    =   8.0388871733523E-11
(PID.TID 0000.0001) %MON ke_max                       =   1.8237819716397E-08
(PID.TID 0000.0001) %MON ke_mean                      =   4.7977134979628E-09
(PID.TID 0000.0001) %MON ke_vol                       =   7.2000000000000E+15
(PID.TID 0000.0001) %MON vort_r_min                   =  -5.7726767335361E-10
(PID.TID 0000.0001) %MON vort_r_max                   =   9.5545395302710E-09
(PID.TID 0000.0001) %MON vort_a_mean                  =   1.0600000000000E-04
(PID.TID 0000.0001) %MON vort_a_sd                    =   3.5177557380199E-06
(PID.TID 0000.0001) %MON vort_p_mean                  =   1.1130000000000E-04
(PID.TID 0000.0001) %MON vort_p_sd                    =   4.0930302586895E-05
(PID.TID 0000.0001) %MON surfExpan_theta_mean         =   5.3874929209188E-22
(PID.TID 0000.0001) %MON surfExpan_salt_mean          =   1.0064443106078E-21
(PID.TID 0000.0001) // =======================================================
(PID.TID 0000.0001) // End MONITOR dynamic field statistics
(PID.TID 0000.0001) // =======================================================
 cg2d: Sum(rhs),rhsMax =   2.43778208730561E-09  6.28629464078631E-04
(PID.TID 0000.0001)      cg2d_init_res =   7.34955353976048E-01
(PID.TID 0000.0001)      cg2d_iters(min,last) =      -1     100
(PID.TID 0000.0001)      cg2d_last_res =   9.18932210656065E-08
(PID.TID 0000.0001) // =======================================================
(PID.TID 0000.0001) // Begin MONITOR dynamic field statistics
(PID.TID 0000.0001) // =======================================================
(PID.TID 0000.0001) %MON time_tsnumber                =                    10
(PID.TID 0000.0001) %MON time_secondsf                =   1.2000000000000E+04
(PID.TID 0000.0001) %MON dynstat_eta_max              =   4.5676733862490E-04
(PID.TID 0000.0001) %MON dynstat_eta_min              =  -9.5131421453442E-04
(PID.TID 0000.0001) %MON dynstat_eta_mean             =  -8.6724572877089E-15
(PID.TID 0000.0001) %MON dynstat_eta_sd               =   3.0231799026173E-04
(PID.TID 0000.0001) %MON dynstat_eta_del2             =   2.7234578961942E-08
(PID.TID 0000.0001) %MON dynstat_uvel_max             =   1.4401616544276E-04
(PID.TID 0000.0001) %MON dynstat_uvel_min             =  -1.4401699019032E-04
(PID.TID 0000.0001) %MON dynstat_uvel_mean            =  -7.2427109361382E-09
(PID.TID 0000.0001) %MON dynstat_uvel_sd              =   7.7010761663346E-05
(PID.TID 0000.0001) %MON dynstat_uvel_del2            =   7.3889646812376E-09
(PID.TID 0000.0001) %MON dynstat_vvel_max             =   2.1223857597086E-04
(PID.TID 0000.0001) %MON dynstat_vvel_min             =  -2.0872181968133E-04
(PID.TID 0000.0001) %MON dynstat_vvel_mean            =  -3.2159152485868E-08
(PID.TID 0000.0001) %MON dynstat_vvel_sd              =   7.8177415761597E-05
(PID.TID 0000.0001) %MON dynstat_vvel_del2            =   6.4878952011181E-09
(PID.TID 0000.0001) %MON dynstat_wvel_max             =   2.7732987434426E-08
(PID.TID 0000.0001) %MON dynstat_wvel_min             =  -3.6337429963575E-08
(PID.TID 0000.0001) %MON dynstat_wvel_mean            =   2.7992225821233E-24
(PID.TID 0000.0001) %MON dynstat_wvel_sd              =   1.6182048682202E-08
(PID.TID 0000.0001) %MON dynstat_wvel_del2            =   2.0105546288947E-12
(PID.TID 0000.0001) %MON dynstat_theta_max            =   2.0000000000000E+01
(PID.TID 0000.0001) %MON dynstat_theta_min            =   2.0000000000000E+01
(PID.TID 0000.0001) %MON dynstat_theta_mean           =   2.0000000000000E+01
(PID.TID 0000.0001) %MON dynstat_theta_sd             =   0.0000000000000E+00
(PID.TID 0000.0001) %MON dynstat_theta_del2           =   0.0000000000000E+00
(PID.TID 0000.0001) %MON dynstat_salt_max             =   3.0000000000000E+01
(PID.TID 0000.0001) %MON dynstat_salt_min             =   3.0000000000000E+01
(PID.TID 0000.0001) %MON dynstat_salt_mean            =   3.0000000000000E+01
(PID.TID 0000.0001) %MON dynstat_salt_sd              =   0.0000000000000E+00
(PID.TID 0000.0001) %MON dynstat_salt_del2            =   0.0000000000000E+00
(PID.TID 0000.0001) %MON trAdv_CFL_u_max              =   7.7768346115778E-06
(PID.TID 0000.0001) %MON trAdv_CFL_v_max              =   1.1465447436325E-05
(PID.TID 0000.0001) %MON trAdv_CFL_w_max              =   6.6530144846693E-09
(PID.TID 0000.0001) %MON advcfl_uvel_max              =   8.6410194114192E-06
(PID.TID 0000.0001) %MON advcfl_vvel_max              =   1.2734314558252E-05
(PID.TID 0000.0001) %MON advcfl_wvel_max              =   1.7441966382516E-08
(PID.TID 0000.0001) %MON advcfl_W_hf_max              =   0.0000000000000E+00
(PID.TID 0000.0001) %MON pe_b_mean                    =   8.9659640058411E-11
(PID.TID 0000.0001) %MON ke_max                       =   2.2498253093873E-08
(PID.TID 0000.0001) %MON ke_mean                      =   5.9208303599508E-09
(PID.TID 0000.0001) %MON ke_vol                       =   7.2000000000000E+15
(PID.TID 0000.0001) %MON vort_r_min                   =  -6.4245344991061E-10
(PID.TID 0000.0001) %MON vort_r_max                   =   1.0611928798543E-08
(PID.TID 0000.0001) %MON vort_a_mean                  =   1.0600000000000E-04
(PID.TID 0000.0001) %MON vort_a_sd                    =   3.5177558101695E-06
(PID.TID 0000.0001) %MON vort_p_mean                  =   1.1130000000000E-04
(PID.TID 0000.0001) %MON vort_p_sd                    =   4.0930606038784E-05
(PID.TID 0000.0001) %MON surfExpan_theta_mean         =   1.1272957875816E-22
(PID.TID 0000.0001) %MON surfExpan_salt_mean          =   2.8878627884094E-22
(PID.TID 0000.0001) // =======================================================
(PID.TID 0000.0001) // End MONITOR dynamic field statistics
(PID.TID 0000.0001) // =======================================================
(PID.TID 0000.0001) %CHECKPOINT        10 ckptA
(PID.TID 0000.0001)   Seconds in section "ALL                    [THE_MODEL_MAIN]":
(PID.TID 0000.0001)           User time:   1.7597330546705052
(PID.TID 0000.0001)         System time:  1.09979999251663685E-002
(PID.TID 0000.0001)     Wall clock time:   1.7741739749908447
(PID.TID 0000.0001)          No. starts:           1
(PID.TID 0000.0001)           No. stops:           1
(PID.TID 0000.0001)   Seconds in section "INITIALISE_FIXED       [THE_MODEL_MAIN]":
(PID.TID 0000.0001)           User time:  3.39949986664578319E-002
(PID.TID 0000.0001)         System time:  5.99900027737021446E-003
(PID.TID 0000.0001)     Wall clock time:  4.03058528900146484E-002
(PID.TID 0000.0001)          No. starts:           1
(PID.TID 0000.0001)           No. stops:           1
(PID.TID 0000.0001)   Seconds in section "THE_MAIN_LOOP          [THE_MODEL_MAIN]":
(PID.TID 0000.0001)           User time:   1.7257380560040474
(PID.TID 0000.0001)         System time:  4.99899964779615402E-003
(PID.TID 0000.0001)     Wall clock time:   1.7338240146636963
(PID.TID 0000.0001)          No. starts:           1
(PID.TID 0000.0001)           No. stops:           1
(PID.TID 0000.0001)   Seconds in section "INITIALISE_VARIA    [THE_MAIN_LOOP]":
(PID.TID 0000.0001)           User time:  1.49980001151561737E-002
(PID.TID 0000.0001)         System time:  2.99999956041574478E-003
(PID.TID 0000.0001)     Wall clock time:  1.72739028930664063E-002
(PID.TID 0000.0001)          No. starts:           1
(PID.TID 0000.0001)           No. stops:           1
(PID.TID 0000.0001)   Seconds in section "MAIN LOOP           [THE_MAIN_LOOP]":
(PID.TID 0000.0001)           User time:   1.7107400558888912
(PID.TID 0000.0001)         System time:  1.99900008738040924E-003
(PID.TID 0000.0001)     Wall clock time:   1.7165229320526123
(PID.TID 0000.0001)          No. starts:           1
(PID.TID 0000.0001)           No. stops:           1
(PID.TID 0000.0001)   Seconds in section "MAIN_DO_LOOP        [THE_MAIN_LOOP]":
(PID.TID 0000.0001)           User time:   1.7107400558888912
(PID.TID 0000.0001)         System time:  1.99900008738040924E-003
(PID.TID 0000.0001)     Wall clock time:   1.7164275646209717
(PID.TID 0000.0001)          No. starts:          10
(PID.TID 0000.0001)           No. stops:          10
(PID.TID 0000.0001)   Seconds in section "FORWARD_STEP        [MAIN_DO_LOOP]":
(PID.TID 0000.0001)           User time:   1.7107400558888912
(PID.TID 0000.0001)         System time:  1.99900008738040924E-003
(PID.TID 0000.0001)     Wall clock time:   1.7162511348724365
(PID.TID 0000.0001)          No. starts:          10
(PID.TID 0000.0001)           No. stops:          10
(PID.TID 0000.0001)   Seconds in section "LOAD_FIELDS_DRIVER  [FORWARD_STEP]":
(PID.TID 0000.0001)           User time:  9.99987125396728516E-004
(PID.TID 0000.0001)         System time:   0.0000000000000000
(PID.TID 0000.0001)     Wall clock time:  2.68936157226562500E-004
(PID.TID 0000.0001)          No. starts:          10
(PID.TID 0000.0001)           No. stops:          10
(PID.TID 0000.0001)   Seconds in section "EXTERNAL_FLDS_LOAD [LOAD_FLDS_DRIVER]":
(PID.TID 0000.0001)           User time:   0.0000000000000000
(PID.TID 0000.0001)         System time:   0.0000000000000000
(PID.TID 0000.0001)     Wall clock time:  8.96453857421875000E-005
(PID.TID 0000.0001)          No. starts:          10
(PID.TID 0000.0001)           No. stops:          10
(PID.TID 0000.0001)   Seconds in section "DO_ATMOSPHERIC_PHYS [FORWARD_STEP]":
(PID.TID 0000.0001)           User time:   0.0000000000000000
(PID.TID 0000.0001)         System time:   0.0000000000000000
(PID.TID 0000.0001)     Wall clock time:  8.82148742675781250E-005
(PID.TID 0000.0001)          No. starts:          10
(PID.TID 0000.0001)           No. stops:          10
(PID.TID 0000.0001)   Seconds in section "DO_OCEANIC_PHYS     [FORWARD_STEP]":
(PID.TID 0000.0001)           User time:  8.99809598922729492E-003
(PID.TID 0000.0001)         System time:   0.0000000000000000
(PID.TID 0000.0001)     Wall clock time:  9.28950309753417969E-003
(PID.TID 0000.0001)          No. starts:          10
(PID.TID 0000.0001)           No. stops:          10
(PID.TID 0000.0001)   Seconds in section "THERMODYNAMICS      [FORWARD_STEP]":
(PID.TID 0000.0001)           User time:  1.19989030063152313E-002
(PID.TID 0000.0001)         System time:   0.0000000000000000
(PID.TID 0000.0001)     Wall clock time:  1.17688179016113281E-002
(PID.TID 0000.0001)          No. starts:          10
(PID.TID 0000.0001)           No. stops:          10
(PID.TID 0000.0001)   Seconds in section "DYNAMICS            [FORWARD_STEP]":
(PID.TID 0000.0001)           User time:  0.13297909498214722
(PID.TID 0000.0001)         System time:  9.98999923467636108E-004
(PID.TID 0000.0001)     Wall clock time:  0.13373541831970215
(PID.TID 0000.0001)          No. starts:          10
(PID.TID 0000.0001)           No. stops:          10
(PID.TID 0000.0001)   Seconds in section "SOLVE_FOR_PRESSURE  [FORWARD_STEP]":
(PID.TID 0000.0001)           User time:   1.4407808035612106
(PID.TID 0000.0001)         System time:   0.0000000000000000
(PID.TID 0000.0001)     Wall clock time:   1.4440205097198486
(PID.TID 0000.0001)          No. starts:          10
(PID.TID 0000.0001)           No. stops:          10
(PID.TID 0000.0001)   Seconds in section "MOM_CORRECTION_STEP [FORWARD_STEP]":
(PID.TID 0000.0001)           User time:  1.10002309083938599E-002
(PID.TID 0000.0001)         System time:   0.0000000000000000
(PID.TID 0000.0001)     Wall clock time:  1.07390880584716797E-002
(PID.TID 0000.0001)          No. starts:          10
(PID.TID 0000.0001)           No. stops:          10
(PID.TID 0000.0001)   Seconds in section "INTEGR_CONTINUITY   [FORWARD_STEP]":
(PID.TID 0000.0001)           User time:  6.99888169765472412E-003
(PID.TID 0000.0001)         System time:   0.0000000000000000
(PID.TID 0000.0001)     Wall clock time:  6.69884681701660156E-003
(PID.TID 0000.0001)          No. starts:          10
(PID.TID 0000.0001)           No. stops:          10
(PID.TID 0000.0001)   Seconds in section "TRC_CORRECTION_STEP [FORWARD_STEP]":
(PID.TID 0000.0001)           User time:   0.0000000000000000
(PID.TID 0000.0001)         System time:   0.0000000000000000
(PID.TID 0000.0001)     Wall clock time:  9.13143157958984375E-005
(PID.TID 0000.0001)          No. starts:          10
(PID.TID 0000.0001)           No. stops:          10
(PID.TID 0000.0001)   Seconds in section "BLOCKING_EXCHANGES  [FORWARD_STEP]":
(PID.TID 0000.0001)           User time:  1.00004673004150391E-003
(PID.TID 0000.0001)         System time:   0.0000000000000000
(PID.TID 0000.0001)     Wall clock time:  1.35374069213867188E-003
(PID.TID 0000.0001)          No. starts:          10
(PID.TID 0000.0001)           No. stops:          10
(PID.TID 0000.0001)   Seconds in section "MONITOR             [FORWARD_STEP]":
(PID.TID 0000.0001)           User time:  9.09838974475860596E-002
(PID.TID 0000.0001)         System time:   0.0000000000000000
(PID.TID 0000.0001)     Wall clock time:  9.10918712615966797E-002
(PID.TID 0000.0001)          No. starts:          10
(PID.TID 0000.0001)           No. stops:          10
(PID.TID 0000.0001)   Seconds in section "DO_THE_MODEL_IO     [FORWARD_STEP]":
(PID.TID 0000.0001)           User time:  1.99997425079345703E-003
(PID.TID 0000.0001)         System time:   0.0000000000000000
(PID.TID 0000.0001)     Wall clock time:  2.84886360168457031E-003
(PID.TID 0000.0001)          No. starts:          10
(PID.TID 0000.0001)           No. stops:          10
(PID.TID 0000.0001)   Seconds in section "DO_WRITE_PICKUP     [FORWARD_STEP]":
(PID.TID 0000.0001)           User time:  2.00009346008300781E-003
(PID.TID 0000.0001)         System time:  1.00000016391277313E-003
(PID.TID 0000.0001)     Wall clock time:  2.96306610107421875E-003
(PID.TID 0000.0001)          No. starts:          10
(PID.TID 0000.0001)           No. stops:          10
(PID.TID 0000.0001) // ======================================================
(PID.TID 0000.0001) // Tile <-> Tile communication statistics
(PID.TID 0000.0001) // ======================================================
(PID.TID 0000.0001) // o Tile number: 000001
(PID.TID 0000.0001) //         No. X exchanges =              0
(PID.TID 0000.0001) //            Max. X spins =              0
(PID.TID 0000.0001) //            Min. X spins =     1000000000
(PID.TID 0000.0001) //          Total. X spins =              0
(PID.TID 0000.0001) //            Avg. X spins =       0.00E+00
(PID.TID 0000.0001) //         No. Y exchanges =              0
(PID.TID 0000.0001) //            Max. Y spins =              0
(PID.TID 0000.0001) //            Min. Y spins =     1000000000
(PID.TID 0000.0001) //          Total. Y spins =              0
(PID.TID 0000.0001) //            Avg. Y spins =       0.00E+00
(PID.TID 0000.0001) // o Thread number: 000001
(PID.TID 0000.0001) //            No. barriers =           7888
(PID.TID 0000.0001) //      Max. barrier spins =              1
(PID.TID 0000.0001) //      Min. barrier spins =              1
(PID.TID 0000.0001) //     Total barrier spins =           7888
(PID.TID 0000.0001) //      Avg. barrier spins =       1.00E+00
PROGRAM MAIN: Execution ended Normally
