(PID.TID 0000.0001) 
(PID.TID 0000.0001) // ======================================================
(PID.TID 0000.0001) //                      MITgcm UV
(PID.TID 0000.0001) //                      =========
(PID.TID 0000.0001) // ======================================================
(PID.TID 0000.0001) // execution environment starting up...
(PID.TID 0000.0001) 
(PID.TID 0000.0001) // MITgcmUV version:  checkpoint59f
(PID.TID 0000.0001) // Build user:        jmc
(PID.TID 0000.0001) // Build host:        faulks
(PID.TID 0000.0001) // Build date:        Tue Aug 21 22:19:18 EDT 2007
(PID.TID 0000.0001) 
(PID.TID 0000.0001) // =======================================================
(PID.TID 0000.0001) // Execution Environment parameter file "eedata"
(PID.TID 0000.0001) // =======================================================
(PID.TID 0000.0001) ># Example "eedata" file
(PID.TID 0000.0001) ># Lines beginning "#" are comments
(PID.TID 0000.0001) ># nTx - No. threads per process in X
(PID.TID 0000.0001) ># nTy - No. threads per process in Y
(PID.TID 0000.0001) > &EEPARMS
(PID.TID 0000.0001) > nTx=1,
(PID.TID 0000.0001) > nTy=1,
(PID.TID 0000.0001) > &
(PID.TID 0000.0001) ># Note: Some systems use & as the
(PID.TID 0000.0001) ># namelist terminator. Other systems
(PID.TID 0000.0001) ># use a / character (as shown here).
(PID.TID 0000.0001) 
(PID.TID 0000.0001) // =======================================================
(PID.TID 0000.0001) // Computational Grid Specification ( see files "SIZE.h" )
(PID.TID 0000.0001) //                                  ( and "eedata"       )
(PID.TID 0000.0001) // =======================================================
(PID.TID 0000.0001)      nPx =    1 ; /* No. processes in X */
(PID.TID 0000.0001)      nPy =    1 ; /* No. processes in Y */
(PID.TID 0000.0001)      nSx =    2 ; /* No. tiles in X per process */
(PID.TID 0000.0001)      nSy =    1 ; /* No. tiles in Y per process */
(PID.TID 0000.0001)      sNx =   10 ; /* Tile size in X */
(PID.TID 0000.0001)      sNy =   16 ; /* Tile size in Y */
(PID.TID 0000.0001)      OLx =    4 ; /* Tile overlap distance in X */
(PID.TID 0000.0001)      OLy =    4 ; /* Tile overlap distance in Y */
(PID.TID 0000.0001)      nTx =    1 ; /* No. threads in X per process */
(PID.TID 0000.0001)      nTy =    1 ; /* No. threads in Y per process */
(PID.TID 0000.0001)       Nr =   23 ; /* No. levels in the vertical   */
(PID.TID 0000.0001)       nX =   20 ; /* Total domain size in X ( = nPx*nSx*sNx ) */
(PID.TID 0000.0001)       nY =   16 ; /* Total domain size in Y ( = nPy*nSy*sNy ) */
(PID.TID 0000.0001)   nTiles =    2 ; /* Total no. tiles per process ( = nSx*nSy ) */
(PID.TID 0000.0001)   nProcs =    1 ; /* Total no. processes ( = nPx*nPy ) */
(PID.TID 0000.0001) nThreads =    1 ; /* Total no. threads per process ( = nTx*nTy ) */
(PID.TID 0000.0001) usingMPI =    F ; /* Flag used to control whether MPI is in use */
(PID.TID 0000.0001)                   /*  note: To execute a program with MPI calls */
(PID.TID 0000.0001)                   /*  it must be launched appropriately e.g     */
(PID.TID 0000.0001)                   /*  "mpirun -np 64 ......"                    */
(PID.TID 0000.0001) useCoupler=   F ; /* Flag used to control communications with */
(PID.TID 0000.0001)                   /*  other model components, through a coupler */
(PID.TID 0000.0001) 
(PID.TID 0000.0001) // ======================================================
(PID.TID 0000.0001) // Mapping of tiles to threads
(PID.TID 0000.0001) // ======================================================
(PID.TID 0000.0001) // -o- Thread   1, tiles (   1:   2,   1:   1)
(PID.TID 0000.0001) 
(PID.TID 0000.0001) // ======================================================
(PID.TID 0000.0001) // Tile <-> Tile connectvity table
(PID.TID 0000.0001) // ======================================================
(PID.TID 0000.0001) // Tile number: 000001 (process no. = 000001)
(PID.TID 0000.0001) //        WEST: Tile = 000002, Process = 000001, Comm = put
(PID.TID 0000.0001) //                bi = 000002, bj = 000001
(PID.TID 0000.0001) //        EAST: Tile = 000002, Process = 000001, Comm = put
(PID.TID 0000.0001) //                bi = 000002, bj = 000001
(PID.TID 0000.0001) //       SOUTH: Tile = 000001, Process = 000001, Comm = put
(PID.TID 0000.0001) //                bi = 000001, bj = 000001
(PID.TID 0000.0001) //       NORTH: Tile = 000001, Process = 000001, Comm = put
(PID.TID 0000.0001) //                bi = 000001, bj = 000001
(PID.TID 0000.0001) // Tile number: 000002 (process no. = 000001)
(PID.TID 0000.0001) //        WEST: Tile = 000001, Process = 000001, Comm = put
(PID.TID 0000.0001) //                bi = 000001, bj = 000001
(PID.TID 0000.0001) //        EAST: Tile = 000001, Process = 000001, Comm = put
(PID.TID 0000.0001) //                bi = 000001, bj = 000001
(PID.TID 0000.0001) //       SOUTH: Tile = 000002, Process = 000001, Comm = put
(PID.TID 0000.0001) //                bi = 000002, bj = 000001
(PID.TID 0000.0001) //       NORTH: Tile = 000002, Process = 000001, Comm = put
(PID.TID 0000.0001) //                bi = 000002, bj = 000001
(PID.TID 0000.0001) 
(PID.TID 0000.0001) // =======================================================
(PID.TID 0000.0001) // Model parameter file "data"
(PID.TID 0000.0001) // =======================================================
(PID.TID 0000.0001) ># ====================
(PID.TID 0000.0001) ># | Model parameters |
(PID.TID 0000.0001) ># ====================
(PID.TID 0000.0001) >#
(PID.TID 0000.0001) ># Continuous equation parameters
(PID.TID 0000.0001) >#
(PID.TID 0000.0001) >#   tRef            - Reference vertical potential temperature          (deg C)
(PID.TID 0000.0001) >#   sRef            - Reference vertical salinity                         (PSU)
(PID.TID 0000.0001) >#   viscAh          - Horizontal eddy viscosity coefficient             (m^2/s)
(PID.TID 0000.0001) >#   viscAz          - Vertical eddy viscosity coefficient               (m^2/s)
(PID.TID 0000.0001) >#   diffKhT         - Horizontal temperature diffusivity                (m^2/s)
(PID.TID 0000.0001) >#   diffKzT         - Vertical temperature diffusivity                  (m^2/s)
(PID.TID 0000.0001) >#   diffKhS         - Horizontal salt diffusivity                       (m^2/s)
(PID.TID 0000.0001) >#   diffKzS         - Vertical salt diffusivity                         (m^2/s)
(PID.TID 0000.0001) >#   tAlpha          - Linear EOS thermal expansion coefficient           (1/oC)
(PID.TID 0000.0001) >#   sBeta           - Linear EOS haline contraction coefficient         (1/ppt)
(PID.TID 0000.0001) >#   gravity         - Acceleration due to gravity                       (m/s^2)
(PID.TID 0000.0001) >#   rigidLid        - Set to true to use rigid lid
(PID.TID 0000.0001) >#   implicitFreeSurface - Set to true to use implicit free surface
(PID.TID 0000.0001) >#   eosType         - Flag for linear or polynomial equation of state
(PID.TID 0000.0001) >#   GMkbackground   - background value of GM/Redi coefficient
(PID.TID 0000.0001) >#   momAdvection    - On/Off flag for momentum self transport
(PID.TID 0000.0001) >#   momViscosity    - On/Off flag for momentum mixing
(PID.TID 0000.0001) >#
(PID.TID 0000.0001) > &PARM01
(PID.TID 0000.0001) > viscAz             = 1.E-3,
(PID.TID 0000.0001) > diffKzT            = 1.E-5,
(PID.TID 0000.0001) > diffKzS            = 1.E-5,
(PID.TID 0000.0001) > viscAh             = 5.0E4,
(PID.TID 0000.0001) > viscA4             = 5.e12,
(PID.TID 0000.0001) > diffKhT            = 1.0E3,
(PID.TID 0000.0001) > diffKhS            = 1.0E3,
(PID.TID 0000.0001) > rotationPeriod     = 86400.,
(PID.TID 0000.0001) > tAlpha             = 2.E-4,
(PID.TID 0000.0001) > sBeta              = 7.4E-4,
(PID.TID 0000.0001) > gravity            = 9.81,
(PID.TID 0000.0001) > rigidLid           = .FALSE.,
(PID.TID 0000.0001) > implicitFreeSurface= .TRUE.,
(PID.TID 0000.0001) > implicitDiffusion  = .TRUE.,
(PID.TID 0000.0001) > useCDscheme        = .TRUE.,
(PID.TID 0000.0001) > useNHMTerms        = .TRUE.,
(PID.TID 0000.0001) > eosType            = 'POLY3',
(PID.TID 0000.0001) > momAdvection       = .TRUE.,
(PID.TID 0000.0001) > momViscosity       = .TRUE.,
(PID.TID 0000.0001) > implicitDiffusion  = .TRUE.,
(PID.TID 0000.0001) > implicitViscosity  = .TRUE.,
(PID.TID 0000.0001) > no_slip_bottom     = .TRUE.,
(PID.TID 0000.0001) > no_slip_sides      = .FALSE.,
(PID.TID 0000.0001) > readBinaryPrec     = 32,
(PID.TID 0000.0001) >#- not safe to use globalFiles in multi-processors runs
(PID.TID 0000.0001) >#globalFiles        = .TRUE.
(PID.TID 0000.0001) > &
(PID.TID 0000.0001) >
(PID.TID 0000.0001) ># Elliptic solver parameters
(PID.TID 0000.0001) >#
(PID.TID 0000.0001) >#   cg2dMaxIters       - Maximum number of 2d solver iterations
(PID.TID 0000.0001) >#   cg2dTargetResidual - Solver target residual
(PID.TID 0000.0001) >#
(PID.TID 0000.0001) > &PARM02
(PID.TID 0000.0001) > cg2dMaxIters       = 1000,
(PID.TID 0000.0001) > cg2dTargetResidual = 1.E-13,
(PID.TID 0000.0001) > &
(PID.TID 0000.0001) >
(PID.TID 0000.0001) ># Time stepping parameters
(PID.TID 0000.0001) >#
(PID.TID 0000.0001) >#   startTime         - Integration starting time                (s)
(PID.TID 0000.0001) >#   endTime           - Integration ending time                  (s)
(PID.TID 0000.0001) >#   tauCD             - CD scheme coupling timescale             (s)
(PID.TID 0000.0001) >#   deltaTMom         - Timestep for momemtum equations          (s)
(PID.TID 0000.0001) >#   deltaTtracer      - Tracer timestep                          (s)
(PID.TID 0000.0001) >#   deltaTClock       - Timestep used as model "clock"           (s)
(PID.TID 0000.0001) >#   abEps             - Adams-Bashforth stabilising factor
(PID.TID 0000.0001) >#   pChkPtFreq        - Frequency of permanent check pointing    (s)
(PID.TID 0000.0001) >#   chkPtFreq         - Frequency of rolling check pointing      (s)
(PID.TID 0000.0001) >#   dumpFreq          - Frequency at which model state is stored (s)
(PID.TID 0000.0001) >#   tauThetaClimRelax - Relaxation to climatology time scale     (s)
(PID.TID 0000.0001) >#   tauSaltClimRelax  - Relaxation to climatology time scale     (s)
(PID.TID 0000.0001) >#
(PID.TID 0000.0001) > &PARM03
(PID.TID 0000.0001) > baseTime   = 21600.,
(PID.TID 0000.0001) > startTime  = 21600.,
(PID.TID 0000.0001) > endTime    = 93600.,
(PID.TID 0000.0001) > deltaTmom  = 3600.0,
(PID.TID 0000.0001) > TauCD      = 172800.
(PID.TID 0000.0001) > cAdjFreq   = 0.,
(PID.TID 0000.0001) > abEps      = 0.1,
(PID.TID 0000.0001) > pChkptFreq = 0.0,
(PID.TID 0000.0001) > chkptFreq  = 0.0,
(PID.TID 0000.0001) > dumpFreq   = 86400.,
(PID.TID 0000.0001) > tauSaltClimRelax = 2592000.0,
(PID.TID 0000.0001) > tauThetaClimRelax = 2592000.0,
(PID.TID 0000.0001) > periodicExternalForcing = .TRUE.,
(PID.TID 0000.0001) > externForcingPeriod = 43200.0,
(PID.TID 0000.0001) > externForcingCycle = 2764800.0,
(PID.TID 0000.0001) > monitorFreq=1.,
(PID.TID 0000.0001) > &
(PID.TID 0000.0001) >
(PID.TID 0000.0001) ># Gridding parameters
(PID.TID 0000.0001) >#
(PID.TID 0000.0001) >#   usingSphericalPolarGrid - On/Off flag for spherical polar coordinates
(PID.TID 0000.0001) >#   delX                    - Zonal grid spacing         (degrees)
(PID.TID 0000.0001) >#   delY                    - Meridional grid spacing    (degrees)
(PID.TID 0000.0001) >#   delZ                    - Vertical grid spacing      (m)
(PID.TID 0000.0001) >#   phiMin                  - Southern boundary latitude (degrees)
(PID.TID 0000.0001) >#
(PID.TID 0000.0001) > &PARM04
(PID.TID 0000.0001) > usingSphericalPolarGrid = .TRUE.,
(PID.TID 0000.0001) > delX   = 20*2.,
(PID.TID 0000.0001) > delY   = 16*2.,
(PID.TID 0000.0001) > delZ= 10., 10., 15., 20., 20., 25., 35., 50., 75.,
(PID.TID 0000.0001) >       100., 150., 200., 275., 350., 415., 450.,
(PID.TID 0000.0001) >       500., 500., 500., 500., 500., 500., 500.
(PID.TID 0000.0001) > phiMin = 10.,
(PID.TID 0000.0001) > thetaMin= -42.
(PID.TID 0000.0001) > &
(PID.TID 0000.0001) >
(PID.TID 0000.0001) ># Input datasets
(PID.TID 0000.0001) >#
(PID.TID 0000.0001) >#   bathyFile       - File containing bathymetry
(PID.TID 0000.0001) >#   hydrogThetaFile - File containing initial potential temperature data
(PID.TID 0000.0001) >#   hydrogSaltFile  - File containing initial salinity data
(PID.TID 0000.0001) >#   zonalWindFile   - File containing zonal wind data
(PID.TID 0000.0001) >#   meridWindFile   - File containing meridional wind data
(PID.TID 0000.0001) >#   thetaClimFile   - File containing theta climatology used for relaxation
(PID.TID 0000.0001) >#   saltClimFile    - File containing salt climatology used for relaxation
(PID.TID 0000.0001) >#
(PID.TID 0000.0001) > &PARM05
(PID.TID 0000.0001) > bathyFile       = 'kf_topog',
(PID.TID 0000.0001) > hydrogThetaFile = 'kf_climtheta',
(PID.TID 0000.0001) > hydrogSaltFile  = 'kf_climsalt',
(PID.TID 0000.0001) > zonalWindFile   = 'kf_tx',
(PID.TID 0000.0001) > meridWindFile   = 'kf_ty',
(PID.TID 0000.0001) > thetaClimFile   = 'kf_sst',
(PID.TID 0000.0001) > saltClimFile    = 'kf_sss',
(PID.TID 0000.0001) > surfQFile       = 'kf_qnet',
(PID.TID 0000.0001) > EmPmRFile       = 'kf_empmr',
(PID.TID 0000.0001) > surfQswFile     = 'kf_sw',
(PID.TID 0000.0001) > &
(PID.TID 0000.0001) 
(PID.TID 0000.0001) S/R INI_PARMS ; starts to read PARM01
(PID.TID 0000.0001) S/R INI_PARMS ; read PARM01 : OK
(PID.TID 0000.0001) S/R INI_PARMS ; starts to read PARM02
(PID.TID 0000.0001) S/R INI_PARMS ; read PARM02 : OK
(PID.TID 0000.0001) S/R INI_PARMS ; starts to read PARM03
(PID.TID 0000.0001) S/R INI_PARMS ; read PARM03 : OK
(PID.TID 0000.0001) S/R INI_PARMS ; starts to read PARM04
(PID.TID 0000.0001) S/R INI_PARMS ; read PARM04 : OK
(PID.TID 0000.0001) S/R INI_PARMS ; starts to read PARM05
(PID.TID 0000.0001) S/R INI_PARMS ; read PARM05 : OK
(PID.TID 0000.0001)  PACKAGES_BOOT: opening data.pkg
(PID.TID 0000.0001)  OPEN_COPY_DATA_FILE: opening file data.pkg
(PID.TID 0000.0001) // =======================================================
(PID.TID 0000.0001) // Parameter file "data.pkg"
(PID.TID 0000.0001) // =======================================================
(PID.TID 0000.0001) ># Packages
(PID.TID 0000.0001) > &PACKAGES
(PID.TID 0000.0001) >  useGMRedi=.FALSE.,
(PID.TID 0000.0001) >  useKPP=.TRUE.,
(PID.TID 0000.0001) >  useECCO=.FALSE.,
(PID.TID 0000.0001) >  usediagnostics=.TRUE.,
(PID.TID 0000.0001) > &
(PID.TID 0000.0001) 
(PID.TID 0000.0001)  PACKAGES_BOOT: finished reading data.pkg
(PID.TID 0000.0001)  KPP_INIT: opening data.kpp
(PID.TID 0000.0001)  OPEN_COPY_DATA_FILE: opening file data.kpp
(PID.TID 0000.0001) // =======================================================
(PID.TID 0000.0001) // Parameter file "data.kpp"
(PID.TID 0000.0001) // =======================================================
(PID.TID 0000.0001) ># KPP parameters
(PID.TID 0000.0001) > &KPP_PARM01
(PID.TID 0000.0001) > KPPmixingMaps   = .FALSE.,
(PID.TID 0000.0001) > KPPwriteState   = .TRUE.,
(PID.TID 0000.0001) > &
(PID.TID 0000.0001) 
(PID.TID 0000.0001)  KPP_INIT: finished reading data.kpp
(PID.TID 0000.0001)  DIAGNOSTICS_READPARMS: opening data.diagnostics
(PID.TID 0000.0001)  OPEN_COPY_DATA_FILE: opening file data.diagnostics
(PID.TID 0000.0001) // =======================================================
(PID.TID 0000.0001) // Parameter file "data.diagnostics"
(PID.TID 0000.0001) // =======================================================
(PID.TID 0000.0001) ># Diagnostic Package Choices
(PID.TID 0000.0001) >#-----------------
(PID.TID 0000.0001) ># for each output-stream:
(PID.TID 0000.0001) >#  filename(n) : prefix of the output file name (only 8.c long) for outp.stream n
(PID.TID 0000.0001) >#  frequency(n):< 0 : write snap-shot output every |frequency| seconds
(PID.TID 0000.0001) >#               > 0 : write time-average output every frequency seconds
(PID.TID 0000.0001) >#  timePhase(n)     : write at time = timePhase + multiple of |frequency|
(PID.TID 0000.0001) >#  levels(:,n) : list of levels to write to file (Notes: declared as REAL)
(PID.TID 0000.0001) >#                 when this entry is missing, select all common levels of this list
(PID.TID 0000.0001) >#  fields(:,n) : list of diagnostics fields (8.c) (see "available_diagnostics" file
(PID.TID 0000.0001) >#                 for the list of all available diag. in this particular config)
(PID.TID 0000.0001) >#-----------------
(PID.TID 0000.0001) ># This example dumps all KPP diagnostics as
(PID.TID 0000.0001) ># a snapshot every day, at mid day (t=12.h, baseTime=6.h, deltaT=1.h => iter=6)
(PID.TID 0000.0001) > &diagnostics_list
(PID.TID 0000.0001) >  frequency(1) = -86400.,
(PID.TID 0000.0001) >   fields(1,1) = 'KPPviscA',
(PID.TID 0000.0001) >   filename(1) = 'KPPviscA',
(PID.TID 0000.0001) >  frequency(2) = -86400.,
(PID.TID 0000.0001) >   fields(1,2) = 'KPPdiffS',
(PID.TID 0000.0001) >   filename(2) = 'KPPdiffS',
(PID.TID 0000.0001) >  frequency(3) = -86400.,
(PID.TID 0000.0001) >   fields(1,3) = 'KPPdiffT',
(PID.TID 0000.0001) >   filename(3) = 'KPPdiffT',
(PID.TID 0000.0001) >  frequency(4) = -86400.,
(PID.TID 0000.0001) >   fields(1,4) = 'KPPghat ',
(PID.TID 0000.0001) >   filename(4) = 'KPP_ghat',
(PID.TID 0000.0001) >  frequency(5) = -86400.,
(PID.TID 0000.0001) >   fields(1,5) = 'KPPhbl  ',
(PID.TID 0000.0001) >   filename(5) = 'KPP_hbl',
(PID.TID 0000.0001) >  frequency(6) = -86400.,
(PID.TID 0000.0001) >   fields(1,6) = 'KPPfrac ',
(PID.TID 0000.0001) >   filename(6) = 'KPPfrac',
(PID.TID 0000.0001) >  frequency(7) = -86400.,
(PID.TID 0000.0001) >   fields(1,7) = 'KPPmld  ',
(PID.TID 0000.0001) >   filename(7) = 'KPPmld',
(PID.TID 0000.0001) > &
(PID.TID 0000.0001) >
(PID.TID 0000.0001) ># Parameter for Diagnostics of per level statistics:
(PID.TID 0000.0001) >#-----------------
(PID.TID 0000.0001) ># for each output-stream:
(PID.TID 0000.0001) >#  stat_fname(n) : prefix of the output file name (only 8.c long) for outp.stream n
(PID.TID 0000.0001) >#  stat_freq(n):< 0 : write snap-shot output every |stat_freq| seconds
(PID.TID 0000.0001) >#               > 0 : write time-average output every stat_freq seconds
(PID.TID 0000.0001) >#  stat_phase(n)    : write at time = stat_phase + multiple of |stat_freq|
(PID.TID 0000.0001) >#  stat_region(:,n) : list of "regions" (default: 1 region only=global)
(PID.TID 0000.0001) >#  stat_fields(:,n) : list of diagnostics fields (8.c) (see "available_diagnostics.log"
(PID.TID 0000.0001) >#                 file for the list of all available diag. in this particular config)
(PID.TID 0000.0001) >#-----------------
(PID.TID 0000.0001) > &DIAG_STATIS_PARMS
(PID.TID 0000.0001) >#- an example just to check the agreement with MONITOR output:
(PID.TID 0000.0001) >#stat_fields(1,1)= 'ETAN    ','UVEL    ','VVEL    ','WVEL    ', 'THETA   ',
(PID.TID 0000.0001) >#   stat_fname(1)= 'dynStDiag',
(PID.TID 0000.0001) >#    stat_freq(1)= -864000.,
(PID.TID 0000.0001) >#   stat_phase(1)= 0.,
(PID.TID 0000.0001) > &
(PID.TID 0000.0001) >
(PID.TID 0000.0001) 
(PID.TID 0000.0001) S/R DIAGNOSTICS_READPARMS, read namelist "diagnostics_list": start
(PID.TID 0000.0001) S/R DIAGNOSTICS_READPARMS, read namelist "diagnostics_list": OK
(PID.TID 0000.0001) S/R DIAGNOSTICS_READPARMS, read namelist "DIAG_STATIS_PARMS": start
(PID.TID 0000.0001) S/R DIAGNOSTICS_READPARMS, read namelist "DIAG_STATIS_PARMS": OK
(PID.TID 0000.0001) -----------------------------------------------------
(PID.TID 0000.0001)  DIAGNOSTICS_READPARMS: active diagnostics summary:
(PID.TID 0000.0001) -----------------------------------------------------
(PID.TID 0000.0001) Creating Output Stream: KPPviscA
(PID.TID 0000.0001) Output Frequency:    -86400.000000 ; Phase:      43200.000000
(PID.TID 0000.0001)  Averaging Freq.:         0.000000 , Phase:          0.000000 , Cycle:  1
(PID.TID 0000.0001)  Levels:    will be set later
(PID.TID 0000.0001) Fields:    KPPviscA
(PID.TID 0000.0001) Creating Output Stream: KPPdiffS
(PID.TID 0000.0001) Output Frequency:    -86400.000000 ; Phase:      43200.000000
(PID.TID 0000.0001)  Averaging Freq.:         0.000000 , Phase:          0.000000 , Cycle:  1
(PID.TID 0000.0001)  Levels:    will be set later
(PID.TID 0000.0001) Fields:    KPPdiffS
(PID.TID 0000.0001) Creating Output Stream: KPPdiffT
(PID.TID 0000.0001) Output Frequency:    -86400.000000 ; Phase:      43200.000000
(PID.TID 0000.0001)  Averaging Freq.:         0.000000 , Phase:          0.000000 , Cycle:  1
(PID.TID 0000.0001)  Levels:    will be set later
(PID.TID 0000.0001) Fields:    KPPdiffT
(PID.TID 0000.0001) Creating Output Stream: KPP_ghat
(PID.TID 0000.0001) Output Frequency:    -86400.000000 ; Phase:      43200.000000
(PID.TID 0000.0001)  Averaging Freq.:         0.000000 , Phase:          0.000000 , Cycle:  1
(PID.TID 0000.0001)  Levels:    will be set later
(PID.TID 0000.0001) Fields:    KPPghat
(PID.TID 0000.0001) Creating Output Stream: KPP_hbl
(PID.TID 0000.0001) Output Frequency:    -86400.000000 ; Phase:      43200.000000
(PID.TID 0000.0001)  Averaging Freq.:         0.000000 , Phase:          0.000000 , Cycle:  1
(PID.TID 0000.0001)  Levels:    will be set later
(PID.TID 0000.0001) Fields:    KPPhbl
(PID.TID 0000.0001) Creating Output Stream: KPPfrac
(PID.TID 0000.0001) Output Frequency:    -86400.000000 ; Phase:      43200.000000
(PID.TID 0000.0001)  Averaging Freq.:         0.000000 , Phase:          0.000000 , Cycle:  1
(PID.TID 0000.0001)  Levels:    will be set later
(PID.TID 0000.0001) Fields:    KPPfrac
(PID.TID 0000.0001) Creating Output Stream: KPPmld
(PID.TID 0000.0001) Output Frequency:    -86400.000000 ; Phase:      43200.000000
(PID.TID 0000.0001)  Averaging Freq.:         0.000000 , Phase:          0.000000 , Cycle:  1
(PID.TID 0000.0001)  Levels:    will be set later
(PID.TID 0000.0001) Fields:    KPPmld
(PID.TID 0000.0001) -----------------------------------------------------
(PID.TID 0000.0001)  DIAGNOSTICS_READPARMS: statistics diags. summary:
(PID.TID 0000.0001) -----------------------------------------------------
(PID.TID 0000.0001) 
(PID.TID 0000.0001) SET_PARMS: done
(PID.TID 0000.0001) Enter INI_VERTICAL_GRID: setInterFDr=    T ; setCenterDr=    F
(PID.TID 0000.0001) %MON XC_max                       =  -3.0000000000000E+00
(PID.TID 0000.0001) %MON XC_min                       =  -4.1000000000000E+01
(PID.TID 0000.0001) %MON XC_mean                      =  -2.2000000000000E+01
(PID.TID 0000.0001) %MON XC_sd                        =   1.1532562594671E+01
(PID.TID 0000.0001) %MON XG_max                       =  -4.0000000000000E+00
(PID.TID 0000.0001) %MON XG_min                       =  -4.2000000000000E+01
(PID.TID 0000.0001) %MON XG_mean                      =  -2.3000000000000E+01
(PID.TID 0000.0001) %MON XG_sd                        =   1.1532562594671E+01
(PID.TID 0000.0001) %MON DXC_max                      =   2.1826966005878E+05
(PID.TID 0000.0001) %MON DXC_min                      =   1.6781340848749E+05
(PID.TID 0000.0001) %MON DXC_mean                     =   1.9727395728441E+05
(PID.TID 0000.0001) %MON DXC_sd                       =   1.5731168072696E+04
(PID.TID 0000.0001) %MON DXF_max                      =   2.1826966005878E+05
(PID.TID 0000.0001) %MON DXF_min                      =   1.6781340848749E+05
(PID.TID 0000.0001) %MON DXF_mean                     =   1.9727395728441E+05
(PID.TID 0000.0001) %MON DXF_sd                       =   1.5731168072696E+04
(PID.TID 0000.0001) %MON DXG_max                      =   2.1897687543479E+05
(PID.TID 0000.0001) %MON DXG_min                      =   1.7033377132268E+05
(PID.TID 0000.0001) %MON DXG_mean                     =   1.9892312861058E+05
(PID.TID 0000.0001) %MON DXG_sd                       =   1.5180938630473E+04
(PID.TID 0000.0001) %MON DXV_max                      =   2.1897687543479E+05
(PID.TID 0000.0001) %MON DXV_min                      =   1.7033377132268E+05
(PID.TID 0000.0001) %MON DXV_mean                     =   1.9892312861058E+05
(PID.TID 0000.0001) %MON DXV_sd                       =   1.5180938630473E+04
(PID.TID 0000.0001) %MON YC_max                       =   4.1000000000000E+01
(PID.TID 0000.0001) %MON YC_min                       =   1.1000000000000E+01
(PID.TID 0000.0001) %MON YC_mean                      =   2.6000000000000E+01
(PID.TID 0000.0001) %MON YC_sd                        =   9.2195444572929E+00
(PID.TID 0000.0001) %MON YG_max                       =   4.0000000000000E+01
(PID.TID 0000.0001) %MON YG_min                       =   1.0000000000000E+01
(PID.TID 0000.0001) %MON YG_mean                      =   2.5000000000000E+01
(PID.TID 0000.0001) %MON YG_sd                        =   9.2195444572929E+00
(PID.TID 0000.0001) %MON DYC_max                      =   2.2235494670408E+05
(PID.TID 0000.0001) %MON DYC_min                      =   2.2235494670408E+05
(PID.TID 0000.0001) %MON DYC_mean                     =   2.2235494670408E+05
(PID.TID 0000.0001) %MON DYC_sd                       =   4.6566128730774E-10
(PID.TID 0000.0001) %MON DYF_max                      =   2.2235494670408E+05
(PID.TID 0000.0001) %MON DYF_min                      =   2.2235494670408E+05
(PID.TID 0000.0001) %MON DYF_mean                     =   2.2235494670408E+05
(PID.TID 0000.0001) %MON DYF_sd                       =   4.6566128730774E-10
(PID.TID 0000.0001) %MON DYG_max                      =   2.2235494670408E+05
(PID.TID 0000.0001) %MON DYG_min                      =   2.2235494670408E+05
(PID.TID 0000.0001) %MON DYG_mean                     =   2.2235494670408E+05
(PID.TID 0000.0001) %MON DYG_sd                       =   4.6566128730774E-10
(PID.TID 0000.0001) %MON DYU_max                      =   2.2235494670408E+05
(PID.TID 0000.0001) %MON DYU_min                      =   2.2235494670408E+05
(PID.TID 0000.0001) %MON DYU_mean                     =   2.2235494670408E+05
(PID.TID 0000.0001) %MON DYU_sd                       =   4.6566128730774E-10
(PID.TID 0000.0001) %MON RA_max                       =   4.8530874650285E+10
(PID.TID 0000.0001) %MON RA_min                       =   3.7312247106402E+10
(PID.TID 0000.0001) %MON RA_mean                      =   4.3862613292919E+10
(PID.TID 0000.0001) %MON RA_sd                        =   3.4977254540690E+09
(PID.TID 0000.0001) %MON RAW_max                      =   4.8530874650285E+10
(PID.TID 0000.0001) %MON RAW_min                      =   3.7312247106402E+10
(PID.TID 0000.0001) %MON RAW_mean                     =   4.3862613292919E+10
(PID.TID 0000.0001) %MON RAW_sd                       =   3.4977254540690E+09
(PID.TID 0000.0001) %MON RAS_max                      =   4.8688119503989E+10
(PID.TID 0000.0001) %MON RAS_min                      =   3.7872633798691E+10
(PID.TID 0000.0001) %MON RAS_mean                     =   4.4229296078267E+10
(PID.TID 0000.0001) %MON RAS_sd                       =   3.3753854271397E+09
(PID.TID 0000.0001) %MON RAZ_max                      =   4.8688119503989E+10
(PID.TID 0000.0001) %MON RAZ_min                      =   3.7872633798691E+10
(PID.TID 0000.0001) %MON RAZ_mean                     =   4.4229296078267E+10
(PID.TID 0000.0001) %MON RAZ_sd                       =   3.3753854271397E+09
(PID.TID 0000.0001) %MON AngleCS_max                  =   1.0000000000000E+00
(PID.TID 0000.0001) %MON AngleCS_min                  =   1.0000000000000E+00
(PID.TID 0000.0001) %MON AngleCS_mean                 =   1.0000000000000E+00
(PID.TID 0000.0001) %MON AngleCS_sd                   =   0.0000000000000E+00
(PID.TID 0000.0001) %MON AngleSN_max                  =   0.0000000000000E+00
(PID.TID 0000.0001) %MON AngleSN_min                  =   0.0000000000000E+00
(PID.TID 0000.0001) %MON AngleSN_mean                 =   0.0000000000000E+00
(PID.TID 0000.0001) %MON AngleSN_sd                   =   0.0000000000000E+00
(PID.TID 0000.0001)  MDS_READ_FIELD: opening global file: kf_topog
(PID.TID 0000.0001) // =======================================================
(PID.TID 0000.0001) // Field Model R_low (ini_masks_etc) at iteration          1
(PID.TID 0000.0001) // CMIN =         -5.200000000000000E+03
(PID.TID 0000.0001) // CMAX =         -3.600000000000000E+02
(PID.TID 0000.0001) // CINT =          1.792592592592593E+02
(PID.TID 0000.0001) // SYMBOLS (CMIN->CMAX): -abcdefghijklmnopqrstuvwxyz+
(PID.TID 0000.0001) //                  0.0: .
(PID.TID 0000.0001) // RANGE I (Lo:Hi:Step):(  -3:  24:   1)
(PID.TID 0000.0001) // RANGE J (Lo:Hi:Step):(  20:  -3:  -1)
(PID.TID 0000.0001) // RANGE K (Lo:Hi:Step):(   1:   1:   1)
(PID.TID 0000.0001) // =======================================================
(PID.TID 0000.0001) K =   1
(PID.TID 0000.0001) //                I=6       I=8       I=18
(PID.TID 0000.0001) // |--J--|321012345|789012347|901234567|901234
(PID.TID 0000.0001) //     20 .....cc-----cfkhkz--cfkhkz.......cc-
(PID.TID 0000.0001) //     19 .....c-------cccfy---cccfy.......c--
(PID.TID 0000.0001) //     18 .....hcc------ccfx----ccfx.......hcc
(PID.TID 0000.0001) //     17 ....................................
(PID.TID 0000.0001) //     16 ....................................
(PID.TID 0000.0001) //     15 hv+..fhknsqknnff-cqknnff-ckhhv+..fhk
(PID.TID 0000.0001) //     14 fhx..hknnnnkhcc-chnkhcc-chhhfhx..hkn
(PID.TID 0000.0001) //     13 fz...knnkhknf--chkknf--chkfffz...knn
(PID.TID 0000.0001) //     12 q....nkhfffhc--cfffhc--cffhnq....nkh
(PID.TID 0000.0001) //     11 +....khfccccc-ccfkccc-ccfkkv+....khf
(PID.TID 0000.0001) //     10 .....hcc---cc-cfhk-cc-cfhks......hcc
(PID.TID 0000.0001) //      9 .....fc-------cfkq----cfkq.......fc-
(PID.TID 0000.0001) //      8 .....c-------ccfkx---ccfkx.......c--
(PID.TID 0000.0001) //      7 .....c---cfcccfhk+fcccfhk+.......c--
(PID.TID 0000.0001) //      6 .....c---cccffhknvccffhknv.......c--
(PID.TID 0000.0001) //      5 .....c--ccccfkkkkqccfkkkkq.......c--
(PID.TID 0000.0001) //      4 .....cc-----cfkhkz--cfkhkz.......cc-
(PID.TID 0000.0001) //      3 .....c-------cccfy---cccfy.......c--
(PID.TID 0000.0001) //      2 .....hcc------ccfx----ccfx.......hcc
(PID.TID 0000.0001) //      1 ....................................
(PID.TID 0000.0001) //      0 ....................................
(PID.TID 0000.0001) //     -1 hv+..fhknsqknnff-cqknnff-ckhhv+..fhk
(PID.TID 0000.0001) //     -2 fhx..hknnnnkhcc-chnkhcc-chhhfhx..hkn
(PID.TID 0000.0001) //     -3 fz...knnkhknf--chkknf--chkfffz...knn
(PID.TID 0000.0001) // =======================================================
(PID.TID 0000.0001) // END OF FIELD                                          =
(PID.TID 0000.0001) // =======================================================
(PID.TID 0000.0001) 
(PID.TID 0000.0001) // =======================================================
(PID.TID 0000.0001) // Field Model Ro_surf (ini_masks_etc) at iteration          1
(PID.TID 0000.0001) // CMIN =          1.000000000000000E+32
(PID.TID 0000.0001) // CMAX =         -1.000000000000000E+32
(PID.TID 0000.0001) // CINT =          0.000000000000000E+00
(PID.TID 0000.0001) // SYMBOLS (CMIN->CMAX): -abcdefghijklmnopqrstuvwxyz+
(PID.TID 0000.0001) //                  0.0: .
(PID.TID 0000.0001) // RANGE I (Lo:Hi:Step):(  -3:  24:   1)
(PID.TID 0000.0001) // RANGE J (Lo:Hi:Step):(  20:  -3:  -1)
(PID.TID 0000.0001) // RANGE K (Lo:Hi:Step):(   1:   1:   1)
(PID.TID 0000.0001) // =======================================================
(PID.TID 0000.0001) // =======================================================
(PID.TID 0000.0001) // END OF FIELD                                          =
(PID.TID 0000.0001) // =======================================================
(PID.TID 0000.0001) 
(PID.TID 0000.0001) // =======================================================
(PID.TID 0000.0001) // Field hFacC at iteration          1
(PID.TID 0000.0001) // CMIN =          1.000000000000000E+00
(PID.TID 0000.0001) // CMAX =          1.000000000000000E+00
(PID.TID 0000.0001) // CINT =          0.000000000000000E+00
(PID.TID 0000.0001) // SYMBOLS (CMIN->CMAX): -abcdefghijklmnopqrstuvwxyz+
(PID.TID 0000.0001) //                  0.0: .
(PID.TID 0000.0001) // RANGE I (Lo:Hi:Step):(  -3:  24:   1)
(PID.TID 0000.0001) // RANGE J (Lo:Hi:Step):(  20:  -3:  -1)
(PID.TID 0000.0001) // RANGE K (Lo:Hi:Step):(   1:   1:   1)
(PID.TID 0000.0001) // =======================================================
(PID.TID 0000.0001) // =======================================================
(PID.TID 0000.0001) // END OF FIELD                                          =
(PID.TID 0000.0001) // =======================================================
(PID.TID 0000.0001) 
(PID.TID 0000.0001) // =======================================================
(PID.TID 0000.0001) // Field hFacW at iteration          1
(PID.TID 0000.0001) // CMIN =          1.000000000000000E+00
(PID.TID 0000.0001) // CMAX =          1.000000000000000E+00
(PID.TID 0000.0001) // CINT =          0.000000000000000E+00
(PID.TID 0000.0001) // SYMBOLS (CMIN->CMAX): -abcdefghijklmnopqrstuvwxyz+
(PID.TID 0000.0001) //                  0.0: .
(PID.TID 0000.0001) // RANGE I (Lo:Hi:Step):(  -3:  24:   1)
(PID.TID 0000.0001) // RANGE J (Lo:Hi:Step):(  20:  -3:  -1)
(PID.TID 0000.0001) // RANGE K (Lo:Hi:Step):(   1:   1:   1)
(PID.TID 0000.0001) // =======================================================
(PID.TID 0000.0001) // =======================================================
(PID.TID 0000.0001) // END OF FIELD                                          =
(PID.TID 0000.0001) // =======================================================
(PID.TID 0000.0001) 
(PID.TID 0000.0001) // =======================================================
(PID.TID 0000.0001) // Field hFacS at iteration          1
(PID.TID 0000.0001) // CMIN =          1.000000000000000E+00
(PID.TID 0000.0001) // CMAX =          1.000000000000000E+00
(PID.TID 0000.0001) // CINT =          0.000000000000000E+00
(PID.TID 0000.0001) // SYMBOLS (CMIN->CMAX): -abcdefghijklmnopqrstuvwxyz+
(PID.TID 0000.0001) //                  0.0: .
(PID.TID 0000.0001) // RANGE I (Lo:Hi:Step):(  -3:  24:   1)
(PID.TID 0000.0001) // RANGE J (Lo:Hi:Step):(  20:  -3:  -1)
(PID.TID 0000.0001) // RANGE K (Lo:Hi:Step):(   1:   1:   1)
(PID.TID 0000.0001) // =======================================================
(PID.TID 0000.0001) // =======================================================
(PID.TID 0000.0001) // END OF FIELD                                          =
(PID.TID 0000.0001) // =======================================================
(PID.TID 0000.0001) 
(PID.TID 0000.0001) 
(PID.TID 0000.0001) // ===================================
(PID.TID 0000.0001) // GAD parameters :
(PID.TID 0000.0001) // ===================================
(PID.TID 0000.0001) tempAdvScheme =   /* Temp. Horiz.Advection scheme selector */
(PID.TID 0000.0001)                       2
(PID.TID 0000.0001)     ;
(PID.TID 0000.0001) tempVertAdvScheme =   /* Temp. Vert. Advection scheme selector */
(PID.TID 0000.0001)                       2
(PID.TID 0000.0001)     ;
(PID.TID 0000.0001) tempMultiDimAdvec =   /* use Muti-Dim Advec method for Temp */
(PID.TID 0000.0001)                   F
(PID.TID 0000.0001)     ;
(PID.TID 0000.0001) tempSOM_Advection = /* use 2nd Order Moment Advection for Temp */
(PID.TID 0000.0001)                   F
(PID.TID 0000.0001)     ;
(PID.TID 0000.0001) AdamsBashforthGt = /* apply Adams-Bashforth extrapolation on Gt */
(PID.TID 0000.0001)                   T
(PID.TID 0000.0001)     ;
(PID.TID 0000.0001) AdamsBashforth_T = /* apply Adams-Bashforth extrapolation on Temp */
(PID.TID 0000.0001)                   F
(PID.TID 0000.0001)     ;
(PID.TID 0000.0001) saltAdvScheme =   /* Salt. Horiz.advection scheme selector */
(PID.TID 0000.0001)                       2
(PID.TID 0000.0001)     ;
(PID.TID 0000.0001) saltVertAdvScheme =   /* Salt. Vert. Advection scheme selector */
(PID.TID 0000.0001)                       2
(PID.TID 0000.0001)     ;
(PID.TID 0000.0001) saltMultiDimAdvec =   /* use Muti-Dim Advec method for Salt */
(PID.TID 0000.0001)                   F
(PID.TID 0000.0001)     ;
(PID.TID 0000.0001) saltSOM_Advection = /* use 2nd Order Moment Advection for Salt */
(PID.TID 0000.0001)                   F
(PID.TID 0000.0001)     ;
(PID.TID 0000.0001) AdamsBashforthGs = /* apply Adams-Bashforth extrapolation on Gs */
(PID.TID 0000.0001)                   T
(PID.TID 0000.0001)     ;
(PID.TID 0000.0001) AdamsBashforth_S = /* apply Adams-Bashforth extrapolation on Salt */
(PID.TID 0000.0001)                   F
(PID.TID 0000.0001)     ;
(PID.TID 0000.0001) // ===================================
(PID.TID 0000.0001) ------------------------------------------------------------
(PID.TID 0000.0001) DIAGNOSTICS_SET_LEVELS: done
(PID.TID 0000.0001)  Total Nb of available Diagnostics: ndiagt= 175
(PID.TID 0000.0001)  write list of available Diagnostics to file: available_diagnostics.log
(PID.TID 0000.0001) SETDIAG: Allocate 23 x  1 Levels for Diagnostic # 169 KPPviscA
(PID.TID 0000.0001) SETDIAG: Allocate 23 x  1 Levels for Diagnostic # 170 KPPdiffS
(PID.TID 0000.0001) SETDIAG: Allocate 23 x  1 Levels for Diagnostic # 171 KPPdiffT
(PID.TID 0000.0001) SETDIAG: Allocate 23 x  1 Levels for Diagnostic # 172 KPPghat
(PID.TID 0000.0001) SETDIAG: Allocate  1 x  1 Levels for Diagnostic # 173 KPPhbl
(PID.TID 0000.0001) SETDIAG: Allocate  1 x  1 Levels for Diagnostic # 175 KPPfrac
(PID.TID 0000.0001) SETDIAG: Allocate  1 x  1 Levels for Diagnostic # 174 KPPmld
(PID.TID 0000.0001)   space allocated for all diagnostics:    95 levels
(PID.TID 0000.0001) DIAGNOSTICS_SET_POINTERS: Set levels for Outp.Stream: KPPviscA
(PID.TID 0000.0001)  Levels:       1.   2.   3.   4.   5.   6.   7.   8.   9.  10.  11.  12.  13.  14.  15.  16.  17.  18.  19.  20.
(PID.TID 0000.0001)  Levels:      21.  22.  23.
(PID.TID 0000.0001) DIAGNOSTICS_SET_POINTERS: Set levels for Outp.Stream: KPPdiffS
(PID.TID 0000.0001)  Levels:       1.   2.   3.   4.   5.   6.   7.   8.   9.  10.  11.  12.  13.  14.  15.  16.  17.  18.  19.  20.
(PID.TID 0000.0001)  Levels:      21.  22.  23.
(PID.TID 0000.0001) DIAGNOSTICS_SET_POINTERS: Set levels for Outp.Stream: KPPdiffT
(PID.TID 0000.0001)  Levels:       1.   2.   3.   4.   5.   6.   7.   8.   9.  10.  11.  12.  13.  14.  15.  16.  17.  18.  19.  20.
(PID.TID 0000.0001)  Levels:      21.  22.  23.
(PID.TID 0000.0001) DIAGNOSTICS_SET_POINTERS: Set levels for Outp.Stream: KPP_ghat
(PID.TID 0000.0001)  Levels:       1.   2.   3.   4.   5.   6.   7.   8.   9.  10.  11.  12.  13.  14.  15.  16.  17.  18.  19.  20.
(PID.TID 0000.0001)  Levels:      21.  22.  23.
(PID.TID 0000.0001) DIAGNOSTICS_SET_POINTERS: Set levels for Outp.Stream: KPP_hbl
(PID.TID 0000.0001)  Levels:       1.
(PID.TID 0000.0001) DIAGNOSTICS_SET_POINTERS: Set levels for Outp.Stream: KPPfrac
(PID.TID 0000.0001)  Levels:       1.
(PID.TID 0000.0001) DIAGNOSTICS_SET_POINTERS: Set levels for Outp.Stream: KPPmld
(PID.TID 0000.0001)  Levels:       1.
(PID.TID 0000.0001) DIAGNOSTICS_SET_POINTERS: done
(PID.TID 0000.0001) ------------------------------------------------------------
(PID.TID 0000.0001) DIAGSTATS_SET_REGIONS: define no region
(PID.TID 0000.0001) ------------------------------------------------------------
(PID.TID 0000.0001)   space allocated for all stats-diags:     0 levels
(PID.TID 0000.0001) DIAGSTATS_SET_POINTERS: done
(PID.TID 0000.0001) ------------------------------------------------------------
(PID.TID 0000.0001) GAD_CHECK: #define ALLOW_GENERIC_ADVDIFF
(PID.TID 0000.0001) KPP_CHECK: #define ALLOW_KPP
(PID.TID 0000.0001) %MON fCori_max                    =   9.5419917861011E-05
(PID.TID 0000.0001) %MON fCori_min                    =   2.7752043431195E-05
(PID.TID 0000.0001) %MON fCori_mean                   =   6.2936249243168E-05
(PID.TID 0000.0001) %MON fCori_sd                     =   2.0885809702547E-05
(PID.TID 0000.0001) %MON fCoriG_max                   =   9.3489668167119E-05
(PID.TID 0000.0001) %MON fCoriG_min                   =   2.5256103669800E-05
(PID.TID 0000.0001) %MON fCoriG_mean                  =   6.0674632558389E-05
(PID.TID 0000.0001) %MON fCoriG_sd                    =   2.1059305790472E-05
(PID.TID 0000.0001) %MON fCoriCos_max                 =   1.4277188648533E-04
(PID.TID 0000.0001) %MON fCoriCos_min                 =   1.0976805892693E-04
(PID.TID 0000.0001) %MON fCoriCos_mean                =   1.2903843359786E-04
(PID.TID 0000.0001) %MON fCoriCos_sd                  =   1.0289879691716E-05
(PID.TID 0000.0001) INI_CG2D: CG2D normalisation factor =  1.5752923928634454E-04
(PID.TID 0000.0001) 
(PID.TID 0000.0001) CONFIG_CHECK: OK
(PID.TID 0000.0001) // =======================================================
(PID.TID 0000.0001) // Model configuration
(PID.TID 0000.0001) // =======================================================
(PID.TID 0000.0001) //
(PID.TID 0000.0001) // "Physical" paramters ( PARM01 in namelist )
(PID.TID 0000.0001) //
(PID.TID 0000.0001) buoyancyRelation = /* Type of relation to get Buoyancy */
(PID.TID 0000.0001)               'OCEANIC'
(PID.TID 0000.0001)     ;
(PID.TID 0000.0001) fluidIsAir  =  /* fluid major constituent is Air */
(PID.TID 0000.0001)                   F
(PID.TID 0000.0001)     ;
(PID.TID 0000.0001) fluidIsWater=  /* fluid major constituent is Water */
(PID.TID 0000.0001)                   T
(PID.TID 0000.0001)     ;
(PID.TID 0000.0001) usingPCoords =  /* use p (or p*) vertical coordinate */
(PID.TID 0000.0001)                   F
(PID.TID 0000.0001)     ;
(PID.TID 0000.0001) usingZCoords =  /* use z (or z*) vertical coordinate */
(PID.TID 0000.0001)                   T
(PID.TID 0000.0001)     ;
(PID.TID 0000.0001) tRef =   /* Reference temperature profile ( oC or K ) */
(PID.TID 0000.0001)    23 @  2.000000000000000E+01              /* K =  1: 23 */
(PID.TID 0000.0001)     ;
(PID.TID 0000.0001) sRef =   /* Reference salinity profile ( psu ) */
(PID.TID 0000.0001)    23 @  3.000000000000000E+01              /* K =  1: 23 */
(PID.TID 0000.0001)     ;
(PID.TID 0000.0001) viscAh =   /* Lateral eddy viscosity ( m^2/s ) */
(PID.TID 0000.0001)                 5.000000000000000E+04
(PID.TID 0000.0001)     ;
(PID.TID 0000.0001) viscAhMax =   /* Maximum lateral eddy viscosity ( m^2/s ) */
(PID.TID 0000.0001)                 1.000000000000000E+21
(PID.TID 0000.0001)     ;
(PID.TID 0000.0001) viscAhGrid =   /* Grid dependent lateral eddy viscosity ( non-dim. ) */
(PID.TID 0000.0001)                 0.000000000000000E+00
(PID.TID 0000.0001)     ;
(PID.TID 0000.0001) useFullLeith =   /* Use Full Form of Leith Viscosity on/off flag*/
(PID.TID 0000.0001)                   F
(PID.TID 0000.0001)     ;
(PID.TID 0000.0001) useStrainTensionVisc =   /* Use StrainTension Form of Viscous Operator on/off flag*/
(PID.TID 0000.0001)                   F
(PID.TID 0000.0001)     ;
(PID.TID 0000.0001) useAreaViscLength =   /* Use area for visc length instead of geom. mean*/
(PID.TID 0000.0001)                   F
(PID.TID 0000.0001)     ;
(PID.TID 0000.0001) viscC2leith = /* Leith harmonic visc. factor (on grad(vort),non-dim.) */
(PID.TID 0000.0001)                 0.000000000000000E+00
(PID.TID 0000.0001)     ;
(PID.TID 0000.0001) viscC2leithD = /* Leith harmonic viscosity factor (on grad(div),non-dim.) */
(PID.TID 0000.0001)                 0.000000000000000E+00
(PID.TID 0000.0001)     ;
(PID.TID 0000.0001) viscC2smag =   /* Smagorinsky harmonic viscosity factor (non-dim.) */
(PID.TID 0000.0001)                 0.000000000000000E+00
(PID.TID 0000.0001)     ;
(PID.TID 0000.0001) viscA4 =   /* Lateral biharmonic viscosity ( m^4/s ) */
(PID.TID 0000.0001)                 5.000000000000000E+12
(PID.TID 0000.0001)     ;
(PID.TID 0000.0001) viscA4Max =   /* Maximum biharmonic viscosity ( m^2/s ) */
(PID.TID 0000.0001)                 1.000000000000000E+21
(PID.TID 0000.0001)     ;
(PID.TID 0000.0001) viscA4Grid =   /* Grid dependent biharmonic viscosity ( non-dim. ) */
(PID.TID 0000.0001)                 0.000000000000000E+00
(PID.TID 0000.0001)     ;
(PID.TID 0000.0001) viscC4leith = /* Leith biharm viscosity factor (on grad(vort), non-dim.) */
(PID.TID 0000.0001)                 0.000000000000000E+00
(PID.TID 0000.0001)     ;
(PID.TID 0000.0001) viscC4leithD = /* Leith biharm viscosity factor (on grad(div), non-dim.) */
(PID.TID 0000.0001)                 0.000000000000000E+00
(PID.TID 0000.0001)     ;
(PID.TID 0000.0001) viscC4Smag = /* Smagorinsky biharm viscosity factor (non-dim) */
(PID.TID 0000.0001)                 0.000000000000000E+00
(PID.TID 0000.0001)     ;
(PID.TID 0000.0001) no_slip_sides =  /* Viscous BCs: No-slip sides */
(PID.TID 0000.0001)                   F
(PID.TID 0000.0001)     ;
(PID.TID 0000.0001) sideDragFactor = /* side-drag scaling factor (non-dim) */
(PID.TID 0000.0001)                 2.000000000000000E+00
(PID.TID 0000.0001)     ;
(PID.TID 0000.0001) viscAr =   /* Vertical eddy viscosity ( units of r^2/s ) */
(PID.TID 0000.0001)                 1.000000000000000E-03
(PID.TID 0000.0001)     ;
(PID.TID 0000.0001) no_slip_bottom =  /* Viscous BCs: No-slip bottom */
(PID.TID 0000.0001)                   T
(PID.TID 0000.0001)     ;
(PID.TID 0000.0001) bottomDragLinear = /* linear bottom-drag coefficient ( 1/s ) */
(PID.TID 0000.0001)                 0.000000000000000E+00
(PID.TID 0000.0001)     ;
(PID.TID 0000.0001) bottomDragQuadratic = /* quadratic bottom-drag coeff. ( 1/m ) */
(PID.TID 0000.0001)                 0.000000000000000E+00
(PID.TID 0000.0001)     ;
(PID.TID 0000.0001) diffKhT =   /* Laplacian diffusion of heat laterally ( m^2/s ) */
(PID.TID 0000.0001)                 1.000000000000000E+03
(PID.TID 0000.0001)     ;
(PID.TID 0000.0001) diffK4T =   /* Bihaarmonic diffusion of heat laterally ( m^4/s ) */
(PID.TID 0000.0001)                 0.000000000000000E+00
(PID.TID 0000.0001)     ;
(PID.TID 0000.0001) diffKhS =   /* Laplacian diffusion of salt laterally ( m^2/s ) */
(PID.TID 0000.0001)                 1.000000000000000E+03
(PID.TID 0000.0001)     ;
(PID.TID 0000.0001) diffK4S =   /* Bihaarmonic diffusion of salt laterally ( m^4/s ) */
(PID.TID 0000.0001)                 0.000000000000000E+00
(PID.TID 0000.0001)     ;
(PID.TID 0000.0001) diffKrNrT = /* vertical profile of vertical diffusion of Temp ( m^2/s )*/
(PID.TID 0000.0001)    23 @  1.000000000000000E-05              /* K =  1: 23 */
(PID.TID 0000.0001)     ;
(PID.TID 0000.0001) diffKrNrS = /* vertical profile of vertical diffusion of Salt ( m^2/s )*/
(PID.TID 0000.0001)    23 @  1.000000000000000E-05              /* K =  1: 23 */
(PID.TID 0000.0001)     ;
(PID.TID 0000.0001) diffKrBL79surf =   /* Surface diffusion for Bryan and Lewis 1979 ( m^2/s ) */
(PID.TID 0000.0001)                 0.000000000000000E+00
(PID.TID 0000.0001)     ;
(PID.TID 0000.0001) diffKrBL79deep =   /* Deep diffusion for Bryan and Lewis 1979 ( m^2/s ) */
(PID.TID 0000.0001)                 0.000000000000000E+00
(PID.TID 0000.0001)     ;
(PID.TID 0000.0001) diffKrBL79scl =   /* Depth scale for Bryan and Lewis 1979 ( m ) */
(PID.TID 0000.0001)                 2.000000000000000E+02
(PID.TID 0000.0001)     ;
(PID.TID 0000.0001) diffKrBL79Ho =   /* Turning depth for Bryan and Lewis 1979 ( m ) */
(PID.TID 0000.0001)                -2.000000000000000E+03
(PID.TID 0000.0001)     ;
(PID.TID 0000.0001) ivdc_kappa = /* Implicit Vertical Diffusivity for Convection ( m^2/s ) */
(PID.TID 0000.0001)                 0.000000000000000E+00
(PID.TID 0000.0001)     ;
(PID.TID 0000.0001) hMixCriteria=  /* Criteria for mixed-layer diagnostic */
(PID.TID 0000.0001)                -8.000000000000000E-01
(PID.TID 0000.0001)     ;
(PID.TID 0000.0001) eosType =  /* Type of Equation of State */
(PID.TID 0000.0001)               'POLY3 '
(PID.TID 0000.0001)     ;
(PID.TID 0000.0001) tAlpha =   /* Linear EOS thermal expansion coefficient ( 1/oC ) */
(PID.TID 0000.0001)                 2.000000000000000E-04
(PID.TID 0000.0001)     ;
(PID.TID 0000.0001) sBeta =   /* Linear EOS haline contraction coefficient ( 1/psu ) */
(PID.TID 0000.0001)                 7.400000000000000E-04
(PID.TID 0000.0001)     ;
(PID.TID 0000.0001)   1  13.499  32.600  24.480  -0.201   0.771  -0.005  -0.002   0.000   0.000   0.000   0.000   0.000
(PID.TID 0000.0001)   2  13.498  32.600  24.525  -0.202   0.771  -0.005  -0.002   0.000   0.000   0.000   0.000   0.000
(PID.TID 0000.0001)   3  13.496  32.600  24.581  -0.202   0.771  -0.005  -0.002   0.000   0.000   0.000   0.000   0.000
(PID.TID 0000.0001)   4  13.494  32.600  24.660  -0.202   0.771  -0.005  -0.002   0.000   0.000   0.000   0.000   0.000
(PID.TID 0000.0001)   5  13.491  32.600  24.750  -0.203   0.771  -0.005  -0.002   0.000   0.000   0.000   0.000   0.000
(PID.TID 0000.0001)   6  13.488  32.600  24.851  -0.203   0.770  -0.005  -0.002   0.000   0.000   0.000   0.000   0.000
(PID.TID 0000.0001)   7  13.484  32.600  24.985  -0.204   0.770  -0.005  -0.002   0.000   0.000   0.000   0.000   0.000
(PID.TID 0000.0001)   8  13.478  32.600  25.176  -0.204   0.770  -0.005  -0.002   0.000   0.000   0.000   0.000   0.000
(PID.TID 0000.0001)   9  13.469  32.600  25.456  -0.205   0.769  -0.005  -0.002   0.000   0.000   0.000   0.000   0.000
(PID.TID 0000.0001)  10   8.467  35.150  28.748  -0.163   0.781  -0.005  -0.002   0.001   0.000   0.000   0.000   0.000
(PID.TID 0000.0001)  11   8.454  35.150  29.315  -0.166   0.780  -0.005  -0.002   0.001   0.000   0.000   0.000   0.000
(PID.TID 0000.0001)  12   5.946  34.900  30.300  -0.143   0.785  -0.006  -0.002   0.001   0.000   0.000   0.000   0.000
(PID.TID 0000.0001)  13   4.433  34.900  31.591  -0.132   0.786  -0.006  -0.003   0.000   0.000   0.000   0.000   0.000
(PID.TID 0000.0001)  14   3.909  34.750  32.966  -0.134   0.785  -0.006  -0.003   0.000   0.000   0.000   0.000   0.000
(PID.TID 0000.0001)  15   1.899  34.800  35.002  -0.121   0.787  -0.006  -0.003   0.000   0.000   0.000   0.000   0.000
(PID.TID 0000.0001)  16   1.372  34.750  36.991  -0.127   0.785  -0.006  -0.003  -0.001   0.000   0.000   0.000   0.000
(PID.TID 0000.0001)  17   1.332  34.800  39.171  -0.140   0.782  -0.006  -0.003  -0.001   0.000   0.000   0.000   0.000
(PID.TID 0000.0001)  18   0.797  34.800  41.472  -0.147   0.779  -0.006  -0.003  -0.001   0.000   0.000   0.000   0.000
(PID.TID 0000.0001)  19   0.749  34.800  43.682  -0.160   0.775  -0.005  -0.002  -0.002   0.000   0.000   0.000   0.000
(PID.TID 0000.0001)  20   0.214  34.750  45.912  -0.168   0.772  -0.005  -0.002  -0.002   0.000   0.000   0.000   0.000
(PID.TID 0000.0001)  21   0.160  34.750  48.080  -0.181   0.768  -0.005  -0.002  -0.003   0.000   0.000   0.000   0.000
(PID.TID 0000.0001)  22   0.584  34.750  50.131  -0.197   0.763  -0.005  -0.002  -0.001   0.000   0.000   0.000   0.000
(PID.TID 0000.0001)  23   0.522  34.750  52.248  -0.209   0.760  -0.005  -0.002  -0.002   0.000   0.000   0.000   0.000
(PID.TID 0000.0001) rhonil =   /* Reference density ( kg/m^3 ) */
(PID.TID 0000.0001)                 9.998000000000000E+02
(PID.TID 0000.0001)     ;
(PID.TID 0000.0001) rhoConst =   /* Reference density ( kg/m^3 ) */
(PID.TID 0000.0001)                 9.998000000000000E+02
(PID.TID 0000.0001)     ;
(PID.TID 0000.0001) rhoFacC = /* normalized Reference density @ cell-Center (-) */
(PID.TID 0000.0001)    23 @  1.000000000000000E+00              /* K =  1: 23 */
(PID.TID 0000.0001)     ;
(PID.TID 0000.0001) rhoFacF = /* normalized Reference density @ W-Interface (-) */
(PID.TID 0000.0001)    24 @  1.000000000000000E+00              /* K =  1: 24 */
(PID.TID 0000.0001)     ;
(PID.TID 0000.0001) rhoConstFresh =   /* Reference density ( kg/m^3 ) */
(PID.TID 0000.0001)                 9.998000000000000E+02
(PID.TID 0000.0001)     ;
(PID.TID 0000.0001) gravity =   /* Gravitational acceleration ( m/s^2 ) */
(PID.TID 0000.0001)                 9.810000000000000E+00
(PID.TID 0000.0001)     ;
(PID.TID 0000.0001) gBaro =   /* Barotropic gravity ( m/s^2 ) */
(PID.TID 0000.0001)                 9.810000000000000E+00
(PID.TID 0000.0001)     ;
(PID.TID 0000.0001) rotationPeriod =   /* Rotation Period ( s ) */
(PID.TID 0000.0001)                 8.640000000000000E+04
(PID.TID 0000.0001)     ;
(PID.TID 0000.0001) omega =   /* Angular velocity ( rad/s ) */
(PID.TID 0000.0001)                 7.272205216643040E-05
(PID.TID 0000.0001)     ;
(PID.TID 0000.0001) f0 =   /* Reference coriolis parameter ( 1/s ) */
(PID.TID 0000.0001)                 1.000000000000000E-04
(PID.TID 0000.0001)     ;
(PID.TID 0000.0001) beta =   /* Beta ( 1/(m.s) ) */
(PID.TID 0000.0001)                 9.999999999999999E-12
(PID.TID 0000.0001)     ;
(PID.TID 0000.0001) freeSurfFac =   /* Implicit free surface factor */
(PID.TID 0000.0001)                 1.000000000000000E+00
(PID.TID 0000.0001)     ;
(PID.TID 0000.0001) implicitFreeSurface =   /* Implicit free surface on/off flag */
(PID.TID 0000.0001)                   T
(PID.TID 0000.0001)     ;
(PID.TID 0000.0001) rigidLid =   /* Rigid lid on/off flag */
(PID.TID 0000.0001)                   F
(PID.TID 0000.0001)     ;
(PID.TID 0000.0001) implicSurfPress =   /* Surface Pressure implicit factor (0-1)*/
(PID.TID 0000.0001)                 1.000000000000000E+00
(PID.TID 0000.0001)     ;
(PID.TID 0000.0001) implicDiv2Dflow =   /* Barot. Flow Div. implicit factor (0-1)*/
(PID.TID 0000.0001)                 1.000000000000000E+00
(PID.TID 0000.0001)     ;
(PID.TID 0000.0001) exactConserv =   /* Exact Volume Conservation on/off flag*/
(PID.TID 0000.0001)                   F
(PID.TID 0000.0001)     ;
(PID.TID 0000.0001) linFSConserveTr =   /* Tracer correction for Lin Free Surface on/off flag*/
(PID.TID 0000.0001)                   F
(PID.TID 0000.0001)     ;
(PID.TID 0000.0001) uniformLin_PhiSurf =   /* use uniform Bo_surf on/off flag*/
(PID.TID 0000.0001)                   T
(PID.TID 0000.0001)     ;
(PID.TID 0000.0001) nonlinFreeSurf =   /* Non-linear Free Surf. options (-1,0,1,2,3)*/
(PID.TID 0000.0001)                       0
(PID.TID 0000.0001)     ;
(PID.TID 0000.0001)      -1,0= Off ; 1,2,3= On, 2=+rescale gU,gV, 3=+update cg2d solv.
(PID.TID 0000.0001) hFacInf =   /* lower threshold for hFac (nonlinFreeSurf only)*/
(PID.TID 0000.0001)                 2.000000000000000E-01
(PID.TID 0000.0001)     ;
(PID.TID 0000.0001) hFacSup =   /* upper threshold for hFac (nonlinFreeSurf only)*/
(PID.TID 0000.0001)                 2.000000000000000E+00
(PID.TID 0000.0001)     ;
(PID.TID 0000.0001) select_rStar =   /* r* Coordinate options (not yet implemented)*/
(PID.TID 0000.0001)                       0
(PID.TID 0000.0001)     ;
(PID.TID 0000.0001) useRealFreshWaterFlux =   /* Real Fresh Water Flux on/off flag*/
(PID.TID 0000.0001)                   F
(PID.TID 0000.0001)     ;
(PID.TID 0000.0001) convertFW2Salt = /* convert F.W. Flux to Salt Flux (-1=use local S)(ppt)*/
(PID.TID 0000.0001)                 3.500000000000000E+01
(PID.TID 0000.0001)     ;
(PID.TID 0000.0001) use3Dsolver = /* use 3-D pressure solver on/off flag */
(PID.TID 0000.0001)                   F
(PID.TID 0000.0001)     ;
(PID.TID 0000.0001) nonHydrostatic =  /* Non-Hydrostatic on/off flag */
(PID.TID 0000.0001)                   F
(PID.TID 0000.0001)     ;
(PID.TID 0000.0001) nh_Am2 = /* Non-Hydrostatic terms scaling factor */
(PID.TID 0000.0001)                 1.000000000000000E+00
(PID.TID 0000.0001)     ;
(PID.TID 0000.0001) quasiHydrostatic = /* Quasi-Hydrostatic on/off flag */
(PID.TID 0000.0001)                   F
(PID.TID 0000.0001)     ;
(PID.TID 0000.0001) momStepping =  /* Momentum equation on/off flag */
(PID.TID 0000.0001)                   T
(PID.TID 0000.0001)     ;
(PID.TID 0000.0001) vectorInvariantMomentum= /* Vector-Invariant Momentum on/off */
(PID.TID 0000.0001)                   F
(PID.TID 0000.0001)     ;
(PID.TID 0000.0001) momAdvection =  /* Momentum advection on/off flag */
(PID.TID 0000.0001)                   T
(PID.TID 0000.0001)     ;
(PID.TID 0000.0001) momViscosity =  /* Momentum viscosity on/off flag */
(PID.TID 0000.0001)                   T
(PID.TID 0000.0001)     ;
(PID.TID 0000.0001) momImplVertAdv =/* Momentum implicit vert. advection on/off*/
(PID.TID 0000.0001)                   F
(PID.TID 0000.0001)     ;
(PID.TID 0000.0001) implicitViscosity = /* Implicit viscosity on/off flag */
(PID.TID 0000.0001)                   T
(PID.TID 0000.0001)     ;
(PID.TID 0000.0001) metricTerms =  /* metric-Terms on/off flag */
(PID.TID 0000.0001)                   T
(PID.TID 0000.0001)     ;
(PID.TID 0000.0001) useNHMTerms = /* Non-Hydrostatic Metric-Terms on/off */
(PID.TID 0000.0001)                   T
(PID.TID 0000.0001)     ;
(PID.TID 0000.0001) useConstantF =  /* use Constant f0 Coriolis flag */
(PID.TID 0000.0001)                   F
(PID.TID 0000.0001)     ;
(PID.TID 0000.0001) useBetaPlaneF = /* use Beta-Plane Coriolis flag */
(PID.TID 0000.0001)                   F
(PID.TID 0000.0001)     ;
(PID.TID 0000.0001) useSphereF  =   /* use Spherical Coriolis flag */
(PID.TID 0000.0001)                   T
(PID.TID 0000.0001)     ;
(PID.TID 0000.0001) use3dCoriolis = /* 3-D Coriolis on/off flag */
(PID.TID 0000.0001)                   F
(PID.TID 0000.0001)     ;
(PID.TID 0000.0001) useCoriolis =  /* Coriolis on/off flag */
(PID.TID 0000.0001)                   T
(PID.TID 0000.0001)     ;
(PID.TID 0000.0001) useCDscheme =  /* CD scheme on/off flag */
(PID.TID 0000.0001)                   T
(PID.TID 0000.0001)     ;
(PID.TID 0000.0001) useJamartWetPoints= /* Coriolis WetPoints method flag */
(PID.TID 0000.0001)                   F
(PID.TID 0000.0001)     ;
(PID.TID 0000.0001) useJamartMomAdv= /* V.I. Non-linear terms Jamart flag */
(PID.TID 0000.0001)                   F
(PID.TID 0000.0001)     ;
(PID.TID 0000.0001) SadournyCoriolis= /* Sadourny Coriolis discr. flag */
(PID.TID 0000.0001)                   F
(PID.TID 0000.0001)     ;
(PID.TID 0000.0001) upwindVorticity= /* Upwind bias vorticity flag */
(PID.TID 0000.0001)                   F
(PID.TID 0000.0001)     ;
(PID.TID 0000.0001) useAbsVorticity= /* Work with f+zeta in Coriolis */
(PID.TID 0000.0001)                   F
(PID.TID 0000.0001)     ;
(PID.TID 0000.0001) highOrderVorticity= /* High order interp. of vort. flag */
(PID.TID 0000.0001)                   F
(PID.TID 0000.0001)     ;
(PID.TID 0000.0001) upwindShear= /* Upwind vertical Shear advection flag */
(PID.TID 0000.0001)                   F
(PID.TID 0000.0001)     ;
(PID.TID 0000.0001) selectKEscheme= /* Kinetic Energy scheme selector */
(PID.TID 0000.0001)                       0
(PID.TID 0000.0001)     ;
(PID.TID 0000.0001) momForcing =  /* Momentum forcing on/off flag */
(PID.TID 0000.0001)                   T
(PID.TID 0000.0001)     ;
(PID.TID 0000.0001) momPressureForcing =  /* Momentum pressure term on/off flag */
(PID.TID 0000.0001)                   T
(PID.TID 0000.0001)     ;
(PID.TID 0000.0001) implicitIntGravWave= /* Implicit Internal Gravity Wave flag */
(PID.TID 0000.0001)                   F
(PID.TID 0000.0001)     ;
(PID.TID 0000.0001) staggerTimeStep =   /* Stagger time stepping on/off flag */
(PID.TID 0000.0001)                   F
(PID.TID 0000.0001)     ;
(PID.TID 0000.0001) multiDimAdvection =   /* enable/disable Multi-Dim Advection */
(PID.TID 0000.0001)                   T
(PID.TID 0000.0001)     ;
(PID.TID 0000.0001) useMultiDimAdvec =   /* Multi-Dim Advection is/is-not used */
(PID.TID 0000.0001)                   F
(PID.TID 0000.0001)     ;
(PID.TID 0000.0001) implicitDiffusion =/* Implicit Diffusion on/off flag */
(PID.TID 0000.0001)                   T
(PID.TID 0000.0001)     ;
(PID.TID 0000.0001) tempStepping =  /* Temperature equation on/off flag */
(PID.TID 0000.0001)                   T
(PID.TID 0000.0001)     ;
(PID.TID 0000.0001) tempAdvection=  /* Temperature advection on/off flag */
(PID.TID 0000.0001)                   T
(PID.TID 0000.0001)     ;
(PID.TID 0000.0001) tempImplVertAdv =/* Temp. implicit vert. advection on/off */
(PID.TID 0000.0001)                   F
(PID.TID 0000.0001)     ;
(PID.TID 0000.0001) tempForcing  =  /* Temperature forcing on/off flag */
(PID.TID 0000.0001)                   T
(PID.TID 0000.0001)     ;
(PID.TID 0000.0001) saltStepping =  /* Salinity equation on/off flag */
(PID.TID 0000.0001)                   T
(PID.TID 0000.0001)     ;
(PID.TID 0000.0001) saltAdvection=  /* Salinity advection on/off flag */
(PID.TID 0000.0001)                   T
(PID.TID 0000.0001)     ;
(PID.TID 0000.0001) saltImplVertAdv =/* Sali. implicit vert. advection on/off */
(PID.TID 0000.0001)                   F
(PID.TID 0000.0001)     ;
(PID.TID 0000.0001) saltForcing  =  /* Salinity forcing on/off flag */
(PID.TID 0000.0001)                   T
(PID.TID 0000.0001)     ;
(PID.TID 0000.0001)  readBinaryPrec = /* Precision used for reading binary files */
(PID.TID 0000.0001)                      32
(PID.TID 0000.0001)     ;
(PID.TID 0000.0001) writeBinaryPrec = /* Precision used for writing binary files */
(PID.TID 0000.0001)                      32
(PID.TID 0000.0001)     ;
(PID.TID 0000.0001)  globalFiles = /* write "global" (=not per tile) files */
(PID.TID 0000.0001)                   F
(PID.TID 0000.0001)     ;
(PID.TID 0000.0001)  useSingleCpuIO = /* only master MPI process does I/O */
(PID.TID 0000.0001)                   F
(PID.TID 0000.0001)     ;
(PID.TID 0000.0001)  debugMode  =  /* Debug Mode on/off flag */
(PID.TID 0000.0001)                   F
(PID.TID 0000.0001)     ;
(PID.TID 0000.0001)    debLevA  =  /* 1rst level of debugging */
(PID.TID 0000.0001)                       1
(PID.TID 0000.0001)     ;
(PID.TID 0000.0001)    debLevB  =  /* 2nd  level of debugging */
(PID.TID 0000.0001)                       2
(PID.TID 0000.0001)     ;
(PID.TID 0000.0001)  debugLevel =  /* select debugging level */
(PID.TID 0000.0001)                       1
(PID.TID 0000.0001)     ;
(PID.TID 0000.0001) //
(PID.TID 0000.0001) // Elliptic solver(s) paramters ( PARM02 in namelist )
(PID.TID 0000.0001) //
(PID.TID 0000.0001) cg2dMaxIters =   /* Upper limit on 2d con. grad iterations  */
(PID.TID 0000.0001)                    1000
(PID.TID 0000.0001)     ;
(PID.TID 0000.0001) cg2dChkResFreq =   /* 2d con. grad convergence test frequency */
(PID.TID 0000.0001)                       1
(PID.TID 0000.0001)     ;
(PID.TID 0000.0001) cg2dTargetResidual =   /* 2d con. grad target residual  */
(PID.TID 0000.0001)                 1.000000000000000E-13
(PID.TID 0000.0001)     ;
(PID.TID 0000.0001) cg2dTargetResWunit =   /* CG2d target residual [W units] */
(PID.TID 0000.0001)                -1.000000000000000E+00
(PID.TID 0000.0001)     ;
(PID.TID 0000.0001) cg2dPreCondFreq =   /* Freq. for updating cg2d preconditioner */
(PID.TID 0000.0001)                       1
(PID.TID 0000.0001)     ;
(PID.TID 0000.0001) //
(PID.TID 0000.0001) // Time stepping paramters ( PARM03 in namelist )
(PID.TID 0000.0001) //
(PID.TID 0000.0001) nIter0 =   /* Run starting timestep number  */
(PID.TID 0000.0001)                       0
(PID.TID 0000.0001)     ;
(PID.TID 0000.0001) nTimeSteps =   /* Number of timesteps */
(PID.TID 0000.0001)                      20
(PID.TID 0000.0001)     ;
(PID.TID 0000.0001) deltaTmom =   /* Momentum equation timestep ( s ) */
(PID.TID 0000.0001)                 3.600000000000000E+03
(PID.TID 0000.0001)     ;
(PID.TID 0000.0001) deltaTfreesurf =   /* FreeSurface equation timestep ( s ) */
(PID.TID 0000.0001)                 3.600000000000000E+03
(PID.TID 0000.0001)     ;
(PID.TID 0000.0001) dTtracerLev =   /* Tracer equation timestep ( s ) */
(PID.TID 0000.0001)    23 @  3.600000000000000E+03              /* K =  1: 23 */
(PID.TID 0000.0001)     ;
(PID.TID 0000.0001) deltaTClock  =   /* Model clock timestep ( s ) */
(PID.TID 0000.0001)                 3.600000000000000E+03
(PID.TID 0000.0001)     ;
(PID.TID 0000.0001) cAdjFreq =   /* Convective adjustment interval ( s ) */
(PID.TID 0000.0001)                 0.000000000000000E+00
(PID.TID 0000.0001)     ;
(PID.TID 0000.0001) momForcingOutAB = /* =1: take Momentum Forcing out of Adams-Bash. stepping */
(PID.TID 0000.0001)                       0
(PID.TID 0000.0001)     ;
(PID.TID 0000.0001) tracForcingOutAB = /* =1: take T,S,pTr Forcing out of Adams-Bash. stepping */
(PID.TID 0000.0001)                       0
(PID.TID 0000.0001)     ;
(PID.TID 0000.0001) momDissip_In_AB = /* put Dissipation Tendency in Adams-Bash. stepping */
(PID.TID 0000.0001)                   T
(PID.TID 0000.0001)     ;
(PID.TID 0000.0001) doAB_onGtGs = /* apply AB on Tendencies (rather than on T,S)*/
(PID.TID 0000.0001)                   T
(PID.TID 0000.0001)     ;
(PID.TID 0000.0001) abEps =   /* Adams-Bashforth-2 stabilizing weight */
(PID.TID 0000.0001)                 1.000000000000000E-01
(PID.TID 0000.0001)     ;
(PID.TID 0000.0001) tauCD =   /* CD coupling time-scale ( s ) */
(PID.TID 0000.0001)                 1.728000000000000E+05
(PID.TID 0000.0001)     ;
(PID.TID 0000.0001) rCD =   /* Normalised CD coupling parameter */
(PID.TID 0000.0001)                 9.791666666666666E-01
(PID.TID 0000.0001)     ;
(PID.TID 0000.0001) baseTime =   /* Model base time ( s ). */
(PID.TID 0000.0001)                 2.160000000000000E+04
(PID.TID 0000.0001)     ;
(PID.TID 0000.0001) startTime =   /* Run start time ( s ). */
(PID.TID 0000.0001)                 2.160000000000000E+04
(PID.TID 0000.0001)     ;
(PID.TID 0000.0001) endTime =   /* Integration ending time ( s ). */
(PID.TID 0000.0001)                 9.360000000000000E+04
(PID.TID 0000.0001)     ;
(PID.TID 0000.0001) pChkPtFreq =   /* Permanent restart/checkpoint file interval ( s ). */
(PID.TID 0000.0001)                 0.000000000000000E+00
(PID.TID 0000.0001)     ;
(PID.TID 0000.0001) chkPtFreq =   /* Rolling restart/checkpoint file interval ( s ). */
(PID.TID 0000.0001)                 0.000000000000000E+00
(PID.TID 0000.0001)     ;
(PID.TID 0000.0001) pickup_write_mdsio =   /* Model IO flag. */
(PID.TID 0000.0001)                   T
(PID.TID 0000.0001)     ;
(PID.TID 0000.0001) pickup_read_mdsio =   /* Model IO flag. */
(PID.TID 0000.0001)                   T
(PID.TID 0000.0001)     ;
(PID.TID 0000.0001) pickup_write_immed =   /* Model IO flag. */
(PID.TID 0000.0001)                   F
(PID.TID 0000.0001)     ;
(PID.TID 0000.0001) dumpFreq =   /* Model state write out interval ( s ). */
(PID.TID 0000.0001)                 8.640000000000000E+04
(PID.TID 0000.0001)     ;
(PID.TID 0000.0001) dumpInitAndLast= /* write out Initial & Last iter. model state */
(PID.TID 0000.0001)                   T
(PID.TID 0000.0001)     ;
(PID.TID 0000.0001) snapshot_mdsio =   /* Model IO flag. */
(PID.TID 0000.0001)                   T
(PID.TID 0000.0001)     ;
(PID.TID 0000.0001) monitorFreq =   /* Monitor output interval ( s ). */
(PID.TID 0000.0001)                 1.000000000000000E+00
(PID.TID 0000.0001)     ;
(PID.TID 0000.0001) monitor_stdio =   /* Model IO flag. */
(PID.TID 0000.0001)                   T
(PID.TID 0000.0001)     ;
(PID.TID 0000.0001) externForcingPeriod =   /* forcing period (s) */
(PID.TID 0000.0001)                 4.320000000000000E+04
(PID.TID 0000.0001)     ;
(PID.TID 0000.0001) externForcingCycle =   /* period of the cyle (s). */
(PID.TID 0000.0001)                 2.764800000000000E+06
(PID.TID 0000.0001)     ;
(PID.TID 0000.0001) tauThetaClimRelax =   /* relaxation time scale (s) */
(PID.TID 0000.0001)                 2.592000000000000E+06
(PID.TID 0000.0001)     ;
(PID.TID 0000.0001) tauSaltClimRelax =   /* relaxation time scale (s) */
(PID.TID 0000.0001)                 2.592000000000000E+06
(PID.TID 0000.0001)     ;
(PID.TID 0000.0001) latBandClimRelax =   /* max. Lat. where relaxation */
(PID.TID 0000.0001)                 1.800000000000000E+02
(PID.TID 0000.0001)     ;
(PID.TID 0000.0001) //
(PID.TID 0000.0001) // Gridding paramters ( PARM04 in namelist )
(PID.TID 0000.0001) //
(PID.TID 0000.0001) usingCartesianGrid = /* Cartesian coordinates flag ( True/False ) */
(PID.TID 0000.0001)                   F
(PID.TID 0000.0001)     ;
(PID.TID 0000.0001) usingCylindricalGrid = /* Cylindrical coordinates flag ( True/False ) */
(PID.TID 0000.0001)                   F
(PID.TID 0000.0001)     ;
(PID.TID 0000.0001) usingSphericalPolarGrid = /* Spherical coordinates flag ( True/False ) */
(PID.TID 0000.0001)                   T
(PID.TID 0000.0001)     ;
(PID.TID 0000.0001) usingCurvilinearGrid = /* Curvilinear coordinates flag ( True/False ) */
(PID.TID 0000.0001)                   F
(PID.TID 0000.0001)     ;
(PID.TID 0000.0001) Ro_SeaLevel = /* r(1) ( units of r ) */
(PID.TID 0000.0001)                 0.000000000000000E+00
(PID.TID 0000.0001)     ;
(PID.TID 0000.0001) rkSign =   /* index orientation relative to vertical coordinate */
(PID.TID 0000.0001)                -1.000000000000000E+00
(PID.TID 0000.0001)     ;
(PID.TID 0000.0001) gravitySign = /* gravity orientation relative to vertical coordinate */
(PID.TID 0000.0001)                -1.000000000000000E+00
(PID.TID 0000.0001)     ;
(PID.TID 0000.0001) horiVertRatio =   /* Ratio on units : Horiz - Vertical */
(PID.TID 0000.0001)                 1.000000000000000E+00
(PID.TID 0000.0001)     ;
(PID.TID 0000.0001) drC =   /* C spacing ( units of r ) */
(PID.TID 0000.0001)                 5.000000000000000E+00,      /* K =  1 */
(PID.TID 0000.0001)                 1.000000000000000E+01,      /* K =  2 */
(PID.TID 0000.0001)                 1.250000000000000E+01,      /* K =  3 */
(PID.TID 0000.0001)                 1.750000000000000E+01,      /* K =  4 */
(PID.TID 0000.0001)                 2.000000000000000E+01,      /* K =  5 */
(PID.TID 0000.0001)                 2.250000000000000E+01,      /* K =  6 */
(PID.TID 0000.0001)                 3.000000000000000E+01,      /* K =  7 */
(PID.TID 0000.0001)                 4.250000000000000E+01,      /* K =  8 */
(PID.TID 0000.0001)                 6.250000000000000E+01,      /* K =  9 */
(PID.TID 0000.0001)                 8.750000000000000E+01,      /* K = 10 */
(PID.TID 0000.0001)                 1.250000000000000E+02,      /* K = 11 */
(PID.TID 0000.0001)                 1.750000000000000E+02,      /* K = 12 */
(PID.TID 0000.0001)                 2.375000000000000E+02,      /* K = 13 */
(PID.TID 0000.0001)                 3.125000000000000E+02,      /* K = 14 */
(PID.TID 0000.0001)                 3.825000000000000E+02,      /* K = 15 */
(PID.TID 0000.0001)                 4.325000000000000E+02,      /* K = 16 */
(PID.TID 0000.0001)                 4.750000000000000E+02,      /* K = 17 */
(PID.TID 0000.0001)     6 @  5.000000000000000E+02              /* K = 18: 23 */
(PID.TID 0000.0001)     ;
(PID.TID 0000.0001) drF =   /* W spacing ( units of r ) */
(PID.TID 0000.0001)     2 @  1.000000000000000E+01,             /* K =  1:  2 */
(PID.TID 0000.0001)                 1.500000000000000E+01,      /* K =  3 */
(PID.TID 0000.0001)     2 @  2.000000000000000E+01,             /* K =  4:  5 */
(PID.TID 0000.0001)                 2.500000000000000E+01,      /* K =  6 */
(PID.TID 0000.0001)                 3.500000000000000E+01,      /* K =  7 */
(PID.TID 0000.0001)                 5.000000000000000E+01,      /* K =  8 */
(PID.TID 0000.0001)                 7.500000000000000E+01,      /* K =  9 */
(PID.TID 0000.0001)                 1.000000000000000E+02,      /* K = 10 */
(PID.TID 0000.0001)                 1.500000000000000E+02,      /* K = 11 */
(PID.TID 0000.0001)                 2.000000000000000E+02,      /* K = 12 */
(PID.TID 0000.0001)                 2.750000000000000E+02,      /* K = 13 */
(PID.TID 0000.0001)                 3.500000000000000E+02,      /* K = 14 */
(PID.TID 0000.0001)                 4.150000000000000E+02,      /* K = 15 */
(PID.TID 0000.0001)                 4.500000000000000E+02,      /* K = 16 */
(PID.TID 0000.0001)     7 @  5.000000000000000E+02              /* K = 17: 23 */
(PID.TID 0000.0001)     ;
(PID.TID 0000.0001) delX =   /* U spacing ( m - cartesian, degrees - spherical ) */
(PID.TID 0000.0001)    20 @  2.000000000000000E+00              /* I =  1: 20 */
(PID.TID 0000.0001)     ;
(PID.TID 0000.0001) delY =   /* V spacing ( m - cartesian, degrees - spherical ) */
(PID.TID 0000.0001)    16 @  2.000000000000000E+00              /* J =  1: 16 */
(PID.TID 0000.0001)     ;
(PID.TID 0000.0001) phiMin =    /* South edge (ignored - cartesian, degrees - spherical ) */
(PID.TID 0000.0001)                 1.000000000000000E+01
(PID.TID 0000.0001)     ;
(PID.TID 0000.0001) thetaMin =    /* West edge ( ignored - cartesian, degrees - spherical ) */
(PID.TID 0000.0001)                -4.200000000000000E+01
(PID.TID 0000.0001)     ;
(PID.TID 0000.0001) rSphere =  /* Radius ( ignored - cartesian, m - spherical ) */
(PID.TID 0000.0001)                 6.370000000000000E+06
(PID.TID 0000.0001)     ;
(PID.TID 0000.0001) deepAtmosphere = /* Deep/Shallow Atmosphere flag (True/False) */
(PID.TID 0000.0001)                   F
(PID.TID 0000.0001)     ;
(PID.TID 0000.0001) xcoord =   /* P-point X coord ( m - cartesian, degrees - spherical ) */
(PID.TID 0000.0001)                -4.100000000000000E+01,      /* I =  1 */
(PID.TID 0000.0001)                -3.900000000000000E+01,      /* I =  2 */
(PID.TID 0000.0001)                -3.700000000000000E+01,      /* I =  3 */
(PID.TID 0000.0001)                -3.500000000000000E+01,      /* I =  4 */
(PID.TID 0000.0001)                -3.300000000000000E+01,      /* I =  5 */
(PID.TID 0000.0001)                -3.100000000000000E+01,      /* I =  6 */
(PID.TID 0000.0001)                -2.900000000000000E+01,      /* I =  7 */
(PID.TID 0000.0001)                -2.700000000000000E+01,      /* I =  8 */
(PID.TID 0000.0001)                -2.500000000000000E+01,      /* I =  9 */
(PID.TID 0000.0001)                -2.300000000000000E+01,      /* I = 10 */
(PID.TID 0000.0001)                -2.100000000000000E+01,      /* I = 11 */
(PID.TID 0000.0001)                -1.900000000000000E+01,      /* I = 12 */
(PID.TID 0000.0001)                -1.700000000000000E+01,      /* I = 13 */
(PID.TID 0000.0001)                -1.500000000000000E+01,      /* I = 14 */
(PID.TID 0000.0001)                -1.300000000000000E+01,      /* I = 15 */
(PID.TID 0000.0001)                -1.100000000000000E+01,      /* I = 16 */
(PID.TID 0000.0001)                -9.000000000000000E+00,      /* I = 17 */
(PID.TID 0000.0001)                -7.000000000000000E+00,      /* I = 18 */
(PID.TID 0000.0001)                -5.000000000000000E+00,      /* I = 19 */
(PID.TID 0000.0001)                -3.000000000000000E+00       /* I = 20 */
(PID.TID 0000.0001)     ;
(PID.TID 0000.0001) ycoord =   /* P-point Y coord ( m - cartesian, degrees - spherical ) */
(PID.TID 0000.0001)                 1.100000000000000E+01,      /* J =  1 */
(PID.TID 0000.0001)                 1.300000000000000E+01,      /* J =  2 */
(PID.TID 0000.0001)                 1.500000000000000E+01,      /* J =  3 */
(PID.TID 0000.0001)                 1.700000000000000E+01,      /* J =  4 */
(PID.TID 0000.0001)                 1.900000000000000E+01,      /* J =  5 */
(PID.TID 0000.0001)                 2.100000000000000E+01,      /* J =  6 */
(PID.TID 0000.0001)                 2.300000000000000E+01,      /* J =  7 */
(PID.TID 0000.0001)                 2.500000000000000E+01,      /* J =  8 */
(PID.TID 0000.0001)                 2.700000000000000E+01,      /* J =  9 */
(PID.TID 0000.0001)                 2.900000000000000E+01,      /* J = 10 */
(PID.TID 0000.0001)                 3.100000000000000E+01,      /* J = 11 */
(PID.TID 0000.0001)                 3.300000000000000E+01,      /* J = 12 */
(PID.TID 0000.0001)                 3.500000000000000E+01,      /* J = 13 */
(PID.TID 0000.0001)                 3.700000000000000E+01,      /* J = 14 */
(PID.TID 0000.0001)                 3.900000000000000E+01,      /* J = 15 */
(PID.TID 0000.0001)                 4.100000000000000E+01       /* J = 16 */
(PID.TID 0000.0001)     ;
(PID.TID 0000.0001) rcoord =   /* P-point R coordinate (  units of r ) */
(PID.TID 0000.0001)                -5.000000000000000E+00,      /* K =  1 */
(PID.TID 0000.0001)                -1.500000000000000E+01,      /* K =  2 */
(PID.TID 0000.0001)                -2.750000000000000E+01,      /* K =  3 */
(PID.TID 0000.0001)                -4.500000000000000E+01,      /* K =  4 */
(PID.TID 0000.0001)                -6.500000000000000E+01,      /* K =  5 */
(PID.TID 0000.0001)                -8.750000000000000E+01,      /* K =  6 */
(PID.TID 0000.0001)                -1.175000000000000E+02,      /* K =  7 */
(PID.TID 0000.0001)                -1.600000000000000E+02,      /* K =  8 */
(PID.TID 0000.0001)                -2.225000000000000E+02,      /* K =  9 */
(PID.TID 0000.0001)                -3.100000000000000E+02,      /* K = 10 */
(PID.TID 0000.0001)                -4.350000000000000E+02,      /* K = 11 */
(PID.TID 0000.0001)                -6.100000000000000E+02,      /* K = 12 */
(PID.TID 0000.0001)                -8.475000000000000E+02,      /* K = 13 */
(PID.TID 0000.0001)                -1.160000000000000E+03,      /* K = 14 */
(PID.TID 0000.0001)                -1.542500000000000E+03,      /* K = 15 */
(PID.TID 0000.0001)                -1.975000000000000E+03,      /* K = 16 */
(PID.TID 0000.0001)                -2.450000000000000E+03,      /* K = 17 */
(PID.TID 0000.0001)                -2.950000000000000E+03,      /* K = 18 */
(PID.TID 0000.0001)                -3.450000000000000E+03,      /* K = 19 */
(PID.TID 0000.0001)                -3.950000000000000E+03,      /* K = 20 */
(PID.TID 0000.0001)                -4.450000000000000E+03,      /* K = 21 */
(PID.TID 0000.0001)                -4.950000000000000E+03,      /* K = 22 */
(PID.TID 0000.0001)                -5.450000000000000E+03       /* K = 23 */
(PID.TID 0000.0001)     ;
(PID.TID 0000.0001) rF =   /* W-Interf. R coordinate (  units of r ) */
(PID.TID 0000.0001)                 0.000000000000000E+00,      /* K =  1 */
(PID.TID 0000.0001)                -1.000000000000000E+01,      /* K =  2 */
(PID.TID 0000.0001)                -2.000000000000000E+01,      /* K =  3 */
(PID.TID 0000.0001)                -3.500000000000000E+01,      /* K =  4 */
(PID.TID 0000.0001)                -5.500000000000000E+01,      /* K =  5 */
(PID.TID 0000.0001)                -7.500000000000000E+01,      /* K =  6 */
(PID.TID 0000.0001)                -1.000000000000000E+02,      /* K =  7 */
(PID.TID 0000.0001)                -1.350000000000000E+02,      /* K =  8 */
(PID.TID 0000.0001)                -1.850000000000000E+02,      /* K =  9 */
(PID.TID 0000.0001)                -2.600000000000000E+02,      /* K = 10 */
(PID.TID 0000.0001)                -3.600000000000000E+02,      /* K = 11 */
(PID.TID 0000.0001)                -5.100000000000000E+02,      /* K = 12 */
(PID.TID 0000.0001)                -7.100000000000000E+02,      /* K = 13 */
(PID.TID 0000.0001)                -9.850000000000000E+02,      /* K = 14 */
(PID.TID 0000.0001)                -1.335000000000000E+03,      /* K = 15 */
(PID.TID 0000.0001)                -1.750000000000000E+03,      /* K = 16 */
(PID.TID 0000.0001)                -2.200000000000000E+03,      /* K = 17 */
(PID.TID 0000.0001)                -2.700000000000000E+03,      /* K = 18 */
(PID.TID 0000.0001)                -3.200000000000000E+03,      /* K = 19 */
(PID.TID 0000.0001)                -3.700000000000000E+03,      /* K = 20 */
(PID.TID 0000.0001)                -4.200000000000000E+03,      /* K = 21 */
(PID.TID 0000.0001)                -4.700000000000000E+03,      /* K = 22 */
(PID.TID 0000.0001)                -5.200000000000000E+03,      /* K = 23 */
(PID.TID 0000.0001)                -5.700000000000000E+03       /* K = 24 */
(PID.TID 0000.0001)     ;
(PID.TID 0000.0001) deepFacC = /* deep-model grid factor @ cell-Center (-) */
(PID.TID 0000.0001)    23 @  1.000000000000000E+00              /* K =  1: 23 */
(PID.TID 0000.0001)     ;
(PID.TID 0000.0001) deepFacF = /* deep-model grid factor @ W-Interface (-) */
(PID.TID 0000.0001)    24 @  1.000000000000000E+00              /* K =  1: 24 */
(PID.TID 0000.0001)     ;
(PID.TID 0000.0001) rVel2wUnit = /* convert units: rVel -> wSpeed (=1 if z-coord)*/
(PID.TID 0000.0001)    24 @  1.000000000000000E+00              /* K =  1: 24 */
(PID.TID 0000.0001)     ;
(PID.TID 0000.0001) wUnit2rVel = /* convert units: wSpeed -> rVel (=1 if z-coord)*/
(PID.TID 0000.0001)    24 @  1.000000000000000E+00              /* K =  1: 24 */
(PID.TID 0000.0001)     ;
(PID.TID 0000.0001) dBdrRef = /* Vertical gradient of reference boyancy [(m/s/r)^2)] */
(PID.TID 0000.0001)    23 @  0.000000000000000E+00              /* K =  1: 23 */
(PID.TID 0000.0001)     ;
(PID.TID 0000.0001) dxF =  /* dxF(:,1,:,1) ( units: m ) */
(PID.TID 0000.0001)    20 @  2.182696600587791E+05              /* I =  1: 20 */
(PID.TID 0000.0001)     ;
(PID.TID 0000.0001) dxF =  /* dxF(1,:,1,:) ( units: m ) */
(PID.TID 0000.0001)                 2.182696600587791E+05,      /* J =  1 */
(PID.TID 0000.0001)                 2.166560038253696E+05,      /* J =  2 */
(PID.TID 0000.0001)                 2.147783856245979E+05,      /* J =  3 */
(PID.TID 0000.0001)                 2.126390930450167E+05,      /* J =  4 */
(PID.TID 0000.0001)                 2.102407324851014E+05,      /* J =  5 */
(PID.TID 0000.0001)                 2.075862259777553E+05,      /* J =  6 */
(PID.TID 0000.0001)                 2.046788076302621E+05,      /* J =  7 */
(PID.TID 0000.0001)                 2.015220196840248E+05,      /* J =  8 */
(PID.TID 0000.0001)                 1.981197081988899E+05,      /* J =  9 */
(PID.TID 0000.0001)                 1.944760183673163E+05,      /* J = 10 */
(PID.TID 0000.0001)                 1.905953894640962E+05,      /* J = 11 */
(PID.TID 0000.0001)                 1.864825494377832E+05,      /* J = 12 */
(PID.TID 0000.0001)                 1.821425091504150E+05,      /* J = 13 */
(PID.TID 0000.0001)                 1.775805562725496E+05,      /* J = 14 */
(PID.TID 0000.0001)                 1.728022488410539E+05,      /* J = 15 */
(PID.TID 0000.0001)                 1.678134084874913E+05       /* J = 16 */
(PID.TID 0000.0001)     ;
(PID.TID 0000.0001) dyF =  /* dyF(:,1,:,1) ( units: m ) */
(PID.TID 0000.0001)    20 @  2.223549467040776E+05              /* I =  1: 20 */
(PID.TID 0000.0001)     ;
(PID.TID 0000.0001) dyF =  /* dyF(1,:,1,:) ( units: m ) */
(PID.TID 0000.0001)    16 @  2.223549467040776E+05              /* J =  1: 16 */
(PID.TID 0000.0001)     ;
(PID.TID 0000.0001) dxG =  /* dxG(:,1,:,1) ( units: m ) */
(PID.TID 0000.0001)    20 @  2.189768754347919E+05              /* I =  1: 20 */
(PID.TID 0000.0001)     ;
(PID.TID 0000.0001) dxG =  /* dxG(1,:,1,:) ( units: m ) */
(PID.TID 0000.0001)                 2.189768754347919E+05,      /* J =  1 */
(PID.TID 0000.0001)                 2.174959576298867E+05,      /* J =  2 */
(PID.TID 0000.0001)                 2.157500545032935E+05,      /* J =  3 */
(PID.TID 0000.0001)                 2.137412931690361E+05,      /* J =  4 */
(PID.TID 0000.0001)                 2.114721209933746E+05,      /* J =  5 */
(PID.TID 0000.0001)                 2.089453026130656E+05,      /* J =  6 */
(PID.TID 0000.0001)                 2.061639165670793E+05,      /* J =  7 */
(PID.TID 0000.0001)                 2.031313515458727E+05,      /* J =  8 */
(PID.TID 0000.0001)                 1.998513022627935E+05,      /* J =  9 */
(PID.TID 0000.0001)                 1.963277649526403E+05,      /* J = 10 */
(PID.TID 0000.0001)                 1.925650325028661E+05,      /* J = 11 */
(PID.TID 0000.0001)                 1.885676892233566E+05,      /* J = 12 */
(PID.TID 0000.0001)                 1.843406052611541E+05,      /* J = 13 */
(PID.TID 0000.0001)                 1.798889306669345E+05,      /* J = 14 */
(PID.TID 0000.0001)                 1.752180891204627E+05,      /* J = 15 */
(PID.TID 0000.0001)                 1.703337713226751E+05       /* J = 16 */
(PID.TID 0000.0001)     ;
(PID.TID 0000.0001) dyG =  /* dyG(:,1,:,1) ( units: m ) */
(PID.TID 0000.0001)    20 @  2.223549467040776E+05              /* I =  1: 20 */
(PID.TID 0000.0001)     ;
(PID.TID 0000.0001) dyG =  /* dyG(1,:,1,:) ( units: m ) */
(PID.TID 0000.0001)    16 @  2.223549467040776E+05              /* J =  1: 16 */
(PID.TID 0000.0001)     ;
(PID.TID 0000.0001) dxC =  /* dxC(:,1,:,1) ( units: m ) */
(PID.TID 0000.0001)    20 @  2.182696600587791E+05              /* I =  1: 20 */
(PID.TID 0000.0001)     ;
(PID.TID 0000.0001) dxC =  /* dxC(1,:,1,:) ( units: m ) */
(PID.TID 0000.0001)                 2.182696600587791E+05,      /* J =  1 */
(PID.TID 0000.0001)                 2.166560038253696E+05,      /* J =  2 */
(PID.TID 0000.0001)                 2.147783856245979E+05,      /* J =  3 */
(PID.TID 0000.0001)                 2.126390930450167E+05,      /* J =  4 */
(PID.TID 0000.0001)                 2.102407324851014E+05,      /* J =  5 */
(PID.TID 0000.0001)                 2.075862259777553E+05,      /* J =  6 */
(PID.TID 0000.0001)                 2.046788076302621E+05,      /* J =  7 */
(PID.TID 0000.0001)                 2.015220196840248E+05,      /* J =  8 */
(PID.TID 0000.0001)                 1.981197081988899E+05,      /* J =  9 */
(PID.TID 0000.0001)                 1.944760183673163E+05,      /* J = 10 */
(PID.TID 0000.0001)                 1.905953894640962E+05,      /* J = 11 */
(PID.TID 0000.0001)                 1.864825494377832E+05,      /* J = 12 */
(PID.TID 0000.0001)                 1.821425091504150E+05,      /* J = 13 */
(PID.TID 0000.0001)                 1.775805562725496E+05,      /* J = 14 */
(PID.TID 0000.0001)                 1.728022488410539E+05,      /* J = 15 */
(PID.TID 0000.0001)                 1.678134084874913E+05       /* J = 16 */
(PID.TID 0000.0001)     ;
(PID.TID 0000.0001) dyC =  /* dyC(:,1,:,1) ( units: m ) */
(PID.TID 0000.0001)    20 @  2.223549467040776E+05              /* I =  1: 20 */
(PID.TID 0000.0001)     ;
(PID.TID 0000.0001) dyC =  /* dyC(1,:,1,:) ( units: m ) */
(PID.TID 0000.0001)    16 @  2.223549467040776E+05              /* J =  1: 16 */
(PID.TID 0000.0001)     ;
(PID.TID 0000.0001) dxV =  /* dxV(:,1,:,1) ( units: m ) */
(PID.TID 0000.0001)    20 @  2.189768754347919E+05              /* I =  1: 20 */
(PID.TID 0000.0001)     ;
(PID.TID 0000.0001) dxV =  /* dxV(1,:,1,:) ( units: m ) */
(PID.TID 0000.0001)                 2.189768754347919E+05,      /* J =  1 */
(PID.TID 0000.0001)                 2.174959576298867E+05,      /* J =  2 */
(PID.TID 0000.0001)                 2.157500545032935E+05,      /* J =  3 */
(PID.TID 0000.0001)                 2.137412931690361E+05,      /* J =  4 */
(PID.TID 0000.0001)                 2.114721209933746E+05,      /* J =  5 */
(PID.TID 0000.0001)                 2.089453026130656E+05,      /* J =  6 */
(PID.TID 0000.0001)                 2.061639165670793E+05,      /* J =  7 */
(PID.TID 0000.0001)                 2.031313515458727E+05,      /* J =  8 */
(PID.TID 0000.0001)                 1.998513022627935E+05,      /* J =  9 */
(PID.TID 0000.0001)                 1.963277649526403E+05,      /* J = 10 */
(PID.TID 0000.0001)                 1.925650325028661E+05,      /* J = 11 */
(PID.TID 0000.0001)                 1.885676892233566E+05,      /* J = 12 */
(PID.TID 0000.0001)                 1.843406052611541E+05,      /* J = 13 */
(PID.TID 0000.0001)                 1.798889306669345E+05,      /* J = 14 */
(PID.TID 0000.0001)                 1.752180891204627E+05,      /* J = 15 */
(PID.TID 0000.0001)                 1.703337713226751E+05       /* J = 16 */
(PID.TID 0000.0001)     ;
(PID.TID 0000.0001) dyU =  /* dyU(:,1,:,1) ( units: m ) */
(PID.TID 0000.0001)    20 @  2.223549467040776E+05              /* I =  1: 20 */
(PID.TID 0000.0001)     ;
(PID.TID 0000.0001) dyU =  /* dyU(1,:,1,:) ( units: m ) */
(PID.TID 0000.0001)    16 @  2.223549467040776E+05              /* J =  1: 16 */
(PID.TID 0000.0001)     ;
(PID.TID 0000.0001) rA  =  /* rA (:,1,:,1) ( units: m^2 ) */
(PID.TID 0000.0001)    20 @  4.853087465028468E+10              /* I =  1: 20 */
(PID.TID 0000.0001)     ;
(PID.TID 0000.0001) rA  =  /* rA (1,:,1,:) ( units: m^2 ) */
(PID.TID 0000.0001)                 4.853087465028468E+10,      /* J =  1 */
(PID.TID 0000.0001)                 4.817208842057614E+10,      /* J =  2 */
(PID.TID 0000.0001)                 4.775461192146850E+10,      /* J =  3 */
(PID.TID 0000.0001)                 4.727895378376868E+10,      /* J =  4 */
(PID.TID 0000.0001)                 4.674569352364785E+10,      /* J =  5 */
(PID.TID 0000.0001)                 4.615548083659052E+10,      /* J =  6 */
(PID.TID 0000.0001)                 4.550903480584064E+10,      /* J =  7 */
(PID.TID 0000.0001)                 4.480714302630917E+10,      /* J =  8 */
(PID.TID 0000.0001)                 4.405066064501157E+10,      /* J =  9 */
(PID.TID 0000.0001)                 4.324050931920184E+10,      /* J = 10 */
(PID.TID 0000.0001)                 4.237767609347683E+10,      /* J = 11 */
(PID.TID 0000.0001)                 4.146321219721255E+10,      /* J = 12 */
(PID.TID 0000.0001)                 4.049823176380374E+10,      /* J = 13 */
(PID.TID 0000.0001)                 3.948391047326549E+10,      /* J = 14 */
(PID.TID 0000.0001)                 3.842148411984549E+10,      /* J = 15 */
(PID.TID 0000.0001)                 3.731224710640178E+10       /* J = 16 */
(PID.TID 0000.0001)     ;
(PID.TID 0000.0001) rAw =  /* rAw(:,1,:,1) ( units: m^2 ) */
(PID.TID 0000.0001)    20 @  4.853087465028468E+10              /* I =  1: 20 */
(PID.TID 0000.0001)     ;
(PID.TID 0000.0001) rAw =  /* rAw(1,:,1,:) ( units: m^2 ) */
(PID.TID 0000.0001)                 4.853087465028468E+10,      /* J =  1 */
(PID.TID 0000.0001)                 4.817208842057614E+10,      /* J =  2 */
(PID.TID 0000.0001)                 4.775461192146850E+10,      /* J =  3 */
(PID.TID 0000.0001)                 4.727895378376868E+10,      /* J =  4 */
(PID.TID 0000.0001)                 4.674569352364785E+10,      /* J =  5 */
(PID.TID 0000.0001)                 4.615548083659052E+10,      /* J =  6 */
(PID.TID 0000.0001)                 4.550903480584064E+10,      /* J =  7 */
(PID.TID 0000.0001)                 4.480714302630917E+10,      /* J =  8 */
(PID.TID 0000.0001)                 4.405066064501157E+10,      /* J =  9 */
(PID.TID 0000.0001)                 4.324050931920184E+10,      /* J = 10 */
(PID.TID 0000.0001)                 4.237767609347683E+10,      /* J = 11 */
(PID.TID 0000.0001)                 4.146321219721255E+10,      /* J = 12 */
(PID.TID 0000.0001)                 4.049823176380374E+10,      /* J = 13 */
(PID.TID 0000.0001)                 3.948391047326549E+10,      /* J = 14 */
(PID.TID 0000.0001)                 3.842148411984549E+10,      /* J = 15 */
(PID.TID 0000.0001)                 3.731224710640178E+10       /* J = 16 */
(PID.TID 0000.0001)     ;
(PID.TID 0000.0001) rAs =  /* rAs(:,1,:,1) ( units: m^2 ) */
(PID.TID 0000.0001)    20 @  4.868811950398895E+10              /* I =  1: 20 */
(PID.TID 0000.0001)     ;
(PID.TID 0000.0001) rAs =  /* rAs(1,:,1,:) ( units: m^2 ) */
(PID.TID 0000.0001)                 4.868811950398895E+10,      /* J =  1 */
(PID.TID 0000.0001)                 4.835884682203275E+10,      /* J =  2 */
(PID.TID 0000.0001)                 4.797065633433311E+10,      /* J =  3 */
(PID.TID 0000.0001)                 4.752402099120342E+10,      /* J =  4 */
(PID.TID 0000.0001)                 4.701948494900997E+10,      /* J =  5 */
(PID.TID 0000.0001)                 4.645766290720264E+10,      /* J =  6 */
(PID.TID 0000.0001)                 4.583923935939737E+10,      /* J =  7 */
(PID.TID 0000.0001)                 4.516496775942608E+10,      /* J =  8 */
(PID.TID 0000.0001)                 4.443566960336987E+10,      /* J =  9 */
(PID.TID 0000.0001)                 4.365223342869237E+10,      /* J = 10 */
(PID.TID 0000.0001)                 4.281561373169270E+10,      /* J = 11 */
(PID.TID 0000.0001)                 4.192682980460108E+10,      /* J = 12 */
(PID.TID 0000.0001)                 4.098696449372525E+10,      /* J = 13 */
(PID.TID 0000.0001)                 3.999716288017197E+10,      /* J = 14 */
(PID.TID 0000.0001)                 3.895863088473959E+10,      /* J = 15 */
(PID.TID 0000.0001)                 3.787263379869147E+10       /* J = 16 */
(PID.TID 0000.0001)     ;
(PID.TID 0000.0001) globalArea = /* Integrated horizontal Area (m^2) */
(PID.TID 0000.0001)                 8.853746056302295E+12
(PID.TID 0000.0001)     ;
(PID.TID 0000.0001) // =======================================================
(PID.TID 0000.0001) // End of Model config. summary
(PID.TID 0000.0001) // =======================================================
(PID.TID 0000.0001) 
(PID.TID 0000.0001)  MDS_READ_FIELD: opening global file: kf_climtheta
(PID.TID 0000.0001) // =======================================================
(PID.TID 0000.0001) // Field Initial Temperature at iteration          1
(PID.TID 0000.0001) // CMIN =          1.840084838867188E+01
(PID.TID 0000.0001) // CMAX =          2.607793426513672E+01
(PID.TID 0000.0001) // CINT =          2.843365139431424E-01
(PID.TID 0000.0001) // SYMBOLS (CMIN->CMAX): -abcdefghijklmnopqrstuvwxyz+
(PID.TID 0000.0001) //                  0.0: .
(PID.TID 0000.0001) // RANGE I (Lo:Hi:Step):(   1:  20:   1)
(PID.TID 0000.0001) // RANGE J (Lo:Hi:Step):(  16:   1:  -1)
(PID.TID 0000.0001) // RANGE K (Lo:Hi:Step):(   1:   1:   1)
(PID.TID 0000.0001) // =======================================================
(PID.TID 0000.0001) K =   1
(PID.TID 0000.0001)                I=10      I=20
(PID.TID 0000.0001) |--J--|123456789|123456789|
(PID.TID 0000.0001)     16 ....................
(PID.TID 0000.0001)     15 .jihhgfeedddcba---a.
(PID.TID 0000.0001)     14 .kjiihggffeedcbbabb.
(PID.TID 0000.0001)     13 .lkkjiiiihgfedccbc..
(PID.TID 0000.0001)     12 .mllkkjjjihgfedcc...
(PID.TID 0000.0001)     11 .onnmmllkjihgfeec...
(PID.TID 0000.0001)     10 .rrqqponmmlkihf.....
(PID.TID 0000.0001)      9 .utssrqponmljh......
(PID.TID 0000.0001)      8 .vuttsrqponlig......
(PID.TID 0000.0001)      7 .vuutsrrponkif......
(PID.TID 0000.0001)      6 .wvvuutsrqomjh......
(PID.TID 0000.0001)      5 .yxwwwvutsrpnl......
(PID.TID 0000.0001)      4 .zyyyxxwwvutrq......
(PID.TID 0000.0001)      3 .zzzzyyxxxxwvu......
(PID.TID 0000.0001)      2 .+++++zzz+++zy......
(PID.TID 0000.0001)      1 ....................
(PID.TID 0000.0001) // =======================================================
(PID.TID 0000.0001) // END OF FIELD                                          =
(PID.TID 0000.0001) // =======================================================
(PID.TID 0000.0001) 
(PID.TID 0000.0001)  MDS_READ_FIELD: opening global file: kf_climsalt
(PID.TID 0000.0001) // =======================================================
(PID.TID 0000.0001) // Field Initial Salinity at iteration          1
(PID.TID 0000.0001) // CMIN =          3.501070022583008E+01
(PID.TID 0000.0001) // CMAX =          3.739887619018555E+01
(PID.TID 0000.0001) // CINT =          8.845096164279515E-02
(PID.TID 0000.0001) // SYMBOLS (CMIN->CMAX): -abcdefghijklmnopqrstuvwxyz+
(PID.TID 0000.0001) //                  0.0: .
(PID.TID 0000.0001) // RANGE I (Lo:Hi:Step):(   1:  20:   1)
(PID.TID 0000.0001) // RANGE J (Lo:Hi:Step):(  16:   1:  -1)
(PID.TID 0000.0001) // RANGE K (Lo:Hi:Step):(   1:   1:   1)
(PID.TID 0000.0001) // =======================================================
(PID.TID 0000.0001) K =   1
(PID.TID 0000.0001)                I=10      I=20
(PID.TID 0000.0001) |--J--|123456789|123456789|
(PID.TID 0000.0001)     16 ....................
(PID.TID 0000.0001)     15 .oonnnnmmnnnnnnmllk.
(PID.TID 0000.0001)     14 .ppppoooopppppppooo.
(PID.TID 0000.0001)     13 .qqqqqrrrrrrqqqqqq..
(PID.TID 0000.0001)     12 .tttttttttttssrqp...
(PID.TID 0000.0001)     11 .wwwwwwvvvvuusrpn...
(PID.TID 0000.0001)     10 .zzyyyyyxxwvusr.....
(PID.TID 0000.0001)      9 .++zzzzyxxwutr......
(PID.TID 0000.0001)      8 .+zzyyyxwvusrp......
(PID.TID 0000.0001)      7 .xxxxwwutsrpnm......
(PID.TID 0000.0001)      6 .uuuuutsqponlj......
(PID.TID 0000.0001)      5 .rrrrqqponmkji......
(PID.TID 0000.0001)      4 .poooonmmlkihg......
(PID.TID 0000.0001)      3 .mmlllllkjihec......
(PID.TID 0000.0001)      2 .jjjkkkjjihfd-......
(PID.TID 0000.0001)      1 ....................
(PID.TID 0000.0001) // =======================================================
(PID.TID 0000.0001) // END OF FIELD                                          =
(PID.TID 0000.0001) // =======================================================
(PID.TID 0000.0001) 
(PID.TID 0000.0001) Start initial hydrostatic pressure computation
(PID.TID 0000.0001) Pressure is predetermined for buoyancyRelation OCEANIC
(PID.TID 0000.0001) 
(PID.TID 0000.0001)  MDS_READ_FIELD: opening global file: kf_tx
(PID.TID 0000.0001)  MDS_READ_FIELD: opening global file: kf_ty
(PID.TID 0000.0001)  MDS_READ_FIELD: opening global file: kf_qnet
(PID.TID 0000.0001)  MDS_READ_FIELD: opening global file: kf_empmr
(PID.TID 0000.0001)  MDS_READ_FIELD: opening global file: kf_sst
(PID.TID 0000.0001)  MDS_READ_FIELD: opening global file: kf_sss
(PID.TID 0000.0001)  MDS_READ_FIELD: opening global file: kf_sw
(PID.TID 0000.0001)  write diagnostics summary to file ioUnit:      6
Iter.Nb:         0 ; Time(s):  2.1600000000000E+04
------------------------------------------------------------------------
2D/3D diagnostics: Number of lists:     7
------------------------------------------------------------------------
listId=   1 ; file name: KPPviscA
 nFlds, nActive,       freq     &   phase        , nLev                 
   1  |   1  |    -86400.000000     43200.000000 |  23
 levels:   1   2   3   4   5   6   7   8   9  10  11  12  13  14  15  16  17  18  19  20  21  22  23
 diag#| name   | ipt  | iMate| kLev| count | mate.C|                    
  169 |KPPviscA|    1 |    0 |  23 |     0 |
------------------------------------------------------------------------
listId=   2 ; file name: KPPdiffS
 nFlds, nActive,       freq     &   phase        , nLev                 
   1  |   1  |    -86400.000000     43200.000000 |  23
 levels:   1   2   3   4   5   6   7   8   9  10  11  12  13  14  15  16  17  18  19  20  21  22  23
 diag#| name   | ipt  | iMate| kLev| count | mate.C|                    
  170 |KPPdiffS|   24 |    0 |  23 |     0 |
------------------------------------------------------------------------
listId=   3 ; file name: KPPdiffT
 nFlds, nActive,       freq     &   phase        , nLev                 
   1  |   1  |    -86400.000000     43200.000000 |  23
 levels:   1   2   3   4   5   6   7   8   9  10  11  12  13  14  15  16  17  18  19  20  21  22  23
 diag#| name   | ipt  | iMate| kLev| count | mate.C|                    
  171 |KPPdiffT|   47 |    0 |  23 |     0 |
------------------------------------------------------------------------
listId=   4 ; file name: KPP_ghat
 nFlds, nActive,       freq     &   phase        , nLev                 
   1  |   1  |    -86400.000000     43200.000000 |  23
 levels:   1   2   3   4   5   6   7   8   9  10  11  12  13  14  15  16  17  18  19  20  21  22  23
 diag#| name   | ipt  | iMate| kLev| count | mate.C|                    
  172 |KPPghat |   70 |    0 |  23 |     0 |
------------------------------------------------------------------------
listId=   5 ; file name: KPP_hbl
 nFlds, nActive,       freq     &   phase        , nLev                 
   1  |   1  |    -86400.000000     43200.000000 |   1
 levels:   1
 diag#| name   | ipt  | iMate| kLev| count | mate.C|                    
  173 |KPPhbl  |   93 |    0 |   1 |     0 |
------------------------------------------------------------------------
listId=   6 ; file name: KPPfrac
 nFlds, nActive,       freq     &   phase        , nLev                 
   1  |   1  |    -86400.000000     43200.000000 |   1
 levels:   1
 diag#| name   | ipt  | iMate| kLev| count | mate.C|                    
  175 |KPPfrac |   94 |    0 |   1 |     0 |
------------------------------------------------------------------------
listId=   7 ; file name: KPPmld
 nFlds, nActive,       freq     &   phase        , nLev                 
   1  |   1  |    -86400.000000     43200.000000 |   1
 levels:   1
 diag#| name   | ipt  | iMate| kLev| count | mate.C|                    
  174 |KPPmld  |   95 |    0 |   1 |     0 |
------------------------------------------------------------------------
Global & Regional Statistics diagnostics: Number of lists:     0
------------------------------------------------------------------------
(PID.TID 0000.0001) // =======================================================
(PID.TID 0000.0001) // Model current state
(PID.TID 0000.0001) // =======================================================
(PID.TID 0000.0001) 
(PID.TID 0000.0001) // =======================================================
(PID.TID 0000.0001) // Begin MONITOR dynamic field statistics
(PID.TID 0000.0001) // =======================================================
(PID.TID 0000.0001) %MON time_tsnumber                =                     0
(PID.TID 0000.0001) %MON time_secondsf                =   2.1600000000000E+04
(PID.TID 0000.0001) %MON dynstat_eta_max              =   0.0000000000000E+00
(PID.TID 0000.0001) %MON dynstat_eta_min              =   0.0000000000000E+00
(PID.TID 0000.0001) %MON dynstat_eta_mean             =   0.0000000000000E+00
(PID.TID 0000.0001) %MON dynstat_eta_sd               =   0.0000000000000E+00
(PID.TID 0000.0001) %MON dynstat_eta_del2             =   0.0000000000000E+00
(PID.TID 0000.0001) %MON dynstat_uvel_max             =   0.0000000000000E+00
(PID.TID 0000.0001) %MON dynstat_uvel_min             =   0.0000000000000E+00
(PID.TID 0000.0001) %MON dynstat_uvel_mean            =   0.0000000000000E+00
(PID.TID 0000.0001) %MON dynstat_uvel_sd              =   0.0000000000000E+00
(PID.TID 0000.0001) %MON dynstat_uvel_del2            =   0.0000000000000E+00
(PID.TID 0000.0001) %MON dynstat_vvel_max             =   0.0000000000000E+00
(PID.TID 0000.0001) %MON dynstat_vvel_min             =   0.0000000000000E+00
(PID.TID 0000.0001) %MON dynstat_vvel_mean            =   0.0000000000000E+00
(PID.TID 0000.0001) %MON dynstat_vvel_sd              =   0.0000000000000E+00
(PID.TID 0000.0001) %MON dynstat_vvel_del2            =   0.0000000000000E+00
(PID.TID 0000.0001) %MON dynstat_wvel_max             =   0.0000000000000E+00
(PID.TID 0000.0001) %MON dynstat_wvel_min             =   0.0000000000000E+00
(PID.TID 0000.0001) %MON dynstat_wvel_mean            =   0.0000000000000E+00
(PID.TID 0000.0001) %MON dynstat_wvel_sd              =   0.0000000000000E+00
(PID.TID 0000.0001) %MON dynstat_wvel_del2            =   0.0000000000000E+00
(PID.TID 0000.0001) %MON dynstat_theta_max            =   2.6077934265137E+01
(PID.TID 0000.0001) %MON dynstat_theta_min            =   1.8064365386963E+00
(PID.TID 0000.0001) %MON dynstat_theta_mean           =   5.4784105600004E+00
(PID.TID 0000.0001) %MON dynstat_theta_sd             =   4.5923951934310E+00
(PID.TID 0000.0001) %MON dynstat_theta_del2           =   5.0898848572070E-02
(PID.TID 0000.0001) %MON dynstat_salt_max             =   3.7401638031006E+01
(PID.TID 0000.0001) %MON dynstat_salt_min             =   3.4726768493652E+01
(PID.TID 0000.0001) %MON dynstat_salt_mean            =   3.5157555715946E+01
(PID.TID 0000.0001) %MON dynstat_salt_sd              =   4.1377404390946E-01
(PID.TID 0000.0001) %MON dynstat_salt_del2            =   1.2632116608019E-02
(PID.TID 0000.0001) %MON extforcing_qnet_max          =   2.5772109985352E+01
(PID.TID 0000.0001) %MON extforcing_qnet_min          =  -1.7793640136719E+02
(PID.TID 0000.0001) %MON extforcing_qnet_mean         =  -8.6225629002468E+01
(PID.TID 0000.0001) %MON extforcing_qnet_sd           =   5.2166051016192E+01
(PID.TID 0000.0001) %MON extforcing_qnet_del2         =   8.3190743582589E+00
(PID.TID 0000.0001) %MON extforcing_qsw_max           =  -1.5340605163574E+02
(PID.TID 0000.0001) %MON extforcing_qsw_min           =  -3.1156558227539E+02
(PID.TID 0000.0001) %MON extforcing_qsw_mean          =  -2.4622679656805E+02
(PID.TID 0000.0001) %MON extforcing_qsw_sd            =   4.1213103000011E+01
(PID.TID 0000.0001) %MON extforcing_qsw_del2          =   6.0288217854617E+00
(PID.TID 0000.0001) %MON extforcing_empmr_max         =   6.3082310930440E-08
(PID.TID 0000.0001) %MON extforcing_empmr_min         =   1.2105775049065E-08
(PID.TID 0000.0001) %MON extforcing_empmr_mean        =   3.6749800493225E-08
(PID.TID 0000.0001) %MON extforcing_empmr_sd          =   1.2120062052404E-08
(PID.TID 0000.0001) %MON extforcing_empmr_del2        =   2.2642562832897E-09
(PID.TID 0000.0001) %MON extforcing_fu_max            =   1.8047061562538E-01
(PID.TID 0000.0001) %MON extforcing_fu_min            =  -1.1958009004593E-01
(PID.TID 0000.0001) %MON extforcing_fu_mean           =  -2.1372924687700E-02
(PID.TID 0000.0001) %MON extforcing_fu_sd             =   3.8289031932221E-02
(PID.TID 0000.0001) %MON extforcing_fu_del2           =   5.0167226635754E-03
(PID.TID 0000.0001) %MON extforcing_fv_max            =   1.8579313531518E-02
(PID.TID 0000.0001) %MON extforcing_fv_min            =  -9.0046256780624E-02
(PID.TID 0000.0001) %MON extforcing_fv_mean           =  -2.4824365105089E-02
(PID.TID 0000.0001) %MON extforcing_fv_sd             =   2.4773752168438E-02
(PID.TID 0000.0001) %MON extforcing_fv_del2           =   3.2560514006565E-03
(PID.TID 0000.0001) %MON advcfl_uvel_max              =   0.0000000000000E+00
(PID.TID 0000.0001) %MON advcfl_vvel_max              =   0.0000000000000E+00
(PID.TID 0000.0001) %MON advcfl_wvel_max              =   0.0000000000000E+00
(PID.TID 0000.0001) %MON advcfl_W_hf_max              =   0.0000000000000E+00
(PID.TID 0000.0001) %MON pe_b_mean                    =   0.0000000000000E+00
(PID.TID 0000.0001) %MON ke_max                       =   0.0000000000000E+00
(PID.TID 0000.0001) %MON ke_mean                      =   0.0000000000000E+00
(PID.TID 0000.0001) %MON ke_vol                       =   3.6027486600263E+16
(PID.TID 0000.0001) %MON vort_r_min                   =   0.0000000000000E+00
(PID.TID 0000.0001) %MON vort_r_max                   =   0.0000000000000E+00
(PID.TID 0000.0001) %MON vort_a_mean                  =   6.1944475191297E-05
(PID.TID 0000.0001) %MON vort_a_sd                    =   1.9197697516420E-05
(PID.TID 0000.0001) %MON vort_p_mean                  =   7.7881882182936E-05
(PID.TID 0000.0001) %MON vort_p_sd                    =   5.6365002634549E-05
(PID.TID 0000.0001) %MON surfExpan_theta_mean         =   0.0000000000000E+00
(PID.TID 0000.0001) %MON surfExpan_salt_mean          =   0.0000000000000E+00
(PID.TID 0000.0001) // =======================================================
(PID.TID 0000.0001) // End MONITOR dynamic field statistics
(PID.TID 0000.0001) // =======================================================
S/R EXTERNAL_FIELDS_LOAD: Reading new data:    1    2         0  2.160000000000E+04
(PID.TID 0000.0001)  MDS_READ_FIELD: opening global file: kf_tx
(PID.TID 0000.0001)  MDS_READ_FIELD: opening global file: kf_tx
(PID.TID 0000.0001)  MDS_READ_FIELD: opening global file: kf_ty
(PID.TID 0000.0001)  MDS_READ_FIELD: opening global file: kf_ty
(PID.TID 0000.0001)  MDS_READ_FIELD: opening global file: kf_qnet
(PID.TID 0000.0001)  MDS_READ_FIELD: opening global file: kf_qnet
(PID.TID 0000.0001)  MDS_READ_FIELD: opening global file: kf_empmr
(PID.TID 0000.0001)  MDS_READ_FIELD: opening global file: kf_empmr
(PID.TID 0000.0001)  MDS_READ_FIELD: opening global file: kf_sst
(PID.TID 0000.0001)  MDS_READ_FIELD: opening global file: kf_sst
(PID.TID 0000.0001)  MDS_READ_FIELD: opening global file: kf_sss
(PID.TID 0000.0001)  MDS_READ_FIELD: opening global file: kf_sss
(PID.TID 0000.0001)  MDS_READ_FIELD: opening global file: kf_sw
(PID.TID 0000.0001)  MDS_READ_FIELD: opening global file: kf_sw
time,SST,SSS,fu,fv,Q,E-P,i0,i1,a,b =   2.1600E+04  0.0000E+00  0.0000E+00  0.0000E+00  0.0000E+00  0.0000E+00  0.0000E+00     1     2  0.0000E+00  1.0000E+00
time,fu0,fu1,fu =   2.1600E+04  0.0000E+00  0.0000E+00  0.0000E+00  0.000000000000000E+00  1.000000000000000E+00
 cg2d: Sum(rhs),rhsMax =  -1.77635683940025E-15  4.50737656360044E-01
(PID.TID 0000.0001)                    cg2d_init_res =    3.97960747080088E+00
(PID.TID 0000.0001)                       cg2d_iters =    50
(PID.TID 0000.0001)                         cg2d_res =    7.13208988322272E-14
(PID.TID 0000.0001) // =======================================================
(PID.TID 0000.0001) // Begin MONITOR dynamic field statistics
(PID.TID 0000.0001) // =======================================================
(PID.TID 0000.0001) %MON time_tsnumber                =                     1
(PID.TID 0000.0001) %MON time_secondsf                =   2.5200000000000E+04
(PID.TID 0000.0001) %MON dynstat_eta_max              =   7.9831848646388E-02
(PID.TID 0000.0001) %MON dynstat_eta_min              =  -1.0327152670087E-01
(PID.TID 0000.0001) %MON dynstat_eta_mean             =   1.3787419666629E-18
(PID.TID 0000.0001) %MON dynstat_eta_sd               =   3.4047408239500E-02
(PID.TID 0000.0001) %MON dynstat_eta_del2             =   4.0984734777375E-03
(PID.TID 0000.0001) %MON dynstat_uvel_max             =   5.3767310068707E-02
(PID.TID 0000.0001) %MON dynstat_uvel_min             =  -4.2462040483583E-02
(PID.TID 0000.0001) %MON dynstat_uvel_mean            =  -1.7162005942187E-03
(PID.TID 0000.0001) %MON dynstat_uvel_sd              =   1.4714462727429E-03
(PID.TID 0000.0001) %MON dynstat_uvel_del2            =   4.3032581284341E-04
(PID.TID 0000.0001) %MON dynstat_vvel_max             =   1.0121841087759E-02
(PID.TID 0000.0001) %MON dynstat_vvel_min             =  -2.9296628091432E-02
(PID.TID 0000.0001) %MON dynstat_vvel_mean            =  -1.2965381764512E-04
(PID.TID 0000.0001) %MON dynstat_vvel_sd              =   1.6348907704579E-03
(PID.TID 0000.0001) %MON dynstat_vvel_del2            =   5.9219754534891E-04
(PID.TID 0000.0001) %MON dynstat_wvel_max             =   4.7438450209645E-05
(PID.TID 0000.0001) %MON dynstat_wvel_min             =  -9.2458472497102E-05
(PID.TID 0000.0001) %MON dynstat_wvel_mean            =  -2.2509574384669E-22
(PID.TID 0000.0001) %MON dynstat_wvel_sd              =   1.2602961720835E-05
(PID.TID 0000.0001) %MON dynstat_wvel_del2            =   3.1493539806505E-06
(PID.TID 0000.0001) %MON dynstat_theta_max            =   2.6076654048020E+01
(PID.TID 0000.0001) %MON dynstat_theta_min            =   1.8064390104771E+00
(PID.TID 0000.0001) %MON dynstat_theta_mean           =   5.4784296546519E+00
(PID.TID 0000.0001) %MON dynstat_theta_sd             =   4.5924594548543E+00
(PID.TID 0000.0001) %MON dynstat_theta_del2           =   5.0903686392629E-02
(PID.TID 0000.0001) %MON dynstat_salt_max             =   3.7400751159636E+01
(PID.TID 0000.0001) %MON dynstat_salt_min             =   3.4726771995658E+01
(PID.TID 0000.0001) %MON dynstat_salt_mean            =   3.5157556923008E+01
(PID.TID 0000.0001) %MON dynstat_salt_sd              =   4.1377676512749E-01
(PID.TID 0000.0001) %MON dynstat_salt_del2            =   1.2629962839006E-02
(PID.TID 0000.0001) %MON extforcing_qnet_max          =   2.5772109985352E+01
(PID.TID 0000.0001) %MON extforcing_qnet_min          =  -1.7793640136719E+02
(PID.TID 0000.0001) %MON extforcing_qnet_mean         =  -8.6225629002468E+01
(PID.TID 0000.0001) %MON extforcing_qnet_sd           =   5.2166051016192E+01
(PID.TID 0000.0001) %MON extforcing_qnet_del2         =   8.3190743582589E+00
(PID.TID 0000.0001) %MON extforcing_qsw_max           =  -1.5340605163574E+02
(PID.TID 0000.0001) %MON extforcing_qsw_min           =  -3.1156558227539E+02
(PID.TID 0000.0001) %MON extforcing_qsw_mean          =  -2.4622679656805E+02
(PID.TID 0000.0001) %MON extforcing_qsw_sd            =   4.1213103000011E+01
(PID.TID 0000.0001) %MON extforcing_qsw_del2          =   6.0288217854617E+00
(PID.TID 0000.0001) %MON extforcing_empmr_max         =   6.3082310930440E-08
(PID.TID 0000.0001) %MON extforcing_empmr_min         =   1.2105775049065E-08
(PID.TID 0000.0001) %MON extforcing_empmr_mean        =   3.6749800493225E-08
(PID.TID 0000.0001) %MON extforcing_empmr_sd          =   1.2120062052404E-08
(PID.TID 0000.0001) %MON extforcing_empmr_del2        =   2.2642562832897E-09
(PID.TID 0000.0001) %MON extforcing_fu_max            =   1.8047061562538E-01
(PID.TID 0000.0001) %MON extforcing_fu_min            =  -1.1958009004593E-01
(PID.TID 0000.0001) %MON extforcing_fu_mean           =  -2.1372924687700E-02
(PID.TID 0000.0001) %MON extforcing_fu_sd             =   3.8289031932221E-02
(PID.TID 0000.0001) %MON extforcing_fu_del2           =   5.0167226635754E-03
(PID.TID 0000.0001) %MON extforcing_fv_max            =   1.8579313531518E-02
(PID.TID 0000.0001) %MON extforcing_fv_min            =  -9.0046256780624E-02
(PID.TID 0000.0001) %MON extforcing_fv_mean           =  -2.4824365105089E-02
(PID.TID 0000.0001) %MON extforcing_fv_sd             =   2.4773752168438E-02
(PID.TID 0000.0001) %MON extforcing_fv_del2           =   3.2560514006565E-03
(PID.TID 0000.0001) %MON advcfl_uvel_max              =   1.1201377154842E-03
(PID.TID 0000.0001) %MON advcfl_vvel_max              =   4.7432208139501E-04
(PID.TID 0000.0001) %MON advcfl_wvel_max              =   2.0654305340174E-02
(PID.TID 0000.0001) %MON advcfl_W_hf_max              =   2.0528100592626E-02
(PID.TID 0000.0001) %MON pe_b_mean                    =   1.3973339919140E-06
(PID.TID 0000.0001) %MON ke_max                       =   9.5708186102568E-04
(PID.TID 0000.0001) %MON ke_mean                      =   3.4825599602383E-06
(PID.TID 0000.0001) %MON ke_vol                       =   3.6027486600263E+16
(PID.TID 0000.0001) %MON vort_r_min                   =  -2.2171341658947E-07
(PID.TID 0000.0001) %MON vort_r_max                   =   2.4532521670906E-07
(PID.TID 0000.0001) %MON vort_a_mean                  =   6.1944475191297E-05
(PID.TID 0000.0001) %MON vort_a_sd                    =   1.9196261613388E-05
(PID.TID 0000.0001) %MON vort_p_mean                  =   7.7881882182936E-05
(PID.TID 0000.0001) %MON vort_p_sd                    =   5.6362018534487E-05
(PID.TID 0000.0001) %MON surfExpan_theta_mean         =   7.5497240834761E-06
(PID.TID 0000.0001) %MON surfExpan_salt_mean          =   2.1210377432739E-06
(PID.TID 0000.0001) // =======================================================
(PID.TID 0000.0001) // End MONITOR dynamic field statistics
(PID.TID 0000.0001) // =======================================================
time,SST,SSS,fu,fv,Q,E-P,i0,i1,a,b =   2.5200E+04  0.0000E+00  0.0000E+00  0.0000E+00  0.0000E+00  0.0000E+00  0.0000E+00     1     2  8.3333E-02  9.1667E-01
time,fu0,fu1,fu =   2.5200E+04  0.0000E+00  0.0000E+00  0.0000E+00  8.333333333333333E-02  9.166666666666666E-01
 cg2d: Sum(rhs),rhsMax =   0.00000000000000E+00  5.55580894610417E-01
(PID.TID 0000.0001)                    cg2d_init_res =    9.18792761089170E-01
(PID.TID 0000.0001)                       cg2d_iters =    47
(PID.TID 0000.0001)                         cg2d_res =    7.05573789867217E-14
(PID.TID 0000.0001) // =======================================================
(PID.TID 0000.0001) // Begin MONITOR dynamic field statistics
(PID.TID 0000.0001) // =======================================================
(PID.TID 0000.0001) %MON time_tsnumber                =                     2
(PID.TID 0000.0001) %MON time_secondsf                =   2.8800000000000E+04
(PID.TID 0000.0001) %MON dynstat_eta_max              =   1.4747680131806E-01
(PID.TID 0000.0001) %MON dynstat_eta_min              =  -1.8208426969289E-01
(PID.TID 0000.0001) %MON dynstat_eta_mean             =   2.2059871466606E-17
(PID.TID 0000.0001) %MON dynstat_eta_sd               =   6.7128136846706E-02
(PID.TID 0000.0001) %MON dynstat_eta_del2             =   4.6952457507979E-03
(PID.TID 0000.0001) %MON dynstat_uvel_max             =   1.0408433259213E-01
(PID.TID 0000.0001) %MON dynstat_uvel_min             =  -7.3099133249633E-02
(PID.TID 0000.0001) %MON dynstat_uvel_mean            =  -2.1353969477338E-03
(PID.TID 0000.0001) %MON dynstat_uvel_sd              =   2.6836129121735E-03
(PID.TID 0000.0001) %MON dynstat_uvel_del2            =   8.2509180719976E-04
(PID.TID 0000.0001) %MON dynstat_vvel_max             =   2.1344592462604E-02
(PID.TID 0000.0001) %MON dynstat_vvel_min             =  -5.3407810964105E-02
(PID.TID 0000.0001) %MON dynstat_vvel_mean            =  -2.0984182031950E-04
(PID.TID 0000.0001) %MON dynstat_vvel_sd              =   2.9876053793688E-03
(PID.TID 0000.0001) %MON dynstat_vvel_del2            =   1.1679607570542E-03
(PID.TID 0000.0001) %MON dynstat_wvel_max             =   7.5984121267481E-05
(PID.TID 0000.0001) %MON dynstat_wvel_min             =  -1.4301003079476E-04
(PID.TID 0000.0001) %MON dynstat_wvel_mean            =   2.7011489261602E-21
(PID.TID 0000.0001) %MON dynstat_wvel_sd              =   1.9442451173702E-05
(PID.TID 0000.0001) %MON dynstat_wvel_del2            =   4.5241564661226E-06
(PID.TID 0000.0001) %MON dynstat_theta_max            =   2.6075142164144E+01
(PID.TID 0000.0001) %MON dynstat_theta_min            =   1.8064390241864E+00
(PID.TID 0000.0001) %MON dynstat_theta_mean           =   5.4784377028355E+00
(PID.TID 0000.0001) %MON dynstat_theta_sd             =   4.5924854556100E+00
(PID.TID 0000.0001) %MON dynstat_theta_del2           =   5.0854263625378E-02
(PID.TID 0000.0001) %MON dynstat_salt_max             =   3.7400673032956E+01
(PID.TID 0000.0001) %MON dynstat_salt_min             =   3.4726779359477E+01
(PID.TID 0000.0001) %MON dynstat_salt_mean            =   3.5157555144761E+01
(PID.TID 0000.0001) %MON dynstat_salt_sd              =   4.1376901300912E-01
(PID.TID 0000.0001) %MON dynstat_salt_del2            =   1.2629248843888E-02
(PID.TID 0000.0001) %MON extforcing_qnet_max          =   2.6062016805013E+01
(PID.TID 0000.0001) %MON extforcing_qnet_min          =  -1.7659355545044E+02
(PID.TID 0000.0001) %MON extforcing_qnet_mean         =  -8.5257431754752E+01
(PID.TID 0000.0001) %MON extforcing_qnet_sd           =   5.2007111613118E+01
(PID.TID 0000.0001) %MON extforcing_qnet_del2         =   8.2510235180408E+00
(PID.TID 0000.0001) %MON extforcing_qsw_max           =  -1.5255920283000E+02
(PID.TID 0000.0001) %MON extforcing_qsw_min           =  -3.1216041564941E+02
(PID.TID 0000.0001) %MON extforcing_qsw_mean          =  -2.4650639625986E+02
(PID.TID 0000.0001) %MON extforcing_qsw_sd            =   4.1246809110616E+01
(PID.TID 0000.0001) %MON extforcing_qsw_del2          =   5.9979608438677E+00
(PID.TID 0000.0001) %MON extforcing_empmr_max         =   6.3493825900688E-08
(PID.TID 0000.0001) %MON extforcing_empmr_min         =   1.2255517415719E-08
(PID.TID 0000.0001) %MON extforcing_empmr_mean        =   3.7139237928819E-08
(PID.TID 0000.0001) %MON extforcing_empmr_sd          =   1.2046805076919E-08
(PID.TID 0000.0001) %MON extforcing_empmr_del2        =   2.2545498463948E-09
(PID.TID 0000.0001) %MON extforcing_fu_max            =   1.8893417219321E-01
(PID.TID 0000.0001) %MON extforcing_fu_min            =  -1.1874365620315E-01
(PID.TID 0000.0001) %MON extforcing_fu_mean           =  -2.1543943899061E-02
(PID.TID 0000.0001) %MON extforcing_fu_sd             =   3.8439826263544E-02
(PID.TID 0000.0001) %MON extforcing_fu_del2           =   5.0510404328125E-03
(PID.TID 0000.0001) %MON extforcing_fv_max            =   1.8217393197119E-02
(PID.TID 0000.0001) %MON extforcing_fv_min            =  -8.8495723282297E-02
(PID.TID 0000.0001) %MON extforcing_fv_mean           =  -2.5039805313381E-02
(PID.TID 0000.0001) %MON extforcing_fv_sd             =   2.4655726151368E-02
(PID.TID 0000.0001) %MON extforcing_fv_del2           =   3.2642150891218E-03
(PID.TID 0000.0001) %MON advcfl_uvel_max              =   2.1683953758977E-03
(PID.TID 0000.0001) %MON advcfl_vvel_max              =   8.6469009266818E-04
(PID.TID 0000.0001) %MON advcfl_wvel_max              =   1.6837673869856E-02
(PID.TID 0000.0001) %MON advcfl_W_hf_max              =   2.0933154553757E-02
(PID.TID 0000.0001) %MON pe_b_mean                    =   5.4317690306022E-06
(PID.TID 0000.0001) %MON ke_max                       =   3.1042312162388E-03
(PID.TID 0000.0001) %MON ke_mean                      =   9.2359686974820E-06
(PID.TID 0000.0001) %MON ke_vol                       =   3.6027486600263E+16
(PID.TID 0000.0001) %MON vort_r_min                   =  -4.1503261044166E-07
(PID.TID 0000.0001) %MON vort_r_max                   =   4.7490773513780E-07
(PID.TID 0000.0001) %MON vort_a_mean                  =   6.1944475191297E-05
(PID.TID 0000.0001) %MON vort_a_sd                    =   1.9195918679551E-05
(PID.TID 0000.0001) %MON vort_p_mean                  =   7.7881882182936E-05
(PID.TID 0000.0001) %MON vort_p_sd                    =   5.6361055005952E-05
(PID.TID 0000.0001) %MON surfExpan_theta_mean         =   9.8711157314500E-06
(PID.TID 0000.0001) %MON surfExpan_salt_mean          =   2.1052665134284E-06
(PID.TID 0000.0001) // =======================================================
(PID.TID 0000.0001) // End MONITOR dynamic field statistics
(PID.TID 0000.0001) // =======================================================
time,SST,SSS,fu,fv,Q,E-P,i0,i1,a,b =   2.8800E+04  0.0000E+00  0.0000E+00  0.0000E+00  0.0000E+00  0.0000E+00  0.0000E+00     1     2  1.6667E-01  8.3333E-01
time,fu0,fu1,fu =   2.8800E+04  0.0000E+00  0.0000E+00  0.0000E+00  1.666666666666667E-01  8.333333333333334E-01
 cg2d: Sum(rhs),rhsMax =   1.77635683940025E-15  5.83480921872469E-01
(PID.TID 0000.0001)                    cg2d_init_res =    5.49843676092273E-01
(PID.TID 0000.0001)                       cg2d_iters =    46
(PID.TID 0000.0001)                         cg2d_res =    7.64356930480640E-14
(PID.TID 0000.0001) // =======================================================
(PID.TID 0000.0001) // Begin MONITOR dynamic field statistics
(PID.TID 0000.0001) // =======================================================
(PID.TID 0000.0001) %MON time_tsnumber                =                     3
(PID.TID 0000.0001) %MON time_secondsf                =   3.2400000000000E+04
(PID.TID 0000.0001) %MON dynstat_eta_max              =   1.8595228880971E-01
(PID.TID 0000.0001) %MON dynstat_eta_min              =  -2.3829516686015E-01
(PID.TID 0000.0001) %MON dynstat_eta_mean             =   4.4119742933212E-17
(PID.TID 0000.0001) %MON dynstat_eta_sd               =   9.1327140238676E-02
(PID.TID 0000.0001) %MON dynstat_eta_del2             =   4.4580101706415E-03
(PID.TID 0000.0001) %MON dynstat_uvel_max             =   1.4697163601360E-01
(PID.TID 0000.0001) %MON dynstat_uvel_min             =  -9.6705453708699E-02
(PID.TID 0000.0001) %MON dynstat_uvel_mean            =  -1.6505300441257E-03
(PID.TID 0000.0001) %MON dynstat_uvel_sd              =   3.7386508733660E-03
(PID.TID 0000.0001) %MON dynstat_uvel_del2            =   1.2134936363585E-03
(PID.TID 0000.0001) %MON dynstat_vvel_max             =   3.1359567868353E-02
(PID.TID 0000.0001) %MON dynstat_vvel_min             =  -7.2709700184969E-02
(PID.TID 0000.0001) %MON dynstat_vvel_mean            =  -4.2591051091379E-04
(PID.TID 0000.0001) %MON dynstat_vvel_sd              =   4.2064571250013E-03
(PID.TID 0000.0001) %MON dynstat_vvel_del2            =   1.6594734941505E-03
(PID.TID 0000.0001) %MON dynstat_wvel_max             =   9.8737538762824E-05
(PID.TID 0000.0001) %MON dynstat_wvel_min             =  -1.7306547540627E-04
(PID.TID 0000.0001) %MON dynstat_wvel_mean            =  -9.0038297538675E-22
(PID.TID 0000.0001) %MON dynstat_wvel_sd              =   2.5199775056439E-05
(PID.TID 0000.0001) %MON dynstat_wvel_del2            =   6.0639291554050E-06
(PID.TID 0000.0001) %MON dynstat_theta_max            =   2.6073527663077E+01
(PID.TID 0000.0001) %MON dynstat_theta_min            =   1.8064395683377E+00
(PID.TID 0000.0001) %MON dynstat_theta_mean           =   5.4784462567170E+00
(PID.TID 0000.0001) %MON dynstat_theta_sd             =   4.5925125250643E+00
(PID.TID 0000.0001) %MON dynstat_theta_del2           =   5.0828120032943E-02
(PID.TID 0000.0001) %MON dynstat_salt_max             =   3.7400692070082E+01
(PID.TID 0000.0001) %MON dynstat_salt_min             =   3.4726785376275E+01
(PID.TID 0000.0001) %MON dynstat_salt_mean            =   3.5157554524410E+01
(PID.TID 0000.0001) %MON dynstat_salt_sd              =   4.1376546725157E-01
(PID.TID 0000.0001) %MON dynstat_salt_del2            =   1.2629078950805E-02
(PID.TID 0000.0001) %MON extforcing_qnet_max          =   2.6353609720866E+01
(PID.TID 0000.0001) %MON extforcing_qnet_min          =  -1.7525070953369E+02
(PID.TID 0000.0001) %MON extforcing_qnet_mean         =  -8.4289234507036E+01
(PID.TID 0000.0001) %MON extforcing_qnet_sd           =   5.1878062558190E+01
(PID.TID 0000.0001) %MON extforcing_qnet_del2         =   8.1954923889711E+00
(PID.TID 0000.0001) %MON extforcing_qsw_max           =  -1.5171235402425E+02
(PID.TID 0000.0001) %MON extforcing_qsw_min           =  -3.1275524902344E+02
(PID.TID 0000.0001) %MON extforcing_qsw_mean          =  -2.4678599595167E+02
(PID.TID 0000.0001) %MON extforcing_qsw_sd            =   4.1303728041958E+01
(PID.TID 0000.0001) %MON extforcing_qsw_del2          =   5.9685850973395E+00
(PID.TID 0000.0001) %MON extforcing_empmr_max         =   6.3966674919887E-08
(PID.TID 0000.0001) %MON extforcing_empmr_min         =   1.2405259782374E-08
(PID.TID 0000.0001) %MON extforcing_empmr_mean        =   3.7528675364412E-08
(PID.TID 0000.0001) %MON extforcing_empmr_sd          =   1.1983427068324E-08
(PID.TID 0000.0001) %MON extforcing_empmr_del2        =   2.2507589468538E-09
(PID.TID 0000.0001) %MON extforcing_fu_max            =   1.9739772876104E-01
(PID.TID 0000.0001) %MON extforcing_fu_min            =  -1.1790722236037E-01
(PID.TID 0000.0001) %MON extforcing_fu_mean           =  -2.1714963110422E-02
(PID.TID 0000.0001) %MON extforcing_fu_sd             =   3.8614671538153E-02
(PID.TID 0000.0001) %MON extforcing_fu_del2           =   5.0921469632742E-03
(PID.TID 0000.0001) %MON extforcing_fv_max            =   1.9703799858689E-02
(PID.TID 0000.0001) %MON extforcing_fv_min            =  -8.6945189783971E-02
(PID.TID 0000.0001) %MON extforcing_fv_mean           =  -2.5255245521672E-02
(PID.TID 0000.0001) %MON extforcing_fv_sd             =   2.4576083932036E-02
(PID.TID 0000.0001) %MON extforcing_fv_del2           =   3.2759131683162E-03
(PID.TID 0000.0001) %MON advcfl_uvel_max              =   3.0618692360633E-03
(PID.TID 0000.0001) %MON advcfl_vvel_max              =   1.1771940518789E-03
(PID.TID 0000.0001) %MON advcfl_wvel_max              =   1.4131636018712E-02
(PID.TID 0000.0001) %MON advcfl_W_hf_max              =   1.9921367444287E-02
(PID.TID 0000.0001) %MON pe_b_mean                    =   1.0053836656547E-05
(PID.TID 0000.0001) %MON ke_max                       =   6.2754712356831E-03
(PID.TID 0000.0001) %MON ke_mean                      =   1.5372248002680E-05
(PID.TID 0000.0001) %MON ke_vol                       =   3.6027486600263E+16
(PID.TID 0000.0001) %MON vort_r_min                   =  -5.5427369048257E-07
(PID.TID 0000.0001) %MON vort_r_max                   =   6.7059052069088E-07
(PID.TID 0000.0001) %MON vort_a_mean                  =   6.1944475191297E-05
(PID.TID 0000.0001) %MON vort_a_sd                    =   1.9196332745561E-05
(PID.TID 0000.0001) %MON vort_p_mean                  =   7.7881882182936E-05
(PID.TID 0000.0001) %MON vort_p_sd                    =   5.6361745959975E-05
(PID.TID 0000.0001) %MON surfExpan_theta_mean         =   9.4603720372571E-06
(PID.TID 0000.0001) %MON surfExpan_salt_mean          =   1.1903948287619E-06
(PID.TID 0000.0001) // =======================================================
(PID.TID 0000.0001) // End MONITOR dynamic field statistics
(PID.TID 0000.0001) // =======================================================
time,SST,SSS,fu,fv,Q,E-P,i0,i1,a,b =   3.2400E+04  0.0000E+00  0.0000E+00  0.0000E+00  0.0000E+00  0.0000E+00  0.0000E+00     1     2  2.5000E-01  7.5000E-01
time,fu0,fu1,fu =   3.2400E+04  0.0000E+00  0.0000E+00  0.0000E+00  2.500000000000000E-01  7.500000000000000E-01
 cg2d: Sum(rhs),rhsMax =  -1.24344978758018E-14  6.07089382934698E-01
(PID.TID 0000.0001)                    cg2d_init_res =    2.97163864710572E-01
(PID.TID 0000.0001)                       cg2d_iters =    47
(PID.TID 0000.0001)                         cg2d_res =    5.03566260287646E-14
(PID.TID 0000.0001) // =======================================================
(PID.TID 0000.0001) // Begin MONITOR dynamic field statistics
(PID.TID 0000.0001) // =======================================================
(PID.TID 0000.0001) %MON time_tsnumber                =                     4
(PID.TID 0000.0001) %MON time_secondsf                =   3.6000000000000E+04
(PID.TID 0000.0001) %MON dynstat_eta_max              =   1.9627231023407E-01
(PID.TID 0000.0001) %MON dynstat_eta_min              =  -2.7139002271792E-01
(PID.TID 0000.0001) %MON dynstat_eta_mean             =   7.7209550133122E-17
(PID.TID 0000.0001) %MON dynstat_eta_sd               =   1.0331227529955E-01
(PID.TID 0000.0001) %MON dynstat_eta_del2             =   4.4226158707386E-03
(PID.TID 0000.0001) %MON dynstat_uvel_max             =   1.7730274245660E-01
(PID.TID 0000.0001) %MON dynstat_uvel_min             =  -1.1582956196590E-01
(PID.TID 0000.0001) %MON dynstat_uvel_mean            =  -8.1543734192258E-04
(PID.TID 0000.0001) %MON dynstat_uvel_sd              =   4.7555929310730E-03
(PID.TID 0000.0001) %MON dynstat_uvel_del2            =   1.6002984557558E-03
(PID.TID 0000.0001) %MON dynstat_vvel_max             =   3.9314883684605E-02
(PID.TID 0000.0001) %MON dynstat_vvel_min             =  -9.0546460222097E-02
(PID.TID 0000.0001) %MON dynstat_vvel_mean            =  -6.6445373966497E-04
(PID.TID 0000.0001) %MON dynstat_vvel_sd              =   5.2286902220061E-03
(PID.TID 0000.0001) %MON dynstat_vvel_del2            =   2.0506461019811E-03
(PID.TID 0000.0001) %MON dynstat_wvel_max             =   1.1374309559839E-04
(PID.TID 0000.0001) %MON dynstat_wvel_min             =  -1.8464100039356E-04
(PID.TID 0000.0001) %MON dynstat_wvel_mean            =   1.1254787192334E-21
(PID.TID 0000.0001) %MON dynstat_wvel_sd              =   2.9997498981264E-05
(PID.TID 0000.0001) %MON dynstat_wvel_del2            =   7.3590671303726E-06
(PID.TID 0000.0001) %MON dynstat_theta_max            =   2.6071812802125E+01
(PID.TID 0000.0001) %MON dynstat_theta_min            =   1.8064406152496E+00
(PID.TID 0000.0001) %MON dynstat_theta_mean           =   5.4784564072855E+00
(PID.TID 0000.0001) %MON dynstat_theta_sd             =   4.5925444975206E+00
(PID.TID 0000.0001) %MON dynstat_theta_del2           =   5.0797583614428E-02
(PID.TID 0000.0001) %MON dynstat_salt_max             =   3.7400960445596E+01
(PID.TID 0000.0001) %MON dynstat_salt_min             =   3.4726790540921E+01
(PID.TID 0000.0001) %MON dynstat_salt_mean            =   3.5157555200452E+01
(PID.TID 0000.0001) %MON dynstat_salt_sd              =   4.1376635840932E-01
(PID.TID 0000.0001) %MON dynstat_salt_del2            =   1.2628702255774E-02
(PID.TID 0000.0001) %MON extforcing_qnet_max          =   2.7849277496338E+01
(PID.TID 0000.0001) %MON extforcing_qnet_min          =  -1.7390786361694E+02
(PID.TID 0000.0001) %MON extforcing_qnet_mean         =  -8.3321037259321E+01
(PID.TID 0000.0001) %MON extforcing_qnet_sd           =   5.1779127338922E+01
(PID.TID 0000.0001) %MON extforcing_qnet_del2         =   8.1563966591370E+00
(PID.TID 0000.0001) %MON extforcing_qsw_max           =  -1.5086550521851E+02
(PID.TID 0000.0001) %MON extforcing_qsw_min           =  -3.1335008239746E+02
(PID.TID 0000.0001) %MON extforcing_qsw_mean          =  -2.4706559564349E+02
(PID.TID 0000.0001) %MON extforcing_qsw_sd            =   4.1383764013908E+01
(PID.TID 0000.0001) %MON extforcing_qsw_del2          =   5.9498440314984E+00
(PID.TID 0000.0001) %MON extforcing_empmr_max         =   6.4439523939086E-08
(PID.TID 0000.0001) %MON extforcing_empmr_min         =   1.2555002149028E-08
(PID.TID 0000.0001) %MON extforcing_empmr_mean        =   3.7918112800006E-08
(PID.TID 0000.0001) %MON extforcing_empmr_sd          =   1.1930085472274E-08
(PID.TID 0000.0001) %MON extforcing_empmr_del2        =   2.2500853173017E-09
(PID.TID 0000.0001) %MON extforcing_fu_max            =   2.0586128532887E-01
(PID.TID 0000.0001) %MON extforcing_fu_min            =  -1.1707078851759E-01
(PID.TID 0000.0001) %MON extforcing_fu_mean           =  -2.1885982321782E-02
(PID.TID 0000.0001) %MON extforcing_fu_sd             =   3.8813242724495E-02
(PID.TID 0000.0001) %MON extforcing_fu_del2           =   5.1362388458236E-03
(PID.TID 0000.0001) %MON extforcing_fv_max            =   2.1190206520259E-02
(PID.TID 0000.0001) %MON extforcing_fv_min            =  -8.5394656285644E-02
(PID.TID 0000.0001) %MON extforcing_fv_mean           =  -2.5470685729964E-02
(PID.TID 0000.0001) %MON extforcing_fv_sd             =   2.4535199299228E-02
(PID.TID 0000.0001) %MON extforcing_fv_del2           =   3.2899761574346E-03
(PID.TID 0000.0001) %MON advcfl_uvel_max              =   3.6937590634649E-03
(PID.TID 0000.0001) %MON advcfl_vvel_max              =   1.4659770858769E-03
(PID.TID 0000.0001) %MON advcfl_wvel_max              =   8.8164550804747E-03
(PID.TID 0000.0001) %MON advcfl_W_hf_max              =   1.4095940546178E-02
(PID.TID 0000.0001) %MON pe_b_mean                    =   1.2865775247679E-05
(PID.TID 0000.0001) %MON ke_max                       =   9.3262367300792E-03
(PID.TID 0000.0001) %MON ke_mean                      =   2.2685305785830E-05
(PID.TID 0000.0001) %MON ke_vol                       =   3.6027486600263E+16
(PID.TID 0000.0001) %MON vort_r_min                   =  -6.3439319475351E-07
(PID.TID 0000.0001) %MON vort_r_max                   =   8.0898288682645E-07
(PID.TID 0000.0001) %MON vort_a_mean                  =   6.1944475191297E-05
(PID.TID 0000.0001) %MON vort_a_sd                    =   1.9197038902951E-05
(PID.TID 0000.0001) %MON vort_p_mean                  =   7.7881882182936E-05
(PID.TID 0000.0001) %MON vort_p_sd                    =   5.6363284389966E-05
(PID.TID 0000.0001) %MON surfExpan_theta_mean         =   7.8271896314042E-06
(PID.TID 0000.0001) %MON surfExpan_salt_mean          =   2.1632233901898E-07
(PID.TID 0000.0001) // =======================================================
(PID.TID 0000.0001) // End MONITOR dynamic field statistics
(PID.TID 0000.0001) // =======================================================
time,SST,SSS,fu,fv,Q,E-P,i0,i1,a,b =   3.6000E+04  0.0000E+00  0.0000E+00  0.0000E+00  0.0000E+00  0.0000E+00  0.0000E+00     1     2  3.3333E-01  6.6667E-01
time,fu0,fu1,fu =   3.6000E+04  0.0000E+00  0.0000E+00  0.0000E+00  3.333333333333333E-01  6.666666666666667E-01
 cg2d: Sum(rhs),rhsMax =  -1.42108547152020E-14  6.21143979575105E-01
(PID.TID 0000.0001)                    cg2d_init_res =    2.45540794860237E-01
(PID.TID 0000.0001)                       cg2d_iters =    47
(PID.TID 0000.0001)                         cg2d_res =    3.93201525664408E-14
(PID.TID 0000.0001) // =======================================================
(PID.TID 0000.0001) // Begin MONITOR dynamic field statistics
(PID.TID 0000.0001) // =======================================================
(PID.TID 0000.0001) %MON time_tsnumber                =                     5
(PID.TID 0000.0001) %MON time_secondsf                =   3.9600000000000E+04
(PID.TID 0000.0001) %MON dynstat_eta_max              =   1.8812326782260E-01
(PID.TID 0000.0001) %MON dynstat_eta_min              =  -2.8341184520443E-01
(PID.TID 0000.0001) %MON dynstat_eta_mean             =   8.8239485866425E-17
(PID.TID 0000.0001) %MON dynstat_eta_sd               =   1.0493859673095E-01
(PID.TID 0000.0001) %MON dynstat_eta_del2             =   4.5212698260166E-03
(PID.TID 0000.0001) %MON dynstat_uvel_max             =   1.7906001642804E-01
(PID.TID 0000.0001) %MON dynstat_uvel_min             =  -1.3243693248466E-01
(PID.TID 0000.0001) %MON dynstat_uvel_mean            =  -5.2546576832732E-05
(PID.TID 0000.0001) %MON dynstat_uvel_sd              =   5.7446908727783E-03
(PID.TID 0000.0001) %MON dynstat_uvel_del2            =   1.9818423773484E-03
(PID.TID 0000.0001) %MON dynstat_vvel_max             =   4.4823662204095E-02
(PID.TID 0000.0001) %MON dynstat_vvel_min             =  -1.0866419311473E-01
(PID.TID 0000.0001) %MON dynstat_vvel_mean            =  -7.6634902596831E-04
(PID.TID 0000.0001) %MON dynstat_vvel_sd              =   6.0249099122311E-03
(PID.TID 0000.0001) %MON dynstat_vvel_del2            =   2.3262355910335E-03
(PID.TID 0000.0001) %MON dynstat_wvel_max             =   1.2005647249687E-04
(PID.TID 0000.0001) %MON dynstat_wvel_min             =  -1.7855357421972E-04
(PID.TID 0000.0001) %MON dynstat_wvel_mean            =  -5.6273935961672E-22
(PID.TID 0000.0001) %MON dynstat_wvel_sd              =   3.3536209616985E-05
(PID.TID 0000.0001) %MON dynstat_wvel_del2            =   8.2466420859925E-06
(PID.TID 0000.0001) %MON dynstat_theta_max            =   2.6070067566660E+01
(PID.TID 0000.0001) %MON dynstat_theta_min            =   1.8064422271982E+00
(PID.TID 0000.0001) %MON dynstat_theta_mean           =   5.4784684366446E+00
(PID.TID 0000.0001) %MON dynstat_theta_sd             =   4.5925826499974E+00
(PID.TID 0000.0001) %MON dynstat_theta_del2           =   5.0765563396656E-02
(PID.TID 0000.0001) %MON dynstat_salt_max             =   3.7401224066302E+01
(PID.TID 0000.0001) %MON dynstat_salt_min             =   3.4726794346571E+01
(PID.TID 0000.0001) %MON dynstat_salt_mean            =   3.5157556779621E+01
(PID.TID 0000.0001) %MON dynstat_salt_sd              =   4.1377004286960E-01
(PID.TID 0000.0001) %MON dynstat_salt_del2            =   1.2628615219875E-02
(PID.TID 0000.0001) %MON extforcing_qnet_max          =   2.9530278523763E+01
(PID.TID 0000.0001) %MON extforcing_qnet_min          =  -1.7256501770020E+02
(PID.TID 0000.0001) %MON extforcing_qnet_mean         =  -8.2352840011605E+01
(PID.TID 0000.0001) %MON extforcing_qnet_sd           =   5.1710478801745E+01
(PID.TID 0000.0001) %MON extforcing_qnet_del2         =   8.1218630723374E+00
(PID.TID 0000.0001) %MON extforcing_qsw_max           =  -1.5001865641276E+02
(PID.TID 0000.0001) %MON extforcing_qsw_min           =  -3.1394491577148E+02
(PID.TID 0000.0001) %MON extforcing_qsw_mean          =  -2.4734519533530E+02
(PID.TID 0000.0001) %MON extforcing_qsw_sd            =   4.1486783235049E+01
(PID.TID 0000.0001) %MON extforcing_qsw_del2          =   5.9332652099810E+00
(PID.TID 0000.0001) %MON extforcing_empmr_max         =   6.4912372958285E-08
(PID.TID 0000.0001) %MON extforcing_empmr_min         =   1.2704744515683E-08
(PID.TID 0000.0001) %MON extforcing_empmr_mean        =   3.8307550235600E-08
(PID.TID 0000.0001) %MON extforcing_empmr_sd          =   1.1886915402368E-08
(PID.TID 0000.0001) %MON extforcing_empmr_del2        =   2.2500960263052E-09
(PID.TID 0000.0001) %MON extforcing_fu_max            =   2.1432484189669E-01
(PID.TID 0000.0001) %MON extforcing_fu_min            =  -1.1623435467482E-01
(PID.TID 0000.0001) %MON extforcing_fu_mean           =  -2.2057001533143E-02
(PID.TID 0000.0001) %MON extforcing_fu_sd             =   3.9035177744503E-02
(PID.TID 0000.0001) %MON extforcing_fu_del2           =   5.1877592898433E-03
(PID.TID 0000.0001) %MON extforcing_fv_max            =   2.2676613181829E-02
(PID.TID 0000.0001) %MON extforcing_fv_min            =  -8.3844122787317E-02
(PID.TID 0000.0001) %MON extforcing_fv_mean           =  -2.5686125938256E-02
(PID.TID 0000.0001) %MON extforcing_fv_sd             =   2.4533266022002E-02
(PID.TID 0000.0001) %MON extforcing_fv_del2           =   3.3103425627123E-03
(PID.TID 0000.0001) %MON advcfl_uvel_max              =   3.7303684614305E-03
(PID.TID 0000.0001) %MON advcfl_vvel_max              =   1.7593091631717E-03
(PID.TID 0000.0001) %MON advcfl_wvel_max              =   4.3018587434000E-03
(PID.TID 0000.0001) %MON advcfl_W_hf_max              =   7.5077966436656E-03
(PID.TID 0000.0001) %MON pe_b_mean                    =   1.3274024428062E-05
(PID.TID 0000.0001) %MON ke_max                       =   1.0006369844160E-02
(PID.TID 0000.0001) %MON ke_mean                      =   3.1063463702720E-05
(PID.TID 0000.0001) %MON ke_vol                       =   3.6027486600263E+16
(PID.TID 0000.0001) %MON vort_r_min                   =  -6.0173250351510E-07
(PID.TID 0000.0001) %MON vort_r_max                   =   8.1700083708859E-07
(PID.TID 0000.0001) %MON vort_a_mean                  =   6.1944475191297E-05
(PID.TID 0000.0001) %MON vort_a_sd                    =   1.9197682109884E-05
(PID.TID 0000.0001) %MON vort_p_mean                  =   7.7881882182936E-05
(PID.TID 0000.0001) %MON vort_p_sd                    =   5.6364966013298E-05
(PID.TID 0000.0001) %MON surfExpan_theta_mean         =   5.5546945992199E-06
(PID.TID 0000.0001) %MON surfExpan_salt_mean          =  -4.7548422924640E-07
(PID.TID 0000.0001) // =======================================================
(PID.TID 0000.0001) // End MONITOR dynamic field statistics
(PID.TID 0000.0001) // =======================================================
time,SST,SSS,fu,fv,Q,E-P,i0,i1,a,b =   3.9600E+04  0.0000E+00  0.0000E+00  0.0000E+00  0.0000E+00  0.0000E+00  0.0000E+00     1     2  4.1667E-01  5.8333E-01
time,fu0,fu1,fu =   3.9600E+04  0.0000E+00  0.0000E+00  0.0000E+00  4.166666666666667E-01  5.833333333333333E-01
 cg2d: Sum(rhs),rhsMax =  -8.88178419700125E-15  6.21676458832125E-01
(PID.TID 0000.0001)                    cg2d_init_res =    2.81016274438536E-01
(PID.TID 0000.0001)                       cg2d_iters =    47
(PID.TID 0000.0001)                         cg2d_res =    4.15710925423838E-14
(PID.TID 0000.0001) // =======================================================
(PID.TID 0000.0001) // Begin MONITOR dynamic field statistics
(PID.TID 0000.0001) // =======================================================
(PID.TID 0000.0001) %MON time_tsnumber                =                     6
(PID.TID 0000.0001) %MON time_secondsf                =   4.3200000000000E+04
(PID.TID 0000.0001) %MON dynstat_eta_max              =   1.8435079390568E-01
(PID.TID 0000.0001) %MON dynstat_eta_min              =  -2.7975744215275E-01
(PID.TID 0000.0001) %MON dynstat_eta_mean             =   6.0664646533167E-17
(PID.TID 0000.0001) %MON dynstat_eta_sd               =   1.0063707899671E-01
(PID.TID 0000.0001) %MON dynstat_eta_del2             =   4.5944647634898E-03
(PID.TID 0000.0001) %MON dynstat_uvel_max             =   1.6536916745653E-01
(PID.TID 0000.0001) %MON dynstat_uvel_min             =  -1.4727344733259E-01
(PID.TID 0000.0001) %MON dynstat_uvel_mean            =   4.2995915417559E-04
(PID.TID 0000.0001) %MON dynstat_uvel_sd              =   6.6714487016248E-03
(PID.TID 0000.0001) %MON dynstat_uvel_del2            =   2.3476285489144E-03
(PID.TID 0000.0001) %MON dynstat_vvel_max             =   4.7607709411904E-02
(PID.TID 0000.0001) %MON dynstat_vvel_min             =  -1.2111554252362E-01
(PID.TID 0000.0001) %MON dynstat_vvel_mean            =  -6.5907414769192E-04
(PID.TID 0000.0001) %MON dynstat_vvel_sd              =   6.5976904209832E-03
(PID.TID 0000.0001) %MON dynstat_vvel_del2            =   2.4774403408308E-03
(PID.TID 0000.0001) %MON dynstat_wvel_max             =   1.3288966888367E-04
(PID.TID 0000.0001) %MON dynstat_wvel_min             =  -1.5753918403867E-04
(PID.TID 0000.0001) %MON dynstat_wvel_mean            =   6.7528723154006E-22
(PID.TID 0000.0001) %MON dynstat_wvel_sd              =   3.5672461731884E-05
(PID.TID 0000.0001) %MON dynstat_wvel_del2            =   8.7010470289153E-06
(PID.TID 0000.0001) %MON dynstat_theta_max            =   2.6075021815393E+01
(PID.TID 0000.0001) %MON dynstat_theta_min            =   1.8064442715262E+00
(PID.TID 0000.0001) %MON dynstat_theta_mean           =   5.4784826027003E+00
(PID.TID 0000.0001) %MON dynstat_theta_sd             =   4.5926282331492E+00
(PID.TID 0000.0001) %MON dynstat_theta_del2           =   5.0736845419563E-02
(PID.TID 0000.0001) %MON dynstat_salt_max             =   3.7401486054928E+01
(PID.TID 0000.0001) %MON dynstat_salt_min             =   3.4726796682486E+01
(PID.TID 0000.0001) %MON dynstat_salt_mean            =   3.5157558830998E+01
(PID.TID 0000.0001) %MON dynstat_salt_sd              =   4.1377512136295E-01
(PID.TID 0000.0001) %MON dynstat_salt_del2            =   1.2628551862389E-02
(PID.TID 0000.0001) %MON extforcing_qnet_max          =   3.2348238627116E+01
(PID.TID 0000.0001) %MON extforcing_qnet_min          =  -1.7122217178345E+02
(PID.TID 0000.0001) %MON extforcing_qnet_mean         =  -8.1384642763889E+01
(PID.TID 0000.0001) %MON extforcing_qnet_sd           =   5.1672237657836E+01
(PID.TID 0000.0001) %MON extforcing_qnet_del2         =   8.1030238077950E+00
(PID.TID 0000.0001) %MON extforcing_qsw_max           =  -1.4917180760701E+02
(PID.TID 0000.0001) %MON extforcing_qsw_min           =  -3.1453974914551E+02
(PID.TID 0000.0001) %MON extforcing_qsw_mean          =  -2.4762479502712E+02
(PID.TID 0000.0001) %MON extforcing_qsw_sd            =   4.1612615008714E+01
(PID.TID 0000.0001) %MON extforcing_qsw_del2          =   5.9226507240133E+00
(PID.TID 0000.0001) %MON extforcing_empmr_max         =   6.5385221977484E-08
(PID.TID 0000.0001) %MON extforcing_empmr_min         =   1.2854486882337E-08
(PID.TID 0000.0001) %MON extforcing_empmr_mean        =   3.8696987671193E-08
(PID.TID 0000.0001) %MON extforcing_empmr_sd          =   1.1854027987303E-08
(PID.TID 0000.0001) %MON extforcing_empmr_del2        =   2.2514716823256E-09
(PID.TID 0000.0001) %MON extforcing_fu_max            =   2.2278839846452E-01
(PID.TID 0000.0001) %MON extforcing_fu_min            =  -1.1539792083204E-01
(PID.TID 0000.0001) %MON extforcing_fu_mean           =  -2.2228020744504E-02
(PID.TID 0000.0001) %MON extforcing_fu_sd             =   3.9280080578615E-02
(PID.TID 0000.0001) %MON extforcing_fu_del2           =   5.2466164724018E-03
(PID.TID 0000.0001) %MON extforcing_fv_max            =   2.4163019843400E-02
(PID.TID 0000.0001) %MON extforcing_fv_min            =  -8.3072179928422E-02
(PID.TID 0000.0001) %MON extforcing_fv_mean           =  -2.5901566146548E-02
(PID.TID 0000.0001) %MON extforcing_fv_sd             =   2.4570293294850E-02
(PID.TID 0000.0001) %MON extforcing_fv_del2           =   3.3640181267961E-03
(PID.TID 0000.0001) %MON advcfl_uvel_max              =   3.4451461531099E-03
(PID.TID 0000.0001) %MON advcfl_vvel_max              =   1.9609006210476E-03
(PID.TID 0000.0001) %MON advcfl_wvel_max              =   6.3534516976866E-03
(PID.TID 0000.0001) %MON advcfl_W_hf_max              =   8.2818757944588E-03
(PID.TID 0000.0001) %MON pe_b_mean                    =   1.2208102118628E-05
(PID.TID 0000.0001) %MON ke_max                       =   1.0810990232560E-02
(PID.TID 0000.0001) %MON ke_mean                      =   3.9435241968397E-05
(PID.TID 0000.0001) %MON ke_vol                       =   3.6027486600263E+16
(PID.TID 0000.0001) %MON vort_r_min                   =  -5.1639857817620E-07
(PID.TID 0000.0001) %MON vort_r_max                   =   7.5453331757581E-07
(PID.TID 0000.0001) %MON vort_a_mean                  =   6.1944475191297E-05
(PID.TID 0000.0001) %MON vort_a_sd                    =   1.9198086998485E-05
(PID.TID 0000.0001) %MON vort_p_mean                  =   7.7881882182936E-05
(PID.TID 0000.0001) %MON vort_p_sd                    =   5.6366331454251E-05
(PID.TID 0000.0001) %MON surfExpan_theta_mean         =   2.9244906177966E-06
(PID.TID 0000.0001) %MON surfExpan_salt_mean          =  -7.8819462800441E-07
(PID.TID 0000.0001) // =======================================================
(PID.TID 0000.0001) // End MONITOR dynamic field statistics
(PID.TID 0000.0001) // =======================================================
time,SST,SSS,fu,fv,Q,E-P,i0,i1,a,b =   4.3200E+04  0.0000E+00  0.0000E+00  0.0000E+00  0.0000E+00  0.0000E+00  0.0000E+00     1     2  5.0000E-01  5.0000E-01
time,fu0,fu1,fu =   4.3200E+04  0.0000E+00  0.0000E+00  0.0000E+00  5.000000000000000E-01  5.000000000000000E-01
 cg2d: Sum(rhs),rhsMax =  -1.59872115546023E-14  6.11135932230970E-01
(PID.TID 0000.0001)                    cg2d_init_res =    2.63091082530764E-01
(PID.TID 0000.0001)                       cg2d_iters =    47
(PID.TID 0000.0001)                         cg2d_res =    4.30519068623134E-14
(PID.TID 0000.0001) // =======================================================
(PID.TID 0000.0001) // Begin MONITOR dynamic field statistics
(PID.TID 0000.0001) // =======================================================
(PID.TID 0000.0001) %MON time_tsnumber                =                     7
(PID.TID 0000.0001) %MON time_secondsf                =   4.6800000000000E+04
(PID.TID 0000.0001) %MON dynstat_eta_max              =   1.7621675611151E-01
(PID.TID 0000.0001) %MON dynstat_eta_min              =  -2.6854247035198E-01
(PID.TID 0000.0001) %MON dynstat_eta_mean             =   1.1581432519968E-16
(PID.TID 0000.0001) %MON dynstat_eta_sd               =   9.4044374854697E-02
(PID.TID 0000.0001) %MON dynstat_eta_del2             =   4.6225796111463E-03
(PID.TID 0000.0001) %MON dynstat_uvel_max             =   1.4579493082521E-01
(PID.TID 0000.0001) %MON dynstat_uvel_min             =  -1.6053842975094E-01
(PID.TID 0000.0001) %MON dynstat_uvel_mean            =   6.0829393211812E-04
(PID.TID 0000.0001) %MON dynstat_uvel_sd              =   7.4954424673113E-03
(PID.TID 0000.0001) %MON dynstat_uvel_del2            =   2.6829887664923E-03
(PID.TID 0000.0001) %MON dynstat_vvel_max             =   4.9443382424477E-02
(PID.TID 0000.0001) %MON dynstat_vvel_min             =  -1.2700691244440E-01
(PID.TID 0000.0001) %MON dynstat_vvel_mean            =  -3.7951331925923E-04
(PID.TID 0000.0001) %MON dynstat_vvel_sd              =   6.9721035952295E-03
(PID.TID 0000.0001) %MON dynstat_vvel_del2            =   2.5125743848184E-03
(PID.TID 0000.0001) %MON dynstat_wvel_max             =   1.3827799346531E-04
(PID.TID 0000.0001) %MON dynstat_wvel_min             =  -1.5784456829832E-04
(PID.TID 0000.0001) %MON dynstat_wvel_mean            =   9.1445145937716E-22
(PID.TID 0000.0001) %MON dynstat_wvel_sd              =   3.6483116345743E-05
(PID.TID 0000.0001) %MON dynstat_wvel_del2            =   8.7175626675145E-06
(PID.TID 0000.0001) %MON dynstat_theta_max            =   2.6081689358111E+01
(PID.TID 0000.0001) %MON dynstat_theta_min            =   1.8064465123701E+00
(PID.TID 0000.0001) %MON dynstat_theta_mean           =   5.4784990730336E+00
(PID.TID 0000.0001) %MON dynstat_theta_sd             =   4.5926821404813E+00
(PID.TID 0000.0001) %MON dynstat_theta_del2           =   5.0716823125168E-02
(PID.TID 0000.0001) %MON dynstat_salt_max             =   3.7401749862310E+01
(PID.TID 0000.0001) %MON dynstat_salt_min             =   3.4726797966194E+01
(PID.TID 0000.0001) %MON dynstat_salt_mean            =   3.5157560967918E+01
(PID.TID 0000.0001) %MON dynstat_salt_sd              =   4.1378053278257E-01
(PID.TID 0000.0001) %MON dynstat_salt_del2            =   1.2628514695505E-02
(PID.TID 0000.0001) %MON extforcing_qnet_max          =   3.5166198730469E+01
(PID.TID 0000.0001) %MON extforcing_qnet_min          =  -1.6987932586670E+02
(PID.TID 0000.0001) %MON extforcing_qnet_mean         =  -8.0416445516173E+01
(PID.TID 0000.0001) %MON extforcing_qnet_sd           =   5.1664471428311E+01
(PID.TID 0000.0001) %MON extforcing_qnet_del2         =   8.0872703890495E+00
(PID.TID 0000.0001) %MON extforcing_qsw_max           =  -1.4832495880127E+02
(PID.TID 0000.0001) %MON extforcing_qsw_min           =  -3.1513458251953E+02
(PID.TID 0000.0001) %MON extforcing_qsw_mean          =  -2.4790439471893E+02
(PID.TID 0000.0001) %MON extforcing_qsw_sd            =   4.1761053123375E+01
(PID.TID 0000.0001) %MON extforcing_qsw_del2          =   5.9130193400266E+00
(PID.TID 0000.0001) %MON extforcing_empmr_max         =   6.5858070996683E-08
(PID.TID 0000.0001) %MON extforcing_empmr_min         =   1.3004229248992E-08
(PID.TID 0000.0001) %MON extforcing_empmr_mean        =   3.9086425106787E-08
(PID.TID 0000.0001) %MON extforcing_empmr_sd          =   1.1831508973831E-08
(PID.TID 0000.0001) %MON extforcing_empmr_del2        =   2.2535559209638E-09
(PID.TID 0000.0001) %MON extforcing_fu_max            =   2.3125195503235E-01
(PID.TID 0000.0001) %MON extforcing_fu_min            =  -1.1534011736512E-01
(PID.TID 0000.0001) %MON extforcing_fu_mean           =  -2.2399039955864E-02
(PID.TID 0000.0001) %MON extforcing_fu_sd             =   3.9547524536224E-02
(PID.TID 0000.0001) %MON extforcing_fu_del2           =   5.3078325148752E-03
(PID.TID 0000.0001) %MON extforcing_fv_max            =   2.5649426504970E-02
(PID.TID 0000.0001) %MON extforcing_fv_min            =  -8.3588618785143E-02
(PID.TID 0000.0001) %MON extforcing_fv_mean           =  -2.6117006354840E-02
(PID.TID 0000.0001) %MON extforcing_fv_sd             =   2.4646105520320E-02
(PID.TID 0000.0001) %MON extforcing_fv_del2           =   3.4514294083914E-03
(PID.TID 0000.0001) %MON advcfl_uvel_max              =   3.0373548636715E-03
(PID.TID 0000.0001) %MON advcfl_vvel_max              =   2.0562838451637E-03
(PID.TID 0000.0001) %MON advcfl_wvel_max              =   6.3626763446986E-03
(PID.TID 0000.0001) %MON advcfl_W_hf_max              =   1.0476338672938E-02
(PID.TID 0000.0001) %MON pe_b_mean                    =   1.0660995389417E-05
(PID.TID 0000.0001) %MON ke_max                       =   1.2826900339960E-02
(PID.TID 0000.0001) %MON ke_mean                      =   4.6879007222133E-05
(PID.TID 0000.0001) %MON ke_vol                       =   3.6027486600263E+16
(PID.TID 0000.0001) %MON vort_r_min                   =  -4.2178397275535E-07
(PID.TID 0000.0001) %MON vort_r_max                   =   7.0095301812611E-07
(PID.TID 0000.0001) %MON vort_a_mean                  =   6.1944475191297E-05
(PID.TID 0000.0001) %MON vort_a_sd                    =   1.9198233889955E-05
(PID.TID 0000.0001) %MON vort_p_mean                  =   7.7881882182936E-05
(PID.TID 0000.0001) %MON vort_p_sd                    =   5.6367165663256E-05
(PID.TID 0000.0001) %MON surfExpan_theta_mean         =   2.6793446208683E-07
(PID.TID 0000.0001) %MON surfExpan_salt_mean          =  -7.5134424188195E-07
(PID.TID 0000.0001) // =======================================================
(PID.TID 0000.0001) // End MONITOR dynamic field statistics
(PID.TID 0000.0001) // =======================================================
 Computing Diagnostic # 169  KPPviscA     Counter:       1   Parms: SM P    UR      
 Computing Diagnostic # 170  KPPdiffS     Counter:       1   Parms: SM P    UR      
 Computing Diagnostic # 171  KPPdiffT     Counter:       1   Parms: SM P    UR      
 Computing Diagnostic # 172  KPPghat      Counter:       1   Parms: SM P    LR      
 Computing Diagnostic # 173  KPPhbl       Counter:       1   Parms: SM P     1      
 Computing Diagnostic # 175  KPPfrac      Counter:       1   Parms: SM P     1      
 Computing Diagnostic # 174  KPPmld       Counter:       1   Parms: SM P     1      
time,SST,SSS,fu,fv,Q,E-P,i0,i1,a,b =   4.6800E+04  0.0000E+00  0.0000E+00  0.0000E+00  0.0000E+00  0.0000E+00  0.0000E+00     1     2  5.8333E-01  4.1667E-01
time,fu0,fu1,fu =   4.6800E+04  0.0000E+00  0.0000E+00  0.0000E+00  5.833333333333334E-01  4.166666666666666E-01
 cg2d: Sum(rhs),rhsMax =  -2.13162820728030E-14  5.94932676326299E-01
(PID.TID 0000.0001)                    cg2d_init_res =    2.04039839801695E-01
(PID.TID 0000.0001)                       cg2d_iters =    47
(PID.TID 0000.0001)                         cg2d_res =    3.87188770137855E-14
(PID.TID 0000.0001) // =======================================================
(PID.TID 0000.0001) // Begin MONITOR dynamic field statistics
(PID.TID 0000.0001) // =======================================================
(PID.TID 0000.0001) %MON time_tsnumber                =                     8
(PID.TID 0000.0001) %MON time_secondsf                =   5.0400000000000E+04
(PID.TID 0000.0001) %MON dynstat_eta_max              =   1.6654868364061E-01
(PID.TID 0000.0001) %MON dynstat_eta_min              =  -2.5257947890770E-01
(PID.TID 0000.0001) %MON dynstat_eta_mean             =   9.3754453733076E-17
(PID.TID 0000.0001) %MON dynstat_eta_sd               =   8.6936268953098E-02
(PID.TID 0000.0001) %MON dynstat_eta_del2             =   4.6354984931931E-03
(PID.TID 0000.0001) %MON dynstat_uvel_max             =   1.2081176763333E-01
(PID.TID 0000.0001) %MON dynstat_uvel_min             =  -1.7216925722601E-01
(PID.TID 0000.0001) %MON dynstat_uvel_mean            =   5.6371031827400E-04
(PID.TID 0000.0001) %MON dynstat_uvel_sd              =   8.1886960829854E-03
(PID.TID 0000.0001) %MON dynstat_uvel_del2            =   2.9838412229073E-03
(PID.TID 0000.0001) %MON dynstat_vvel_max             =   5.2723653106330E-02
(PID.TID 0000.0001) %MON dynstat_vvel_min             =  -1.2620451824197E-01
(PID.TID 0000.0001) %MON dynstat_vvel_mean            =  -3.4799315936322E-05
(PID.TID 0000.0001) %MON dynstat_vvel_sd              =   7.1861723901030E-03
(PID.TID 0000.0001) %MON dynstat_vvel_del2            =   2.4509869610147E-03
(PID.TID 0000.0001) %MON dynstat_wvel_max             =   1.3877310712694E-04
(PID.TID 0000.0001) %MON dynstat_wvel_min             =  -1.6481709262936E-04
(PID.TID 0000.0001) %MON dynstat_wvel_mean            =  -5.6273935961672E-23
(PID.TID 0000.0001) %MON dynstat_wvel_sd              =   3.6261921895093E-05
(PID.TID 0000.0001) %MON dynstat_wvel_del2            =   8.3395399326141E-06
(PID.TID 0000.0001) %MON dynstat_theta_max            =   2.6088410869790E+01
(PID.TID 0000.0001) %MON dynstat_theta_min            =   1.8064487561209E+00
(PID.TID 0000.0001) %MON dynstat_theta_mean           =   5.4785176954248E+00
(PID.TID 0000.0001) %MON dynstat_theta_sd             =   4.5927440281752E+00
(PID.TID 0000.0001) %MON dynstat_theta_del2           =   5.0706817625398E-02
(PID.TID 0000.0001) %MON dynstat_salt_max             =   3.7402020372604E+01
(PID.TID 0000.0001) %MON dynstat_salt_min             =   3.4726798685854E+01
(PID.TID 0000.0001) %MON dynstat_salt_mean            =   3.5157562896989E+01
(PID.TID 0000.0001) %MON dynstat_salt_sd              =   4.1378547972310E-01
(PID.TID 0000.0001) %MON dynstat_salt_del2            =   1.2629417587205E-02
(PID.TID 0000.0001) %MON extforcing_qnet_max          =   3.7984158833822E+01
(PID.TID 0000.0001) %MON extforcing_qnet_min          =  -1.6853647994995E+02
(PID.TID 0000.0001) %MON extforcing_qnet_mean         =  -7.9448248268458E+01
(PID.TID 0000.0001) %MON extforcing_qnet_sd           =   5.1687193850144E+01
(PID.TID 0000.0001) %MON extforcing_qnet_del2         =   8.0776038898036E+00
(PID.TID 0000.0001) %MON extforcing_qsw_max           =  -1.4661845270793E+02
(PID.TID 0000.0001) %MON extforcing_qsw_min           =  -3.1572941589355E+02
(PID.TID 0000.0001) %MON extforcing_qsw_mean          =  -2.4818399441075E+02
(PID.TID 0000.0001) %MON extforcing_qsw_sd            =   4.1931857501445E+01
(PID.TID 0000.0001) %MON extforcing_qsw_del2          =   5.9088638850621E+00
(PID.TID 0000.0001) %MON extforcing_empmr_max         =   6.6330920015882E-08
(PID.TID 0000.0001) %MON extforcing_empmr_min         =   1.3153971615646E-08
(PID.TID 0000.0001) %MON extforcing_empmr_mean        =   3.9475862542380E-08
(PID.TID 0000.0001) %MON extforcing_empmr_sd          =   1.1819417625471E-08
(PID.TID 0000.0001) %MON extforcing_empmr_del2        =   2.2566677700017E-09
(PID.TID 0000.0001) %MON extforcing_fu_max            =   2.3971551160018E-01
(PID.TID 0000.0001) %MON extforcing_fu_min            =  -1.1623985506594E-01
(PID.TID 0000.0001) %MON extforcing_fu_mean           =  -2.2570059167225E-02
(PID.TID 0000.0001) %MON extforcing_fu_sd             =   3.9837055634009E-02
(PID.TID 0000.0001) %MON extforcing_fu_del2           =   5.3844475070210E-03
(PID.TID 0000.0001) %MON extforcing_fv_max            =   2.7135833166540E-02
(PID.TID 0000.0001) %MON extforcing_fv_min            =  -8.4105057641864E-02
(PID.TID 0000.0001) %MON extforcing_fv_mean           =  -2.6332446563131E-02
(PID.TID 0000.0001) %MON extforcing_fv_sd             =   2.4760346440986E-02
(PID.TID 0000.0001) %MON extforcing_fv_del2           =   3.5442339528145E-03
(PID.TID 0000.0001) %MON advcfl_uvel_max              =   2.8858086637124E-03
(PID.TID 0000.0001) %MON advcfl_vvel_max              =   2.0432928181074E-03
(PID.TID 0000.0001) %MON advcfl_wvel_max              =   5.5790383181184E-03
(PID.TID 0000.0001) %MON advcfl_W_hf_max              =   1.1158076636237E-02
(PID.TID 0000.0001) %MON pe_b_mean                    =   9.1103298837696E-06
(PID.TID 0000.0001) %MON ke_max                       =   1.4784736732597E-02
(PID.TID 0000.0001) %MON ke_mean                      =   5.3019898693318E-05
(PID.TID 0000.0001) %MON ke_vol                       =   3.6027486600263E+16
(PID.TID 0000.0001) %MON vort_r_min                   =  -3.5062184241231E-07
(PID.TID 0000.0001) %MON vort_r_max                   =   7.4831244600926E-07
(PID.TID 0000.0001) %MON vort_a_mean                  =   6.1944475191297E-05
(PID.TID 0000.0001) %MON vort_a_sd                    =   1.9198192134654E-05
(PID.TID 0000.0001) %MON vort_p_mean                  =   7.7881882182936E-05
(PID.TID 0000.0001) %MON vort_p_sd                    =   5.6367449137648E-05
(PID.TID 0000.0001) %MON surfExpan_theta_mean         =  -1.9850630733415E-06
(PID.TID 0000.0001) %MON surfExpan_salt_mean          =  -4.8278054239746E-07
(PID.TID 0000.0001) // =======================================================
(PID.TID 0000.0001) // End MONITOR dynamic field statistics
(PID.TID 0000.0001) // =======================================================
time,SST,SSS,fu,fv,Q,E-P,i0,i1,a,b =   5.0400E+04  0.0000E+00  0.0000E+00  0.0000E+00  0.0000E+00  0.0000E+00  0.0000E+00     1     2  6.6667E-01  3.3333E-01
time,fu0,fu1,fu =   5.0400E+04  0.0000E+00  0.0000E+00  0.0000E+00  6.666666666666666E-01  3.333333333333334E-01
 cg2d: Sum(rhs),rhsMax =  -2.04281036531029E-14  5.77956526127015E-01
(PID.TID 0000.0001)                    cg2d_init_res =    1.56306332698047E-01
(PID.TID 0000.0001)                       cg2d_iters =    46
(PID.TID 0000.0001)                         cg2d_res =    6.18809625440599E-14
(PID.TID 0000.0001) // =======================================================
(PID.TID 0000.0001) // Begin MONITOR dynamic field statistics
(PID.TID 0000.0001) // =======================================================
(PID.TID 0000.0001) %MON time_tsnumber                =                     9
(PID.TID 0000.0001) %MON time_secondsf                =   5.4000000000000E+04
(PID.TID 0000.0001) %MON dynstat_eta_max              =   1.5757371852432E-01
(PID.TID 0000.0001) %MON dynstat_eta_min              =  -2.3627632171405E-01
(PID.TID 0000.0001) %MON dynstat_eta_mean             =   6.0664646533167E-17
(PID.TID 0000.0001) %MON dynstat_eta_sd               =   8.0241779621103E-02
(PID.TID 0000.0001) %MON dynstat_eta_del2             =   4.6097272801589E-03
(PID.TID 0000.0001) %MON dynstat_uvel_max             =   9.4734070124250E-02
(PID.TID 0000.0001) %MON dynstat_uvel_min             =  -1.8182141707520E-01
(PID.TID 0000.0001) %MON dynstat_uvel_mean            =   4.0525451085213E-04
(PID.TID 0000.0001) %MON dynstat_uvel_sd              =   8.7446565007242E-03
(PID.TID 0000.0001) %MON dynstat_uvel_del2            =   3.2466843405409E-03
(PID.TID 0000.0001) %MON dynstat_vvel_max             =   6.1598954863888E-02
(PID.TID 0000.0001) %MON dynstat_vvel_min             =  -1.2372421807774E-01
(PID.TID 0000.0001) %MON dynstat_vvel_mean            =   2.5727206294046E-04
(PID.TID 0000.0001) %MON dynstat_vvel_sd              =   7.2817953324044E-03
(PID.TID 0000.0001) %MON dynstat_vvel_del2            =   2.3273736392408E-03
(PID.TID 0000.0001) %MON dynstat_wvel_max             =   1.4562806530872E-04
(PID.TID 0000.0001) %MON dynstat_wvel_min             =  -1.6669426954272E-04
(PID.TID 0000.0001) %MON dynstat_wvel_mean            =   2.8136967980836E-23
(PID.TID 0000.0001) %MON dynstat_wvel_sd              =   3.5411798391199E-05
(PID.TID 0000.0001) %MON dynstat_wvel_del2            =   7.8083723682340E-06
(PID.TID 0000.0001) %MON dynstat_theta_max            =   2.6095218439249E+01
(PID.TID 0000.0001) %MON dynstat_theta_min            =   1.8064508967732E+00
(PID.TID 0000.0001) %MON dynstat_theta_mean           =   5.4785378851523E+00
(PID.TID 0000.0001) %MON dynstat_theta_sd             =   4.5928118660247E+00
(PID.TID 0000.0001) %MON dynstat_theta_del2           =   5.0707402309387E-02
(PID.TID 0000.0001) %MON dynstat_salt_max             =   3.7402302817935E+01
(PID.TID 0000.0001) %MON dynstat_salt_min             =   3.4726799229148E+01
(PID.TID 0000.0001) %MON dynstat_salt_mean            =   3.5157564475805E+01
(PID.TID 0000.0001) %MON dynstat_salt_sd              =   4.1378953679857E-01
(PID.TID 0000.0001) %MON dynstat_salt_del2            =   1.2630629643355E-02
(PID.TID 0000.0001) %MON extforcing_qnet_max          =   4.0802118937174E+01
(PID.TID 0000.0001) %MON extforcing_qnet_min          =  -1.6719363403320E+02
(PID.TID 0000.0001) %MON extforcing_qnet_mean         =  -7.8480051020742E+01
(PID.TID 0000.0001) %MON extforcing_qnet_sd           =   5.1740364754944E+01
(PID.TID 0000.0001) %MON extforcing_qnet_del2         =   8.0758395891863E+00
(PID.TID 0000.0001) %MON extforcing_qsw_max           =  -1.4420261128743E+02
(PID.TID 0000.0001) %MON extforcing_qsw_min           =  -3.1632424926758E+02
(PID.TID 0000.0001) %MON extforcing_qsw_mean          =  -2.4846359410256E+02
(PID.TID 0000.0001) %MON extforcing_qsw_sd            =   4.2124756076541E+01
(PID.TID 0000.0001) %MON extforcing_qsw_del2          =   5.9065190207195E+00
(PID.TID 0000.0001) %MON extforcing_empmr_max         =   6.6803769035081E-08
(PID.TID 0000.0001) %MON extforcing_empmr_min         =   1.3303713982301E-08
(PID.TID 0000.0001) %MON extforcing_empmr_mean        =   3.9865299977974E-08
(PID.TID 0000.0001) %MON extforcing_empmr_sd          =   1.1817785949413E-08
(PID.TID 0000.0001) %MON extforcing_empmr_del2        =   2.2625426276173E-09
(PID.TID 0000.0001) %MON extforcing_fu_max            =   2.4817906816800E-01
(PID.TID 0000.0001) %MON extforcing_fu_min            =  -1.1713959276676E-01
(PID.TID 0000.0001) %MON extforcing_fu_mean           =  -2.2741078378586E-02
(PID.TID 0000.0001) %MON extforcing_fu_sd             =   4.0148196026649E-02
(PID.TID 0000.0001) %MON extforcing_fu_del2           =   5.4738959253362E-03
(PID.TID 0000.0001) %MON extforcing_fv_max            =   2.8622239828110E-02
(PID.TID 0000.0001) %MON extforcing_fv_min            =  -8.4621496498585E-02
(PID.TID 0000.0001) %MON extforcing_fv_mean           =  -2.6547886771423E-02
(PID.TID 0000.0001) %MON extforcing_fv_sd             =   2.4912487396317E-02
(PID.TID 0000.0001) %MON extforcing_fv_del2           =   3.6429466318672E-03
(PID.TID 0000.0001) %MON advcfl_uvel_max              =   3.0475929855194E-03
(PID.TID 0000.0001) %MON advcfl_vvel_max              =   2.0031359395509E-03
(PID.TID 0000.0001) %MON advcfl_wvel_max              =   5.4010843924852E-03
(PID.TID 0000.0001) %MON advcfl_W_hf_max              =   1.0802168784970E-02
(PID.TID 0000.0001) %MON pe_b_mean                    =   7.7612775017911E-06
(PID.TID 0000.0001) %MON ke_max                       =   1.6585410039084E-02
(PID.TID 0000.0001) %MON ke_mean                      =   5.7825985313790E-05
(PID.TID 0000.0001) %MON ke_vol                       =   3.6027486600263E+16
(PID.TID 0000.0001) %MON vort_r_min                   =  -3.6988377561290E-07
(PID.TID 0000.0001) %MON vort_r_max                   =   7.8721813799666E-07
(PID.TID 0000.0001) %MON vort_a_mean                  =   6.1944475191297E-05
(PID.TID 0000.0001) %MON vort_a_sd                    =   1.9198054553298E-05
(PID.TID 0000.0001) %MON vort_p_mean                  =   7.7881882182936E-05
(PID.TID 0000.0001) %MON vort_p_sd                    =   5.6367283298499E-05
(PID.TID 0000.0001) %MON surfExpan_theta_mean         =  -3.4282498308191E-06
(PID.TID 0000.0001) %MON surfExpan_salt_mean          =  -1.4223198969516E-07
(PID.TID 0000.0001) // =======================================================
(PID.TID 0000.0001) // End MONITOR dynamic field statistics
(PID.TID 0000.0001) // =======================================================
time,SST,SSS,fu,fv,Q,E-P,i0,i1,a,b =   5.4000E+04  0.0000E+00  0.0000E+00  0.0000E+00  0.0000E+00  0.0000E+00  0.0000E+00     1     2  7.5000E-01  2.5000E-01
time,fu0,fu1,fu =   5.4000E+04  0.0000E+00  0.0000E+00  0.0000E+00  7.500000000000000E-01  2.500000000000000E-01
 cg2d: Sum(rhs),rhsMax =  -8.88178419700125E-15  5.63257302732846E-01
(PID.TID 0000.0001)                    cg2d_init_res =    1.44645357483774E-01
(PID.TID 0000.0001)                       cg2d_iters =    46
(PID.TID 0000.0001)                         cg2d_res =    8.83093219343617E-14
(PID.TID 0000.0001) // =======================================================
(PID.TID 0000.0001) // Begin MONITOR dynamic field statistics
(PID.TID 0000.0001) // =======================================================
(PID.TID 0000.0001) %MON time_tsnumber                =                    10
(PID.TID 0000.0001) %MON time_secondsf                =   5.7600000000000E+04
(PID.TID 0000.0001) %MON dynstat_eta_max              =   1.5079363045291E-01
(PID.TID 0000.0001) %MON dynstat_eta_min              =  -2.2243263081613E-01
(PID.TID 0000.0001) %MON dynstat_eta_mean             =   4.4119742933212E-17
(PID.TID 0000.0001) %MON dynstat_eta_sd               =   7.4949871335721E-02
(PID.TID 0000.0001) %MON dynstat_eta_del2             =   4.5693331402886E-03
(PID.TID 0000.0001) %MON dynstat_uvel_max             =   6.9217364415993E-02
(PID.TID 0000.0001) %MON dynstat_uvel_min             =  -1.9159267556841E-01
(PID.TID 0000.0001) %MON dynstat_uvel_mean            =   2.2123188500553E-04
(PID.TID 0000.0001) %MON dynstat_uvel_sd              =   9.1720295048791E-03
(PID.TID 0000.0001) %MON dynstat_uvel_del2            =   3.4444089818123E-03
(PID.TID 0000.0001) %MON dynstat_vvel_max             =   6.8875057040554E-02
(PID.TID 0000.0001) %MON dynstat_vvel_min             =  -1.2587468472352E-01
(PID.TID 0000.0001) %MON dynstat_vvel_mean            =   4.1695935029598E-04
(PID.TID 0000.0001) %MON dynstat_vvel_sd              =   7.2970559920186E-03
(PID.TID 0000.0001) %MON dynstat_vvel_del2            =   2.2005594314180E-03
(PID.TID 0000.0001) %MON dynstat_wvel_max             =   1.4994091536361E-04
(PID.TID 0000.0001) %MON dynstat_wvel_min             =  -1.6350851213700E-04
(PID.TID 0000.0001) %MON dynstat_wvel_mean            =   5.9087632759755E-22
(PID.TID 0000.0001) %MON dynstat_wvel_sd              =   3.4339991889096E-05
(PID.TID 0000.0001) %MON dynstat_wvel_del2            =   7.2723175580538E-06
(PID.TID 0000.0001) %MON dynstat_theta_max            =   2.6102081647933E+01
(PID.TID 0000.0001) %MON dynstat_theta_min            =   1.8064529061830E+00
(PID.TID 0000.0001) %MON dynstat_theta_mean           =   5.4785587106488E+00
(PID.TID 0000.0001) %MON dynstat_theta_sd             =   4.5928822386830E+00
(PID.TID 0000.0001) %MON dynstat_theta_del2           =   5.0719110595141E-02
(PID.TID 0000.0001) %MON dynstat_salt_max             =   3.7402601293993E+01
(PID.TID 0000.0001) %MON dynstat_salt_min             =   3.4726799930613E+01
(PID.TID 0000.0001) %MON dynstat_salt_mean            =   3.5157565725544E+01
(PID.TID 0000.0001) %MON dynstat_salt_sd              =   4.1379270500056E-01
(PID.TID 0000.0001) %MON dynstat_salt_del2            =   1.2632469797982E-02
(PID.TID 0000.0001) %MON extforcing_qnet_max          =   4.3620079040527E+01
(PID.TID 0000.0001) %MON extforcing_qnet_min          =  -1.6585078811646E+02
(PID.TID 0000.0001) %MON extforcing_qnet_mean         =  -7.7511853773026E+01
(PID.TID 0000.0001) %MON extforcing_qnet_sd           =   5.1823890423082E+01
(PID.TID 0000.0001) %MON extforcing_qnet_del2         =   8.0811202937159E+00
(PID.TID 0000.0001) %MON extforcing_qsw_max           =  -1.4178676986694E+02
(PID.TID 0000.0001) %MON extforcing_qsw_min           =  -3.1691908264160E+02
(PID.TID 0000.0001) %MON extforcing_qsw_mean          =  -2.4874319379438E+02
(PID.TID 0000.0001) %MON extforcing_qsw_sd            =   4.2339446866167E+01
(PID.TID 0000.0001) %MON extforcing_qsw_del2          =   5.9116569951250E+00
(PID.TID 0000.0001) %MON extforcing_empmr_max         =   6.7276618054279E-08
(PID.TID 0000.0001) %MON extforcing_empmr_min         =   1.3453456348955E-08
(PID.TID 0000.0001) %MON extforcing_empmr_mean        =   4.0254737413567E-08
(PID.TID 0000.0001) %MON extforcing_empmr_sd          =   1.1826618274907E-08
(PID.TID 0000.0001) %MON extforcing_empmr_del2        =   2.2698806375834E-09
(PID.TID 0000.0001) %MON extforcing_fu_max            =   2.5664262473583E-01
(PID.TID 0000.0001) %MON extforcing_fu_min            =  -1.1803933046758E-01
(PID.TID 0000.0001) %MON extforcing_fu_mean           =  -2.2912097589947E-02
(PID.TID 0000.0001) %MON extforcing_fu_sd             =   4.0480447437801E-02
(PID.TID 0000.0001) %MON extforcing_fu_del2           =   5.5709419634695E-03
(PID.TID 0000.0001) %MON extforcing_fv_max            =   3.0108646489680E-02
(PID.TID 0000.0001) %MON extforcing_fv_min            =  -8.6464884690940E-02
(PID.TID 0000.0001) %MON extforcing_fv_mean           =  -2.6763326979715E-02
(PID.TID 0000.0001) %MON extforcing_fv_sd             =   2.5101839265298E-02
(PID.TID 0000.0001) %MON extforcing_fv_del2           =   3.7506303863969E-03
(PID.TID 0000.0001) %MON advcfl_uvel_max              =   3.2436821572609E-03
(PID.TID 0000.0001) %MON advcfl_vvel_max              =   2.0379527045456E-03
(PID.TID 0000.0001) %MON advcfl_wvel_max              =   4.9018788030925E-03
(PID.TID 0000.0001) %MON advcfl_W_hf_max              =   9.8037576061850E-03
(PID.TID 0000.0001) %MON pe_b_mean                    =   6.7713286191542E-06
(PID.TID 0000.0001) %MON ke_max                       =   1.8088115740974E-02
(PID.TID 0000.0001) %MON ke_mean                      =   6.1366878196641E-05
(PID.TID 0000.0001) %MON ke_vol                       =   3.6027486600263E+16
(PID.TID 0000.0001) %MON vort_r_min                   =  -3.8000491732935E-07
(PID.TID 0000.0001) %MON vort_r_max                   =   8.1652130818040E-07
(PID.TID 0000.0001) %MON vort_a_mean                  =   6.1944475191297E-05
(PID.TID 0000.0001) %MON vort_a_sd                    =   1.9197896081351E-05
(PID.TID 0000.0001) %MON vort_p_mean                  =   7.7881882182936E-05
(PID.TID 0000.0001) %MON vort_p_sd                    =   5.6366822636765E-05
(PID.TID 0000.0001) %MON surfExpan_theta_mean         =  -3.8406917010847E-06
(PID.TID 0000.0001) %MON surfExpan_salt_mean          =   1.3191471373335E-07
(PID.TID 0000.0001) // =======================================================
(PID.TID 0000.0001) // End MONITOR dynamic field statistics
(PID.TID 0000.0001) // =======================================================
time,SST,SSS,fu,fv,Q,E-P,i0,i1,a,b =   5.7600E+04  0.0000E+00  0.0000E+00  0.0000E+00  0.0000E+00  0.0000E+00  0.0000E+00     1     2  8.3333E-01  1.6667E-01
time,fu0,fu1,fu =   5.7600E+04  0.0000E+00  0.0000E+00  0.0000E+00  8.333333333333334E-01  1.666666666666666E-01
 cg2d: Sum(rhs),rhsMax =  -9.76996261670138E-15  5.52256128031470E-01
(PID.TID 0000.0001)                    cg2d_init_res =    1.38278665439781E-01
(PID.TID 0000.0001)                       cg2d_iters =    45
(PID.TID 0000.0001)                         cg2d_res =    7.06973612629237E-14
(PID.TID 0000.0001) // =======================================================
(PID.TID 0000.0001) // Begin MONITOR dynamic field statistics
(PID.TID 0000.0001) // =======================================================
(PID.TID 0000.0001) %MON time_tsnumber                =                    11
(PID.TID 0000.0001) %MON time_secondsf                =   6.1200000000000E+04
(PID.TID 0000.0001) %MON dynstat_eta_max              =   1.4688217901666E-01
(PID.TID 0000.0001) %MON dynstat_eta_min              =  -2.1251800217283E-01
(PID.TID 0000.0001) %MON dynstat_eta_mean             =   1.6544903599955E-17
(PID.TID 0000.0001) %MON dynstat_eta_sd               =   7.1858650897429E-02
(PID.TID 0000.0001) %MON dynstat_eta_del2             =   4.5420362257394E-03
(PID.TID 0000.0001) %MON dynstat_uvel_max             =   4.8753778819270E-02
(PID.TID 0000.0001) %MON dynstat_uvel_min             =  -2.0225754545260E-01
(PID.TID 0000.0001) %MON dynstat_uvel_mean            =   6.2697633597893E-05
(PID.TID 0000.0001) %MON dynstat_uvel_sd              =   9.4761615886043E-03
(PID.TID 0000.0001) %MON dynstat_uvel_del2            =   3.5600007015059E-03
(PID.TID 0000.0001) %MON dynstat_vvel_max             =   7.3981567195607E-02
(PID.TID 0000.0001) %MON dynstat_vvel_min             =  -1.3194039109124E-01
(PID.TID 0000.0001) %MON dynstat_vvel_mean            =   4.2420072681326E-04
(PID.TID 0000.0001) %MON dynstat_vvel_sd              =   7.2596126272526E-03
(PID.TID 0000.0001) %MON dynstat_vvel_del2            =   2.1304860754219E-03
(PID.TID 0000.0001) %MON dynstat_wvel_max             =   1.5170809285033E-04
(PID.TID 0000.0001) %MON dynstat_wvel_min             =  -1.5549558509792E-04
(PID.TID 0000.0001) %MON dynstat_wvel_mean            =   1.6319441428885E-21
(PID.TID 0000.0001) %MON dynstat_wvel_sd              =   3.3374376579540E-05
(PID.TID 0000.0001) %MON dynstat_wvel_del2            =   6.8678389410358E-06
(PID.TID 0000.0001) %MON dynstat_theta_max            =   2.6108935196024E+01
(PID.TID 0000.0001) %MON dynstat_theta_min            =   1.8064548070524E+00
(PID.TID 0000.0001) %MON dynstat_theta_mean           =   5.4785791429683E+00
(PID.TID 0000.0001) %MON dynstat_theta_sd             =   4.5929512877766E+00
(PID.TID 0000.0001) %MON dynstat_theta_del2           =   5.0743107640101E-02
(PID.TID 0000.0001) %MON dynstat_salt_max             =   3.7402918022664E+01
(PID.TID 0000.0001) %MON dynstat_salt_min             =   3.4726801122118E+01
(PID.TID 0000.0001) %MON dynstat_salt_mean            =   3.5157566778531E+01
(PID.TID 0000.0001) %MON dynstat_salt_sd              =   4.1379528880091E-01
(PID.TID 0000.0001) %MON dynstat_salt_del2            =   1.2634933037398E-02
(PID.TID 0000.0001) %MON extforcing_qnet_max          =   4.6438039143880E+01
(PID.TID 0000.0001) %MON extforcing_qnet_min          =  -1.6450794219971E+02
(PID.TID 0000.0001) %MON extforcing_qnet_mean         =  -7.6543656525311E+01
(PID.TID 0000.0001) %MON extforcing_qnet_sd           =   5.1937624405908E+01
(PID.TID 0000.0001) %MON extforcing_qnet_del2         =   8.0963423248191E+00
(PID.TID 0000.0001) %MON extforcing_qsw_max           =  -1.3937092844645E+02
(PID.TID 0000.0001) %MON extforcing_qsw_min           =  -3.1751391601562E+02
(PID.TID 0000.0001) %MON extforcing_qsw_mean          =  -2.4902279348619E+02
(PID.TID 0000.0001) %MON extforcing_qsw_sd            =   4.2575600204769E+01
(PID.TID 0000.0001) %MON extforcing_qsw_del2          =   5.9252104109340E+00
(PID.TID 0000.0001) %MON extforcing_empmr_max         =   6.7749467073478E-08
(PID.TID 0000.0001) %MON extforcing_empmr_min         =   1.3603198715610E-08
(PID.TID 0000.0001) %MON extforcing_empmr_mean        =   4.0644174849161E-08
(PID.TID 0000.0001) %MON extforcing_empmr_sd          =   1.1845891196021E-08
(PID.TID 0000.0001) %MON extforcing_empmr_del2        =   2.2809799555451E-09
(PID.TID 0000.0001) %MON extforcing_fu_max            =   2.6510618130366E-01
(PID.TID 0000.0001) %MON extforcing_fu_min            =  -1.1893906816840E-01
(PID.TID 0000.0001) %MON extforcing_fu_mean           =  -2.3083116801307E-02
(PID.TID 0000.0001) %MON extforcing_fu_sd             =   4.0833294543767E-02
(PID.TID 0000.0001) %MON extforcing_fu_del2           =   5.6888889011610E-03
(PID.TID 0000.0001) %MON extforcing_fv_max            =   3.1595053151250E-02
(PID.TID 0000.0001) %MON extforcing_fv_min            =  -9.0216387684147E-02
(PID.TID 0000.0001) %MON extforcing_fv_mean           =  -2.6978767188007E-02
(PID.TID 0000.0001) %MON extforcing_fv_sd             =   2.5327567482195E-02
(PID.TID 0000.0001) %MON extforcing_fv_del2           =   3.8635473532502E-03
(PID.TID 0000.0001) %MON advcfl_uvel_max              =   3.4242394152575E-03
(PID.TID 0000.0001) %MON advcfl_vvel_max              =   2.1361584932968E-03
(PID.TID 0000.0001) %MON advcfl_wvel_max              =   4.4913449848696E-03
(PID.TID 0000.0001) %MON advcfl_W_hf_max              =   8.4771277402939E-03
(PID.TID 0000.0001) %MON pe_b_mean                    =   6.2242958396950E-06
(PID.TID 0000.0001) %MON ke_max                       =   1.9370850887476E-02
(PID.TID 0000.0001) %MON ke_mean                      =   6.3663598759229E-05
(PID.TID 0000.0001) %MON ke_vol                       =   3.6027486600263E+16
(PID.TID 0000.0001) %MON vort_r_min                   =  -3.8062664957919E-07
(PID.TID 0000.0001) %MON vort_r_max                   =   8.3396361657324E-07
(PID.TID 0000.0001) %MON vort_a_mean                  =   6.1944475191297E-05
(PID.TID 0000.0001) %MON vort_a_sd                    =   1.9197759781020E-05
(PID.TID 0000.0001) %MON vort_p_mean                  =   7.7881882182936E-05
(PID.TID 0000.0001) %MON vort_p_sd                    =   5.6366230924406E-05
(PID.TID 0000.0001) %MON surfExpan_theta_mean         =  -3.2804264378396E-06
(PID.TID 0000.0001) %MON surfExpan_salt_mean          =   2.6798583891258E-07
(PID.TID 0000.0001) // =======================================================
(PID.TID 0000.0001) // End MONITOR dynamic field statistics
(PID.TID 0000.0001) // =======================================================
time,SST,SSS,fu,fv,Q,E-P,i0,i1,a,b =   6.1200E+04  0.0000E+00  0.0000E+00  0.0000E+00  0.0000E+00  0.0000E+00  0.0000E+00     1     2  9.1667E-01  8.3333E-02
time,fu0,fu1,fu =   6.1200E+04  0.0000E+00  0.0000E+00  0.0000E+00  9.166666666666666E-01  8.333333333333337E-02
 cg2d: Sum(rhs),rhsMax =  -3.55271367880050E-15  5.45298001165323E-01
(PID.TID 0000.0001)                    cg2d_init_res =    1.16565788955146E-01
(PID.TID 0000.0001)                       cg2d_iters =    45
(PID.TID 0000.0001)                         cg2d_res =    6.83063960931831E-14
(PID.TID 0000.0001) // =======================================================
(PID.TID 0000.0001) // Begin MONITOR dynamic field statistics
(PID.TID 0000.0001) // =======================================================
(PID.TID 0000.0001) %MON time_tsnumber                =                    12
(PID.TID 0000.0001) %MON time_secondsf                =   6.4800000000000E+04
(PID.TID 0000.0001) %MON dynstat_eta_max              =   1.4574302880623E-01
(PID.TID 0000.0001) %MON dynstat_eta_min              =  -2.0704057724615E-01
(PID.TID 0000.0001) %MON dynstat_eta_mean             =  -5.5149678666516E-18
(PID.TID 0000.0001) %MON dynstat_eta_sd               =   7.0998862602818E-02
(PID.TID 0000.0001) %MON dynstat_eta_del2             =   4.5374215753249E-03
(PID.TID 0000.0001) %MON dynstat_uvel_max             =   4.6111582021329E-02
(PID.TID 0000.0001) %MON dynstat_uvel_min             =  -2.0998523556745E-01
(PID.TID 0000.0001) %MON dynstat_uvel_mean            =  -5.1348918580659E-05
(PID.TID 0000.0001) %MON dynstat_uvel_sd              =   9.6655552158011E-03
(PID.TID 0000.0001) %MON dynstat_uvel_del2            =   3.5835291437939E-03
(PID.TID 0000.0001) %MON dynstat_vvel_max             =   7.6773775568508E-02
(PID.TID 0000.0001) %MON dynstat_vvel_min             =  -1.3654734844060E-01
(PID.TID 0000.0001) %MON dynstat_vvel_mean            =   3.1231474775055E-04
(PID.TID 0000.0001) %MON dynstat_vvel_sd              =   7.1862783109042E-03
(PID.TID 0000.0001) %MON dynstat_vvel_del2            =   2.1424388605984E-03
(PID.TID 0000.0001) %MON dynstat_wvel_max             =   1.5090555821399E-04
(PID.TID 0000.0001) %MON dynstat_wvel_min             =  -1.5152352519053E-04
(PID.TID 0000.0001) %MON dynstat_wvel_mean            =   1.6882180788501E-22
(PID.TID 0000.0001) %MON dynstat_wvel_sd              =   3.2680868371074E-05
(PID.TID 0000.0001) %MON dynstat_wvel_del2            =   6.7347575184383E-06
(PID.TID 0000.0001) %MON dynstat_theta_max            =   2.6115712327210E+01
(PID.TID 0000.0001) %MON dynstat_theta_min            =   1.8064566492904E+00
(PID.TID 0000.0001) %MON dynstat_theta_mean           =   5.4785983523057E+00
(PID.TID 0000.0001) %MON dynstat_theta_sd             =   4.5930158625461E+00
(PID.TID 0000.0001) %MON dynstat_theta_del2           =   5.0779455847056E-02
(PID.TID 0000.0001) %MON dynstat_salt_max             =   3.7403252839449E+01
(PID.TID 0000.0001) %MON dynstat_salt_min             =   3.4726803102633E+01
(PID.TID 0000.0001) %MON dynstat_salt_mean            =   3.5157567795032E+01
(PID.TID 0000.0001) %MON dynstat_salt_sd              =   4.1379770444628E-01
(PID.TID 0000.0001) %MON dynstat_salt_del2            =   1.2638774409485E-02
(PID.TID 0000.0001) %MON extforcing_qnet_max          =   4.9255999247233E+01
(PID.TID 0000.0001) %MON extforcing_qnet_min          =  -1.6316509628296E+02
(PID.TID 0000.0001) %MON extforcing_qnet_mean         =  -7.5575459277595E+01
(PID.TID 0000.0001) %MON extforcing_qnet_sd           =   5.2081368799327E+01
(PID.TID 0000.0001) %MON extforcing_qnet_del2         =   8.1172915977014E+00
(PID.TID 0000.0001) %MON extforcing_qsw_max           =  -1.3695508702596E+02
(PID.TID 0000.0001) %MON extforcing_qsw_min           =  -3.1810874938965E+02
(PID.TID 0000.0001) %MON extforcing_qsw_mean          =  -2.4930239317800E+02
(PID.TID 0000.0001) %MON extforcing_qsw_sd            =   4.2832861101004E+01
(PID.TID 0000.0001) %MON extforcing_qsw_del2          =   5.9467413202295E+00
(PID.TID 0000.0001) %MON extforcing_empmr_max         =   6.8222316092677E-08
(PID.TID 0000.0001) %MON extforcing_empmr_min         =   1.3752941082264E-08
(PID.TID 0000.0001) %MON extforcing_empmr_mean        =   4.1033612284755E-08
(PID.TID 0000.0001) %MON extforcing_empmr_sd          =   1.1875553880513E-08
(PID.TID 0000.0001) %MON extforcing_empmr_del2        =   2.2933242356770E-09
(PID.TID 0000.0001) %MON extforcing_fu_max            =   2.7356973787149E-01
(PID.TID 0000.0001) %MON extforcing_fu_min            =  -1.1983880586922E-01
(PID.TID 0000.0001) %MON extforcing_fu_mean           =  -2.3254136012668E-02
(PID.TID 0000.0001) %MON extforcing_fu_sd             =   4.1206208267623E-02
(PID.TID 0000.0001) %MON extforcing_fu_del2           =   5.8208457092275E-03
(PID.TID 0000.0001) %MON extforcing_fv_max            =   3.3081459812820E-02
(PID.TID 0000.0001) %MON extforcing_fv_min            =  -9.3967890677353E-02
(PID.TID 0000.0001) %MON extforcing_fv_mean           =  -2.7194207396298E-02
(PID.TID 0000.0001) %MON extforcing_fv_sd             =   2.5588709394274E-02
(PID.TID 0000.0001) %MON extforcing_fv_del2           =   3.9853133684432E-03
(PID.TID 0000.0001) %MON advcfl_uvel_max              =   3.5550699413620E-03
(PID.TID 0000.0001) %MON advcfl_vvel_max              =   2.2107466538190E-03
(PID.TID 0000.0001) %MON advcfl_wvel_max              =   4.3471065632920E-03
(PID.TID 0000.0001) %MON advcfl_W_hf_max              =   7.0433836848805E-03
(PID.TID 0000.0001) %MON pe_b_mean                    =   6.0762395973820E-06
(PID.TID 0000.0001) %MON ke_max                       =   2.1297460913640E-02
(PID.TID 0000.0001) %MON ke_mean                      =   6.4793867837377E-05
(PID.TID 0000.0001) %MON ke_vol                       =   3.6027486600263E+16
(PID.TID 0000.0001) %MON vort_r_min                   =  -3.8667430261727E-07
(PID.TID 0000.0001) %MON vort_r_max                   =   8.3637175263576E-07
(PID.TID 0000.0001) %MON vort_a_mean                  =   6.1944475191297E-05
(PID.TID 0000.0001) %MON vort_a_sd                    =   1.9197661365015E-05
(PID.TID 0000.0001) %MON vort_p_mean                  =   7.7881882182936E-05
(PID.TID 0000.0001) %MON vort_p_sd                    =   5.6365658384440E-05
(PID.TID 0000.0001) %MON surfExpan_theta_mean         =  -2.0601320233568E-06
(PID.TID 0000.0001) %MON surfExpan_salt_mean          =   2.6741144171438E-07
(PID.TID 0000.0001) // =======================================================
(PID.TID 0000.0001) // End MONITOR dynamic field statistics
(PID.TID 0000.0001) // =======================================================
S/R EXTERNAL_FIELDS_LOAD: Reading new data:    2    3        12  6.480000000000E+04
(PID.TID 0000.0001)  MDS_READ_FIELD: opening global file: kf_tx
(PID.TID 0000.0001)  MDS_READ_FIELD: opening global file: kf_tx
(PID.TID 0000.0001)  MDS_READ_FIELD: opening global file: kf_ty
(PID.TID 0000.0001)  MDS_READ_FIELD: opening global file: kf_ty
(PID.TID 0000.0001)  MDS_READ_FIELD: opening global file: kf_qnet
(PID.TID 0000.0001)  MDS_READ_FIELD: opening global file: kf_qnet
(PID.TID 0000.0001)  MDS_READ_FIELD: opening global file: kf_empmr
(PID.TID 0000.0001)  MDS_READ_FIELD: opening global file: kf_empmr
(PID.TID 0000.0001)  MDS_READ_FIELD: opening global file: kf_sst
(PID.TID 0000.0001)  MDS_READ_FIELD: opening global file: kf_sst
(PID.TID 0000.0001)  MDS_READ_FIELD: opening global file: kf_sss
(PID.TID 0000.0001)  MDS_READ_FIELD: opening global file: kf_sss
(PID.TID 0000.0001)  MDS_READ_FIELD: opening global file: kf_sw
(PID.TID 0000.0001)  MDS_READ_FIELD: opening global file: kf_sw
time,SST,SSS,fu,fv,Q,E-P,i0,i1,a,b =   6.4800E+04  0.0000E+00  0.0000E+00  0.0000E+00  0.0000E+00  0.0000E+00  0.0000E+00     2     3  0.0000E+00  1.0000E+00
time,fu0,fu1,fu =   6.4800E+04  0.0000E+00  0.0000E+00  0.0000E+00  0.000000000000000E+00  1.000000000000000E+00
 cg2d: Sum(rhs),rhsMax =   3.55271367880050E-15  5.42106080046663E-01
(PID.TID 0000.0001)                    cg2d_init_res =    9.01764088624139E-02
(PID.TID 0000.0001)                       cg2d_iters =    45
(PID.TID 0000.0001)                         cg2d_res =    8.97008166567578E-14
(PID.TID 0000.0001) // =======================================================
(PID.TID 0000.0001) // Begin MONITOR dynamic field statistics
(PID.TID 0000.0001) // =======================================================
(PID.TID 0000.0001) %MON time_tsnumber                =                    13
(PID.TID 0000.0001) %MON time_secondsf                =   6.8400000000000E+04
(PID.TID 0000.0001) %MON dynstat_eta_max              =   1.4671820797374E-01
(PID.TID 0000.0001) %MON dynstat_eta_min              =  -2.0578747274693E-01
(PID.TID 0000.0001) %MON dynstat_eta_mean             =   5.5149678666516E-18
(PID.TID 0000.0001) %MON dynstat_eta_sd               =   7.1731972186843E-02
(PID.TID 0000.0001) %MON dynstat_eta_del2             =   4.5531429454054E-03
(PID.TID 0000.0001) %MON dynstat_uvel_max             =   4.5572823185904E-02
(PID.TID 0000.0001) %MON dynstat_uvel_min             =  -2.1344112026317E-01
(PID.TID 0000.0001) %MON dynstat_uvel_mean            =  -1.2066110727605E-04
(PID.TID 0000.0001) %MON dynstat_uvel_sd              =   9.7462315618693E-03
(PID.TID 0000.0001) %MON dynstat_uvel_del2            =   3.5154718143614E-03
(PID.TID 0000.0001) %MON dynstat_vvel_max             =   7.7414971523838E-02
(PID.TID 0000.0001) %MON dynstat_vvel_min             =  -1.3955317393565E-01
(PID.TID 0000.0001) %MON dynstat_vvel_mean            =   1.4388371873706E-04
(PID.TID 0000.0001) %MON dynstat_vvel_sd              =   7.0824499955695E-03
(PID.TID 0000.0001) %MON dynstat_vvel_del2            =   2.2242506589686E-03
(PID.TID 0000.0001) %MON dynstat_wvel_max             =   1.4750788715558E-04
(PID.TID 0000.0001) %MON dynstat_wvel_min             =  -1.5893253660264E-04
(PID.TID 0000.0001) %MON dynstat_wvel_mean            =  -1.0129308473101E-21
(PID.TID 0000.0001) %MON dynstat_wvel_sd              =   3.2216163992903E-05
(PID.TID 0000.0001) %MON dynstat_wvel_del2            =   6.8165523371207E-06
(PID.TID 0000.0001) %MON dynstat_theta_max            =   2.6122368870974E+01
(PID.TID 0000.0001) %MON dynstat_theta_min            =   1.8064584952313E+00
(PID.TID 0000.0001) %MON dynstat_theta_mean           =   5.4786159207448E+00
(PID.TID 0000.0001) %MON dynstat_theta_sd             =   4.5930743520487E+00
(PID.TID 0000.0001) %MON dynstat_theta_del2           =   5.0829732812509E-02
(PID.TID 0000.0001) %MON dynstat_salt_max             =   3.7403603067319E+01
(PID.TID 0000.0001) %MON dynstat_salt_min             =   3.4726806065798E+01
(PID.TID 0000.0001) %MON dynstat_salt_mean            =   3.5157568895298E+01
(PID.TID 0000.0001) %MON dynstat_salt_sd              =   4.1380028717875E-01
(PID.TID 0000.0001) %MON dynstat_salt_del2            =   1.2642093126870E-02
(PID.TID 0000.0001) %MON extforcing_qnet_max          =   5.2073959350586E+01
(PID.TID 0000.0001) %MON extforcing_qnet_min          =  -1.6258977508545E+02
(PID.TID 0000.0001) %MON extforcing_qnet_mean         =  -7.4607262029879E+01
(PID.TID 0000.0001) %MON extforcing_qnet_sd           =   5.2254875943117E+01
(PID.TID 0000.0001) %MON extforcing_qnet_del2         =   8.1457465787239E+00
(PID.TID 0000.0001) %MON extforcing_qsw_max           =  -1.3453924560547E+02
(PID.TID 0000.0001) %MON extforcing_qsw_min           =  -3.1870358276367E+02
(PID.TID 0000.0001) %MON extforcing_qsw_mean          =  -2.4958199286982E+02
(PID.TID 0000.0001) %MON extforcing_qsw_sd            =   4.3110851683050E+01
(PID.TID 0000.0001) %MON extforcing_qsw_del2          =   5.9705705689679E+00
(PID.TID 0000.0001) %MON extforcing_empmr_max         =   6.8695165111876E-08
(PID.TID 0000.0001) %MON extforcing_empmr_min         =   1.3902683448919E-08
(PID.TID 0000.0001) %MON extforcing_empmr_mean        =   4.1423049720348E-08
(PID.TID 0000.0001) %MON extforcing_empmr_sd          =   1.1915528735367E-08
(PID.TID 0000.0001) %MON extforcing_empmr_del2        =   2.3068319624514E-09
(PID.TID 0000.0001) %MON extforcing_fu_max            =   2.8203329443932E-01
(PID.TID 0000.0001) %MON extforcing_fu_min            =  -1.2077324837446E-01
(PID.TID 0000.0001) %MON extforcing_fu_mean           =  -2.3425155224029E-02
(PID.TID 0000.0001) %MON extforcing_fu_sd             =   4.1598648947466E-02
(PID.TID 0000.0001) %MON extforcing_fu_del2           =   5.9590372116613E-03
(PID.TID 0000.0001) %MON extforcing_fv_max            =   3.4567866474390E-02
(PID.TID 0000.0001) %MON extforcing_fv_min            =  -9.7719393670559E-02
(PID.TID 0000.0001) %MON extforcing_fv_mean           =  -2.7409647604590E-02
(PID.TID 0000.0001) %MON extforcing_fv_sd             =   2.5884193172653E-02
(PID.TID 0000.0001) %MON extforcing_fv_del2           =   4.1131577552764E-03
(PID.TID 0000.0001) %MON advcfl_uvel_max              =   3.6135783968225E-03
(PID.TID 0000.0001) %MON advcfl_vvel_max              =   2.2594119609893E-03
(PID.TID 0000.0001) %MON advcfl_wvel_max              =   4.1581354955806E-03
(PID.TID 0000.0001) %MON advcfl_W_hf_max              =   6.0458178817429E-03
(PID.TID 0000.0001) %MON pe_b_mean                    =   6.2023697179095E-06
(PID.TID 0000.0001) %MON ke_max                       =   2.2862394286926E-02
(PID.TID 0000.0001) %MON ke_mean                      =   6.4819895386201E-05
(PID.TID 0000.0001) %MON ke_vol                       =   3.6027486600263E+16
(PID.TID 0000.0001) %MON vort_r_min                   =  -3.8994359467330E-07
(PID.TID 0000.0001) %MON vort_r_max                   =   8.2886986212107E-07
(PID.TID 0000.0001) %MON vort_a_mean                  =   6.1944475191297E-05
(PID.TID 0000.0001) %MON vort_a_sd                    =   1.9197600625194E-05
(PID.TID 0000.0001) %MON vort_p_mean                  =   7.7881882182936E-05
(PID.TID 0000.0001) %MON vort_p_sd                    =   5.6365229522479E-05
(PID.TID 0000.0001) %MON surfExpan_theta_mean         =  -6.2520560987569E-07
(PID.TID 0000.0001) %MON surfExpan_salt_mean          =   1.7918997029572E-07
(PID.TID 0000.0001) // =======================================================
(PID.TID 0000.0001) // End MONITOR dynamic field statistics
(PID.TID 0000.0001) // =======================================================
time,SST,SSS,fu,fv,Q,E-P,i0,i1,a,b =   6.8400E+04  0.0000E+00  0.0000E+00  0.0000E+00  0.0000E+00  0.0000E+00  0.0000E+00     2     3  8.3333E-02  9.1667E-01
time,fu0,fu1,fu =   6.8400E+04  0.0000E+00  0.0000E+00  0.0000E+00  8.333333333333333E-02  9.166666666666666E-01
 cg2d: Sum(rhs),rhsMax =  -7.10542735760100E-15  5.41934961991135E-01
(PID.TID 0000.0001)                    cg2d_init_res =    7.96145916265612E-02
(PID.TID 0000.0001)                       cg2d_iters =    45
(PID.TID 0000.0001)                         cg2d_res =    9.05845502792213E-14
(PID.TID 0000.0001) // =======================================================
(PID.TID 0000.0001) // Begin MONITOR dynamic field statistics
(PID.TID 0000.0001) // =======================================================
(PID.TID 0000.0001) %MON time_tsnumber                =                    14
(PID.TID 0000.0001) %MON time_secondsf                =   7.2000000000000E+04
(PID.TID 0000.0001) %MON dynstat_eta_max              =   1.4888181120537E-01
(PID.TID 0000.0001) %MON dynstat_eta_min              =  -2.0790915535498E-01
(PID.TID 0000.0001) %MON dynstat_eta_mean             =   0.0000000000000E+00
(PID.TID 0000.0001) %MON dynstat_eta_sd               =   7.3310251473942E-02
(PID.TID 0000.0001) %MON dynstat_eta_del2             =   4.5743182977782E-03
(PID.TID 0000.0001) %MON dynstat_uvel_max             =   4.3470965189891E-02
(PID.TID 0000.0001) %MON dynstat_uvel_min             =  -2.1477249937184E-01
(PID.TID 0000.0001) %MON dynstat_uvel_mean            =  -1.5278903839458E-04
(PID.TID 0000.0001) %MON dynstat_uvel_sd              =   9.7301965433656E-03
(PID.TID 0000.0001) %MON dynstat_uvel_del2            =   3.3607230748369E-03
(PID.TID 0000.0001) %MON dynstat_vvel_max             =   8.1052275108551E-02
(PID.TID 0000.0001) %MON dynstat_vvel_min             =  -1.4074264603872E-01
(PID.TID 0000.0001) %MON dynstat_vvel_mean            =  -1.7687734979304E-05
(PID.TID 0000.0001) %MON dynstat_vvel_sd              =   6.9468496981613E-03
(PID.TID 0000.0001) %MON dynstat_vvel_del2            =   2.3466783037483E-03
(PID.TID 0000.0001) %MON dynstat_wvel_max             =   1.4155548378822E-04
(PID.TID 0000.0001) %MON dynstat_wvel_min             =  -1.6486549057312E-04
(PID.TID 0000.0001) %MON dynstat_wvel_mean            =   4.5019148769337E-22
(PID.TID 0000.0001) %MON dynstat_wvel_sd              =   3.1773295793513E-05
(PID.TID 0000.0001) %MON dynstat_wvel_del2            =   6.9697860610793E-06
(PID.TID 0000.0001) %MON dynstat_theta_max            =   2.6128822203126E+01
(PID.TID 0000.0001) %MON dynstat_theta_min            =   1.8064604100805E+00
(PID.TID 0000.0001) %MON dynstat_theta_mean           =   5.4786318993987E+00
(PID.TID 0000.0001) %MON dynstat_theta_sd             =   4.5931269736457E+00
(PID.TID 0000.0001) %MON dynstat_theta_del2           =   5.0895070598400E-02
(PID.TID 0000.0001) %MON dynstat_salt_max             =   3.7403965459746E+01
(PID.TID 0000.0001) %MON dynstat_salt_min             =   3.4726810055940E+01
(PID.TID 0000.0001) %MON dynstat_salt_mean            =   3.5157570132571E+01
(PID.TID 0000.0001) %MON dynstat_salt_sd              =   4.1380320134714E-01
(PID.TID 0000.0001) %MON dynstat_salt_del2            =   1.2644850020713E-02
(PID.TID 0000.0001) %MON extforcing_qnet_max          =   5.1977971394857E+01
(PID.TID 0000.0001) %MON extforcing_qnet_min          =  -1.6385988362630E+02
(PID.TID 0000.0001) %MON extforcing_qnet_mean         =  -7.3651586729899E+01
(PID.TID 0000.0001) %MON extforcing_qnet_sd           =   5.1704387965704E+01
(PID.TID 0000.0001) %MON extforcing_qnet_del2         =   8.0395881186174E+00
(PID.TID 0000.0001) %MON extforcing_qsw_max           =  -1.3404340108236E+02
(PID.TID 0000.0001) %MON extforcing_qsw_min           =  -3.1842380015055E+02
(PID.TID 0000.0001) %MON extforcing_qsw_mean          =  -2.5003001626694E+02
(PID.TID 0000.0001) %MON extforcing_qsw_sd            =   4.2766618166345E+01
(PID.TID 0000.0001) %MON extforcing_qsw_del2          =   5.8008702815264E+00
(PID.TID 0000.0001) %MON extforcing_empmr_max         =   6.8516872175906E-08
(PID.TID 0000.0001) %MON extforcing_empmr_min         =   1.3987433877816E-08
(PID.TID 0000.0001) %MON extforcing_empmr_mean        =   4.1844406502945E-08
(PID.TID 0000.0001) %MON extforcing_empmr_sd          =   1.1818413227719E-08
(PID.TID 0000.0001) %MON extforcing_empmr_del2        =   2.2991704241985E-09
(PID.TID 0000.0001) %MON extforcing_fu_max            =   2.6923674469193E-01
(PID.TID 0000.0001) %MON extforcing_fu_min            =  -1.2179796956480E-01
(PID.TID 0000.0001) %MON extforcing_fu_mean           =  -2.3985715234303E-02
(PID.TID 0000.0001) %MON extforcing_fu_sd             =   4.1500103311858E-02
(PID.TID 0000.0001) %MON extforcing_fu_del2           =   5.8202692467127E-03
(PID.TID 0000.0001) %MON extforcing_fv_max            =   3.4120970716079E-02
(PID.TID 0000.0001) %MON extforcing_fv_min            =  -9.6915982042750E-02
(PID.TID 0000.0001) %MON extforcing_fv_mean           =  -2.8051764717067E-02
(PID.TID 0000.0001) %MON extforcing_fv_sd             =   2.6368102543959E-02
(PID.TID 0000.0001) %MON extforcing_fv_del2           =   4.1203340629194E-03
(PID.TID 0000.0001) %MON advcfl_uvel_max              =   3.6336979416304E-03
(PID.TID 0000.0001) %MON advcfl_vvel_max              =   2.2786699070549E-03
(PID.TID 0000.0001) %MON advcfl_wvel_max              =   3.9789536116839E-03
(PID.TID 0000.0001) %MON advcfl_W_hf_max              =   6.6156194774757E-03
(PID.TID 0000.0001) %MON pe_b_mean                    =   6.4783070202155E-06
(PID.TID 0000.0001) %MON ke_max                       =   2.3985740377575E-02
(PID.TID 0000.0001) %MON ke_mean                      =   6.3838652363556E-05
(PID.TID 0000.0001) %MON ke_vol                       =   3.6027486600263E+16
(PID.TID 0000.0001) %MON vort_r_min                   =  -4.4771985065160E-07
(PID.TID 0000.0001) %MON vort_r_max                   =   8.1679690876255E-07
(PID.TID 0000.0001) %MON vort_a_mean                  =   6.1944475191297E-05
(PID.TID 0000.0001) %MON vort_a_sd                    =   1.9197570743558E-05
(PID.TID 0000.0001) %MON vort_p_mean                  =   7.7881882182936E-05
(PID.TID 0000.0001) %MON vort_p_sd                    =   5.6365028540983E-05
(PID.TID 0000.0001) %MON surfExpan_theta_mean         =   6.0753735941255E-07
(PID.TID 0000.0001) %MON surfExpan_salt_mean          =   6.4653695463521E-08
(PID.TID 0000.0001) // =======================================================
(PID.TID 0000.0001) // End MONITOR dynamic field statistics
(PID.TID 0000.0001) // =======================================================
time,SST,SSS,fu,fv,Q,E-P,i0,i1,a,b =   7.2000E+04  0.0000E+00  0.0000E+00  0.0000E+00  0.0000E+00  0.0000E+00  0.0000E+00     2     3  1.6667E-01  8.3333E-01
time,fu0,fu1,fu =   7.2000E+04  0.0000E+00  0.0000E+00  0.0000E+00  1.666666666666667E-01  8.333333333333334E-01
 cg2d: Sum(rhs),rhsMax =   0.00000000000000E+00  5.43849110922273E-01
(PID.TID 0000.0001)                    cg2d_init_res =    8.29647444390792E-02
(PID.TID 0000.0001)                       cg2d_iters =    45
(PID.TID 0000.0001)                         cg2d_res =    6.64305538475534E-14
(PID.TID 0000.0001) // =======================================================
(PID.TID 0000.0001) // Begin MONITOR dynamic field statistics
(PID.TID 0000.0001) // =======================================================
(PID.TID 0000.0001) %MON time_tsnumber                =                    15
(PID.TID 0000.0001) %MON time_secondsf                =   7.5600000000000E+04
(PID.TID 0000.0001) %MON dynstat_eta_max              =   1.5127704537444E-01
(PID.TID 0000.0001) %MON dynstat_eta_min              =  -2.1224719653670E-01
(PID.TID 0000.0001) %MON dynstat_eta_mean             =  -3.8604775066561E-17
(PID.TID 0000.0001) %MON dynstat_eta_sd               =   7.5168486433960E-02
(PID.TID 0000.0001) %MON dynstat_eta_del2             =   4.6033701453038E-03
(PID.TID 0000.0001) %MON dynstat_uvel_max             =   3.9991066317364E-02
(PID.TID 0000.0001) %MON dynstat_uvel_min             =  -2.1879743908419E-01
(PID.TID 0000.0001) %MON dynstat_uvel_mean            =  -1.5543921563492E-04
(PID.TID 0000.0001) %MON dynstat_uvel_sd              =   9.6243034919397E-03
(PID.TID 0000.0001) %MON dynstat_uvel_del2            =   3.1422857779384E-03
(PID.TID 0000.0001) %MON dynstat_vvel_max             =   8.3990072664727E-02
(PID.TID 0000.0001) %MON dynstat_vvel_min             =  -1.3989320469550E-01
(PID.TID 0000.0001) %MON dynstat_vvel_mean            =  -1.2744740724790E-04
(PID.TID 0000.0001) %MON dynstat_vvel_sd              =   6.7765797540002E-03
(PID.TID 0000.0001) %MON dynstat_vvel_del2            =   2.4370476251401E-03
(PID.TID 0000.0001) %MON dynstat_wvel_max             =   1.3315465093876E-04
(PID.TID 0000.0001) %MON dynstat_wvel_min             =  -1.6931863315697E-04
(PID.TID 0000.0001) %MON dynstat_wvel_mean            =  -1.9133138226968E-21
(PID.TID 0000.0001) %MON dynstat_wvel_sd              =   3.1102745823889E-05
(PID.TID 0000.0001) %MON dynstat_wvel_del2            =   6.9693990132357E-06
(PID.TID 0000.0001) %MON dynstat_theta_max            =   2.6135111123989E+01
(PID.TID 0000.0001) %MON dynstat_theta_min            =   1.8064624590906E+00
(PID.TID 0000.0001) %MON dynstat_theta_mean           =   5.4786466869450E+00
(PID.TID 0000.0001) %MON dynstat_theta_sd             =   4.5931751868335E+00
(PID.TID 0000.0001) %MON dynstat_theta_del2           =   5.0968962164946E-02
(PID.TID 0000.0001) %MON dynstat_salt_max             =   3.7404332408342E+01
(PID.TID 0000.0001) %MON dynstat_salt_min             =   3.4726814940045E+01
(PID.TID 0000.0001) %MON dynstat_salt_mean            =   3.5157571497057E+01
(PID.TID 0000.0001) %MON dynstat_salt_sd              =   4.1380644570571E-01
(PID.TID 0000.0001) %MON dynstat_salt_del2            =   1.2646863725019E-02
(PID.TID 0000.0001) %MON extforcing_qnet_max          =   5.1881983439128E+01
(PID.TID 0000.0001) %MON extforcing_qnet_min          =  -1.6512999216715E+02
(PID.TID 0000.0001) %MON extforcing_qnet_mean         =  -7.2695911429919E+01
(PID.TID 0000.0001) %MON extforcing_qnet_sd           =   5.1206831276043E+01
(PID.TID 0000.0001) %MON extforcing_qnet_del2         =   7.9459580138008E+00
(PID.TID 0000.0001) %MON extforcing_qsw_max           =  -1.3354755655924E+02
(PID.TID 0000.0001) %MON extforcing_qsw_min           =  -3.1814401753743E+02
(PID.TID 0000.0001) %MON extforcing_qsw_mean          =  -2.5047803966406E+02
(PID.TID 0000.0001) %MON extforcing_qsw_sd            =   4.2471564939527E+01
(PID.TID 0000.0001) %MON extforcing_qsw_del2          =   5.6487943276592E+00
(PID.TID 0000.0001) %MON extforcing_empmr_max         =   6.8338579239935E-08
(PID.TID 0000.0001) %MON extforcing_empmr_min         =   1.4072184306713E-08
(PID.TID 0000.0001) %MON extforcing_empmr_mean        =   4.2265763285542E-08
(PID.TID 0000.0001) %MON extforcing_empmr_sd          =   1.1738801909844E-08
(PID.TID 0000.0001) %MON extforcing_empmr_del2        =   2.2966539708145E-09
(PID.TID 0000.0001) %MON extforcing_fu_max            =   2.5644019494454E-01
(PID.TID 0000.0001) %MON extforcing_fu_min            =  -1.2285739555955E-01
(PID.TID 0000.0001) %MON extforcing_fu_mean           =  -2.4546275244577E-02
(PID.TID 0000.0001) %MON extforcing_fu_sd             =   4.1432091377253E-02
(PID.TID 0000.0001) %MON extforcing_fu_del2           =   5.6868001205484E-03
(PID.TID 0000.0001) %MON extforcing_fv_max            =   3.3674074957768E-02
(PID.TID 0000.0001) %MON extforcing_fv_min            =  -9.6112570414941E-02
(PID.TID 0000.0001) %MON extforcing_fv_mean           =  -2.8693881829545E-02
(PID.TID 0000.0001) %MON extforcing_fv_sd             =   2.6896345497112E-02
(PID.TID 0000.0001) %MON extforcing_fv_del2           =   4.1341786544584E-03
(PID.TID 0000.0001) %MON advcfl_uvel_max              =   3.6819038965431E-03
(PID.TID 0000.0001) %MON advcfl_vvel_max              =   2.2649171712561E-03
(PID.TID 0000.0001) %MON advcfl_wvel_max              =   4.1812786098282E-03
(PID.TID 0000.0001) %MON advcfl_W_hf_max              =   7.1289685616811E-03
(PID.TID 0000.0001) %MON pe_b_mean                    =   6.8108876884029E-06
(PID.TID 0000.0001) %MON ke_max                       =   2.4838447201089E-02
(PID.TID 0000.0001) %MON ke_mean                      =   6.1896789201985E-05
(PID.TID 0000.0001) %MON ke_vol                       =   3.6027486600263E+16
(PID.TID 0000.0001) %MON vort_r_min                   =  -4.8551351114919E-07
(PID.TID 0000.0001) %MON vort_r_max                   =   8.0185911507518E-07
(PID.TID 0000.0001) %MON vort_a_mean                  =   6.1944475191297E-05
(PID.TID 0000.0001) %MON vort_a_sd                    =   1.9197564974065E-05
(PID.TID 0000.0001) %MON vort_p_mean                  =   7.7881882182936E-05
(PID.TID 0000.0001) %MON vort_p_sd                    =   5.6365105549028E-05
(PID.TID 0000.0001) %MON surfExpan_theta_mean         =   1.3555111366359E-06
(PID.TID 0000.0001) %MON surfExpan_salt_mean          =  -2.8808420256031E-08
(PID.TID 0000.0001) // =======================================================
(PID.TID 0000.0001) // End MONITOR dynamic field statistics
(PID.TID 0000.0001) // =======================================================
time,SST,SSS,fu,fv,Q,E-P,i0,i1,a,b =   7.5600E+04  0.0000E+00  0.0000E+00  0.0000E+00  0.0000E+00  0.0000E+00  0.0000E+00     2     3  2.5000E-01  7.5000E-01
time,fu0,fu1,fu =   7.5600E+04  0.0000E+00  0.0000E+00  0.0000E+00  2.500000000000000E-01  7.500000000000000E-01
 cg2d: Sum(rhs),rhsMax =   5.32907051820075E-15  5.46920352905049E-01
(PID.TID 0000.0001)                    cg2d_init_res =    8.43607048966357E-02
(PID.TID 0000.0001)                       cg2d_iters =    44
(PID.TID 0000.0001)                         cg2d_res =    7.59961020287202E-14
(PID.TID 0000.0001) // =======================================================
(PID.TID 0000.0001) // Begin MONITOR dynamic field statistics
(PID.TID 0000.0001) // =======================================================
(PID.TID 0000.0001) %MON time_tsnumber                =                    16
(PID.TID 0000.0001) %MON time_secondsf                =   7.9200000000000E+04
(PID.TID 0000.0001) %MON dynstat_eta_max              =   1.5316399434250E-01
(PID.TID 0000.0001) %MON dynstat_eta_min              =  -2.1737722695038E-01
(PID.TID 0000.0001) %MON dynstat_eta_mean             =  -3.3089807199909E-17
(PID.TID 0000.0001) %MON dynstat_eta_sd               =   7.6891866779427E-02
(PID.TID 0000.0001) %MON dynstat_eta_del2             =   4.6405430459549E-03
(PID.TID 0000.0001) %MON dynstat_uvel_max             =   3.5666593956885E-02
(PID.TID 0000.0001) %MON dynstat_uvel_min             =  -2.2089706357142E-01
(PID.TID 0000.0001) %MON dynstat_uvel_mean            =  -1.3666619750485E-04
(PID.TID 0000.0001) %MON dynstat_uvel_sd              =   9.4384193860132E-03
(PID.TID 0000.0001) %MON dynstat_uvel_del2            =   2.8807661979555E-03
(PID.TID 0000.0001) %MON dynstat_vvel_max             =   8.8869997189548E-02
(PID.TID 0000.0001) %MON dynstat_vvel_min             =  -1.3685898756606E-01
(PID.TID 0000.0001) %MON dynstat_vvel_mean            =  -1.6847493606516E-04
(PID.TID 0000.0001) %MON dynstat_vvel_sd              =   6.5783780020122E-03
(PID.TID 0000.0001) %MON dynstat_vvel_del2            =   2.4653741046334E-03
(PID.TID 0000.0001) %MON dynstat_wvel_max             =   1.2252270275060E-04
(PID.TID 0000.0001) %MON dynstat_wvel_min             =  -1.7225652062257E-04
(PID.TID 0000.0001) %MON dynstat_wvel_mean            =  -1.2380265911568E-21
(PID.TID 0000.0001) %MON dynstat_wvel_sd              =   3.0041866107080E-05
(PID.TID 0000.0001) %MON dynstat_wvel_del2            =   6.7675556276011E-06
(PID.TID 0000.0001) %MON dynstat_theta_max            =   2.6141264395318E+01
(PID.TID 0000.0001) %MON dynstat_theta_min            =   1.8064646926732E+00
(PID.TID 0000.0001) %MON dynstat_theta_mean           =   5.4786608623419E+00
(PID.TID 0000.0001) %MON dynstat_theta_sd             =   4.5932211477180E+00
(PID.TID 0000.0001) %MON dynstat_theta_del2           =   5.1045586497244E-02
(PID.TID 0000.0001) %MON dynstat_salt_max             =   3.7404701896143E+01
(PID.TID 0000.0001) %MON dynstat_salt_min             =   3.4726820545600E+01
(PID.TID 0000.0001) %MON dynstat_salt_mean            =   3.5157572945071E+01
(PID.TID 0000.0001) %MON dynstat_salt_sd              =   4.1380992552744E-01
(PID.TID 0000.0001) %MON dynstat_salt_del2            =   1.2648579007120E-02
(PID.TID 0000.0001) %MON extforcing_qnet_max          =   5.1785995483398E+01
(PID.TID 0000.0001) %MON extforcing_qnet_min          =  -1.6640010070801E+02
(PID.TID 0000.0001) %MON extforcing_qnet_mean         =  -7.1740236129939E+01
(PID.TID 0000.0001) %MON extforcing_qnet_sd           =   5.0763762302510E+01
(PID.TID 0000.0001) %MON extforcing_qnet_del2         =   7.8684455467562E+00
(PID.TID 0000.0001) %MON extforcing_qsw_max           =  -1.3305171203613E+02
(PID.TID 0000.0001) %MON extforcing_qsw_min           =  -3.1786423492432E+02
(PID.TID 0000.0001) %MON extforcing_qsw_mean          =  -2.5092606306118E+02
(PID.TID 0000.0001) %MON extforcing_qsw_sd            =   4.2226722936044E+01
(PID.TID 0000.0001) %MON extforcing_qsw_del2          =   5.5239140646798E+00
(PID.TID 0000.0001) %MON extforcing_empmr_max         =   6.8314843559847E-08
(PID.TID 0000.0001) %MON extforcing_empmr_min         =   1.4156934735610E-08
(PID.TID 0000.0001) %MON extforcing_empmr_mean        =   4.2687120068139E-08
(PID.TID 0000.0001) %MON extforcing_empmr_sd          =   1.1677052805211E-08
(PID.TID 0000.0001) %MON extforcing_empmr_del2        =   2.2955649477629E-09
(PID.TID 0000.0001) %MON extforcing_fu_max            =   2.4364364519715E-01
(PID.TID 0000.0001) %MON extforcing_fu_min            =  -1.2391682155430E-01
(PID.TID 0000.0001) %MON extforcing_fu_mean           =  -2.5106835254852E-02
(PID.TID 0000.0001) %MON extforcing_fu_sd             =   4.1394763645285E-02
(PID.TID 0000.0001) %MON extforcing_fu_del2           =   5.5567881170516E-03
(PID.TID 0000.0001) %MON extforcing_fv_max            =   3.3227179199457E-02
(PID.TID 0000.0001) %MON extforcing_fv_min            =  -9.5904327929020E-02
(PID.TID 0000.0001) %MON extforcing_fv_mean           =  -2.9335998942022E-02
(PID.TID 0000.0001) %MON extforcing_fv_sd             =   2.7466364233240E-02
(PID.TID 0000.0001) %MON extforcing_fv_del2           =   4.1556095079886E-03
(PID.TID 0000.0001) %MON advcfl_uvel_max              =   3.7025579950445E-03
(PID.TID 0000.0001) %MON advcfl_vvel_max              =   2.2157921941512E-03
(PID.TID 0000.0001) %MON advcfl_wvel_max              =   4.5709916419169E-03
(PID.TID 0000.0001) %MON advcfl_W_hf_max              =   7.5435147163721E-03
(PID.TID 0000.0001) %MON pe_b_mean                    =   7.1267728591318E-06
(PID.TID 0000.0001) %MON ke_max                       =   2.5431216633211E-02
(PID.TID 0000.0001) %MON ke_mean                      =   5.9141445598246E-05
(PID.TID 0000.0001) %MON ke_vol                       =   3.6027486600263E+16
(PID.TID 0000.0001) %MON vort_r_min                   =  -5.0055896231314E-07
(PID.TID 0000.0001) %MON vort_r_max                   =   7.9551093803254E-07
(PID.TID 0000.0001) %MON vort_a_mean                  =   6.1944475191297E-05
(PID.TID 0000.0001) %MON vort_a_sd                    =   1.9197576495876E-05
(PID.TID 0000.0001) %MON vort_p_mean                  =   7.7881882182936E-05
(PID.TID 0000.0001) %MON vort_p_sd                    =   5.6365461824716E-05
(PID.TID 0000.0001) %MON surfExpan_theta_mean         =   1.5379319280750E-06
(PID.TID 0000.0001) %MON surfExpan_salt_mean          =  -7.9029307791215E-08
(PID.TID 0000.0001) // =======================================================
(PID.TID 0000.0001) // End MONITOR dynamic field statistics
(PID.TID 0000.0001) // =======================================================
time,SST,SSS,fu,fv,Q,E-P,i0,i1,a,b =   7.9200E+04  0.0000E+00  0.0000E+00  0.0000E+00  0.0000E+00  0.0000E+00  0.0000E+00     2     3  3.3333E-01  6.6667E-01
time,fu0,fu1,fu =   7.9200E+04  0.0000E+00  0.0000E+00  0.0000E+00  3.333333333333333E-01  6.666666666666667E-01
 cg2d: Sum(rhs),rhsMax =   7.10542735760100E-15  5.49958387053655E-01
(PID.TID 0000.0001)                    cg2d_init_res =    7.83790023411186E-02
(PID.TID 0000.0001)                       cg2d_iters =    44
(PID.TID 0000.0001)                         cg2d_res =    6.39509932183637E-14
(PID.TID 0000.0001) // =======================================================
(PID.TID 0000.0001) // Begin MONITOR dynamic field statistics
(PID.TID 0000.0001) // =======================================================
(PID.TID 0000.0001) %MON time_tsnumber                =                    17
(PID.TID 0000.0001) %MON time_secondsf                =   8.2800000000000E+04
(PID.TID 0000.0001) %MON dynstat_eta_max              =   1.5413044518393E-01
(PID.TID 0000.0001) %MON dynstat_eta_min              =  -2.2194154111449E-01
(PID.TID 0000.0001) %MON dynstat_eta_mean             =  -2.7574839333258E-17
(PID.TID 0000.0001) %MON dynstat_eta_sd               =   7.8160646615512E-02
(PID.TID 0000.0001) %MON dynstat_eta_del2             =   4.6831538223911E-03
(PID.TID 0000.0001) %MON dynstat_uvel_max             =   3.6327898545916E-02
(PID.TID 0000.0001) %MON dynstat_uvel_min             =  -2.2112778137426E-01
(PID.TID 0000.0001) %MON dynstat_uvel_mean            =  -1.0525612386268E-04
(PID.TID 0000.0001) %MON dynstat_uvel_sd              =   9.1822499098598E-03
(PID.TID 0000.0001) %MON dynstat_uvel_del2            =   2.6009047023330E-03
(PID.TID 0000.0001) %MON dynstat_vvel_max             =   1.0002661190137E-01
(PID.TID 0000.0001) %MON dynstat_vvel_min             =  -1.3172734840411E-01
(PID.TID 0000.0001) %MON dynstat_vvel_mean            =  -1.4859693913527E-04
(PID.TID 0000.0001) %MON dynstat_vvel_sd              =   6.3705354720247E-03
(PID.TID 0000.0001) %MON dynstat_vvel_del2            =   2.4120078243095E-03
(PID.TID 0000.0001) %MON dynstat_wvel_max             =   1.0997000900586E-04
(PID.TID 0000.0001) %MON dynstat_wvel_min             =  -1.7361456522217E-04
(PID.TID 0000.0001) %MON dynstat_wvel_mean            =  -1.1254787192334E-21
(PID.TID 0000.0001) %MON dynstat_wvel_sd              =   2.8587139546913E-05
(PID.TID 0000.0001) %MON dynstat_wvel_del2            =   6.3410108263925E-06
(PID.TID 0000.0001) %MON dynstat_theta_max            =   2.6147311847385E+01
(PID.TID 0000.0001) %MON dynstat_theta_min            =   1.8064671445489E+00
(PID.TID 0000.0001) %MON dynstat_theta_mean           =   5.4786749685125E+00
(PID.TID 0000.0001) %MON dynstat_theta_sd             =   4.5932668691845E+00
(PID.TID 0000.0001) %MON dynstat_theta_del2           =   5.1121685111392E-02
(PID.TID 0000.0001) %MON dynstat_salt_max             =   3.7405072206183E+01
(PID.TID 0000.0001) %MON dynstat_salt_min             =   3.4726826713837E+01
(PID.TID 0000.0001) %MON dynstat_salt_mean            =   3.5157574426619E+01
(PID.TID 0000.0001) %MON dynstat_salt_sd              =   4.1381352398038E-01
(PID.TID 0000.0001) %MON dynstat_salt_del2            =   1.2650065854651E-02
(PID.TID 0000.0001) %MON extforcing_qnet_max          =   5.2881464640299E+01
(PID.TID 0000.0001) %MON extforcing_qnet_min          =  -1.6767020924886E+02
(PID.TID 0000.0001) %MON extforcing_qnet_mean         =  -7.0784560829959E+01
(PID.TID 0000.0001) %MON extforcing_qnet_sd           =   5.0376618745466E+01
(PID.TID 0000.0001) %MON extforcing_qnet_del2         =   7.8122522952326E+00
(PID.TID 0000.0001) %MON extforcing_qsw_max           =  -1.3255586751302E+02
(PID.TID 0000.0001) %MON extforcing_qsw_min           =  -3.1758445231120E+02
(PID.TID 0000.0001) %MON extforcing_qsw_mean          =  -2.5137408645830E+02
(PID.TID 0000.0001) %MON extforcing_qsw_sd            =   4.2032969606024E+01
(PID.TID 0000.0001) %MON extforcing_qsw_del2          =   5.4213342525689E+00
(PID.TID 0000.0001) %MON extforcing_empmr_max         =   6.8879468055153E-08
(PID.TID 0000.0001) %MON extforcing_empmr_min         =   1.4241685164507E-08
(PID.TID 0000.0001) %MON extforcing_empmr_mean        =   4.3108476850736E-08
(PID.TID 0000.0001) %MON extforcing_empmr_sd          =   1.1633450349422E-08
(PID.TID 0000.0001) %MON extforcing_empmr_del2        =   2.2966521733106E-09
(PID.TID 0000.0001) %MON extforcing_fu_max            =   2.3084709544977E-01
(PID.TID 0000.0001) %MON extforcing_fu_min            =  -1.2497624754906E-01
(PID.TID 0000.0001) %MON extforcing_fu_mean           =  -2.5667395265126E-02
(PID.TID 0000.0001) %MON extforcing_fu_sd             =   4.1388203137643E-02
(PID.TID 0000.0001) %MON extforcing_fu_del2           =   5.4373623133004E-03
(PID.TID 0000.0001) %MON extforcing_fv_max            =   3.2780283441146E-02
(PID.TID 0000.0001) %MON extforcing_fv_min            =  -9.8520850141843E-02
(PID.TID 0000.0001) %MON extforcing_fv_mean           =  -2.9978116054499E-02
(PID.TID 0000.0001) %MON extforcing_fv_sd             =   2.8075614348536E-02
(PID.TID 0000.0001) %MON extforcing_fv_del2           =   4.1798659391533E-03
(PID.TID 0000.0001) %MON advcfl_uvel_max              =   3.7064251629990E-03
(PID.TID 0000.0001) %MON advcfl_vvel_max              =   2.1327092618538E-03
(PID.TID 0000.0001) %MON advcfl_wvel_max              =   4.8582397027685E-03
(PID.TID 0000.0001) %MON advcfl_W_hf_max              =   7.8962184794050E-03
(PID.TID 0000.0001) %MON pe_b_mean                    =   7.3639086933637E-06
(PID.TID 0000.0001) %MON ke_max                       =   2.5763122097034E-02
(PID.TID 0000.0001) %MON ke_mean                      =   5.5805263758415E-05
(PID.TID 0000.0001) %MON ke_vol                       =   3.6027486600263E+16
(PID.TID 0000.0001) %MON vort_r_min                   =  -4.9241082275453E-07
(PID.TID 0000.0001) %MON vort_r_max                   =   7.8632058434586E-07
(PID.TID 0000.0001) %MON vort_a_mean                  =   6.1944475191297E-05
(PID.TID 0000.0001) %MON vort_a_sd                    =   1.9197598128655E-05
(PID.TID 0000.0001) %MON vort_p_mean                  =   7.7881882182936E-05
(PID.TID 0000.0001) %MON vort_p_sd                    =   5.6366053227010E-05
(PID.TID 0000.0001) %MON surfExpan_theta_mean         =   1.2503682046090E-06
(PID.TID 0000.0001) %MON surfExpan_salt_mean          =  -8.5870696371759E-08
(PID.TID 0000.0001) // =======================================================
(PID.TID 0000.0001) // End MONITOR dynamic field statistics
(PID.TID 0000.0001) // =======================================================
time,SST,SSS,fu,fv,Q,E-P,i0,i1,a,b =   8.2800E+04  0.0000E+00  0.0000E+00  0.0000E+00  0.0000E+00  0.0000E+00  0.0000E+00     2     3  4.1667E-01  5.8333E-01
time,fu0,fu1,fu =   8.2800E+04  0.0000E+00  0.0000E+00  0.0000E+00  4.166666666666667E-01  5.833333333333333E-01
 cg2d: Sum(rhs),rhsMax =   1.77635683940025E-15  5.51916221383536E-01
(PID.TID 0000.0001)                    cg2d_init_res =    6.92741259061423E-02
(PID.TID 0000.0001)                       cg2d_iters =    44
(PID.TID 0000.0001)                         cg2d_res =    8.64618954144864E-14
(PID.TID 0000.0001) // =======================================================
(PID.TID 0000.0001) // Begin MONITOR dynamic field statistics
(PID.TID 0000.0001) // =======================================================
(PID.TID 0000.0001) %MON time_tsnumber                =                    18
(PID.TID 0000.0001) %MON time_secondsf                =   8.6400000000000E+04
(PID.TID 0000.0001) %MON dynstat_eta_max              =   1.5411148772874E-01
(PID.TID 0000.0001) %MON dynstat_eta_min              =  -2.2500255530777E-01
(PID.TID 0000.0001) %MON dynstat_eta_mean             =   0.0000000000000E+00
(PID.TID 0000.0001) %MON dynstat_eta_sd               =   7.8791626631655E-02
(PID.TID 0000.0001) %MON dynstat_eta_del2             =   4.7264636987762E-03
(PID.TID 0000.0001) %MON dynstat_uvel_max             =   3.5221300069163E-02
(PID.TID 0000.0001) %MON dynstat_uvel_min             =  -2.1957784082984E-01
(PID.TID 0000.0001) %MON dynstat_uvel_mean            =  -7.0825836791365E-05
(PID.TID 0000.0001) %MON dynstat_uvel_sd              =   8.8700840777020E-03
(PID.TID 0000.0001) %MON dynstat_uvel_del2            =   2.3470127339053E-03
(PID.TID 0000.0001) %MON dynstat_vvel_max             =   1.1134981750823E-01
(PID.TID 0000.0001) %MON dynstat_vvel_min             =  -1.2617400475592E-01
(PID.TID 0000.0001) %MON dynstat_vvel_mean            =  -9.0743720083547E-05
(PID.TID 0000.0001) %MON dynstat_vvel_sd              =   6.1817593903458E-03
(PID.TID 0000.0001) %MON dynstat_vvel_del2            =   2.2904069859491E-03
(PID.TID 0000.0001) %MON dynstat_wvel_max             =   9.5869883873997E-05
(PID.TID 0000.0001) %MON dynstat_wvel_min             =  -1.7332113510816E-04
(PID.TID 0000.0001) %MON dynstat_wvel_mean            =  -7.8783510346340E-22
(PID.TID 0000.0001) %MON dynstat_wvel_sd              =   2.6907746449650E-05
(PID.TID 0000.0001) %MON dynstat_wvel_del2            =   5.8141464377743E-06
(PID.TID 0000.0001) %MON dynstat_theta_max            =   2.6153275977991E+01
(PID.TID 0000.0001) %MON dynstat_theta_min            =   1.8064698323285E+00
(PID.TID 0000.0001) %MON dynstat_theta_mean           =   5.4786893704534E+00
(PID.TID 0000.0001) %MON dynstat_theta_sd             =   4.5933137049941E+00
(PID.TID 0000.0001) %MON dynstat_theta_del2           =   5.1195457501318E-02
(PID.TID 0000.0001) %MON dynstat_salt_max             =   3.7405441714814E+01
(PID.TID 0000.0001) %MON dynstat_salt_min             =   3.4726833344173E+01
(PID.TID 0000.0001) %MON dynstat_salt_mean            =   3.5157575903326E+01
(PID.TID 0000.0001) %MON dynstat_salt_sd              =   4.1381714707573E-01
(PID.TID 0000.0001) %MON dynstat_salt_del2            =   1.2651226934584E-02
(PID.TID 0000.0001) %MON extforcing_qnet_max          =   5.4347905476888E+01
(PID.TID 0000.0001) %MON extforcing_qnet_min          =  -1.6894031778971E+02
(PID.TID 0000.0001) %MON extforcing_qnet_mean         =  -6.9828885529979E+01
(PID.TID 0000.0001) %MON extforcing_qnet_sd           =   5.0046698479458E+01
(PID.TID 0000.0001) %MON extforcing_qnet_del2         =   7.7698886273138E+00
(PID.TID 0000.0001) %MON extforcing_qsw_max           =  -1.3206002298991E+02
(PID.TID 0000.0001) %MON extforcing_qsw_min           =  -3.1730466969808E+02
(PID.TID 0000.0001) %MON extforcing_qsw_mean          =  -2.5182210985542E+02
(PID.TID 0000.0001) %MON extforcing_qsw_sd            =   4.1891013837849E+01
(PID.TID 0000.0001) %MON extforcing_qsw_del2          =   5.3378500037984E+00
(PID.TID 0000.0001) %MON extforcing_empmr_max         =   6.9444092550460E-08
(PID.TID 0000.0001) %MON extforcing_empmr_min         =   1.4326435593404E-08
(PID.TID 0000.0001) %MON extforcing_empmr_mean        =   4.3529833633333E-08
(PID.TID 0000.0001) %MON extforcing_empmr_sd          =   1.1608199030380E-08
(PID.TID 0000.0001) %MON extforcing_empmr_del2        =   2.3003397916658E-09
(PID.TID 0000.0001) %MON extforcing_fu_max            =   2.1805054570238E-01
(PID.TID 0000.0001) %MON extforcing_fu_min            =  -1.2603567354381E-01
(PID.TID 0000.0001) %MON extforcing_fu_mean           =  -2.6227955275401E-02
(PID.TID 0000.0001) %MON extforcing_fu_sd             =   4.1412424476652E-02
(PID.TID 0000.0001) %MON extforcing_fu_del2           =   5.3257188860265E-03
(PID.TID 0000.0001) %MON extforcing_fv_max            =   3.2333387682835E-02
(PID.TID 0000.0001) %MON extforcing_fv_min            =  -1.0113737235467E-01
(PID.TID 0000.0001) %MON extforcing_fv_mean           =  -3.0620233166976E-02
(PID.TID 0000.0001) %MON extforcing_fv_sd             =   2.8721599392514E-02
(PID.TID 0000.0001) %MON extforcing_fv_del2           =   4.2147689155042E-03
(PID.TID 0000.0001) %MON advcfl_uvel_max              =   3.6804458916507E-03
(PID.TID 0000.0001) %MON advcfl_vvel_max              =   2.0427987946939E-03
(PID.TID 0000.0001) %MON advcfl_wvel_max              =   5.0240054516062E-03
(PID.TID 0000.0001) %MON advcfl_W_hf_max              =   8.0028028217045E-03
(PID.TID 0000.0001) %MON pe_b_mean                    =   7.4832842261440E-06
(PID.TID 0000.0001) %MON ke_max                       =   2.5828790600720E-02
(PID.TID 0000.0001) %MON ke_mean                      =   5.2218184624322E-05
(PID.TID 0000.0001) %MON ke_vol                       =   3.6027486600263E+16
(PID.TID 0000.0001) %MON vort_r_min                   =  -4.6295197503704E-07
(PID.TID 0000.0001) %MON vort_r_max                   =   7.7474875331636E-07
(PID.TID 0000.0001) %MON vort_a_mean                  =   6.1944475191297E-05
(PID.TID 0000.0001) %MON vort_a_sd                    =   1.9197622222688E-05
(PID.TID 0000.0001) %MON vort_p_mean                  =   7.7881882182936E-05
(PID.TID 0000.0001) %MON vort_p_sd                    =   5.6366800341100E-05
(PID.TID 0000.0001) %MON surfExpan_theta_mean         =   6.9481911717378E-07
(PID.TID 0000.0001) %MON surfExpan_salt_mean          =  -6.2261928917091E-08
(PID.TID 0000.0001) // =======================================================
(PID.TID 0000.0001) // End MONITOR dynamic field statistics
(PID.TID 0000.0001) // =======================================================
time,SST,SSS,fu,fv,Q,E-P,i0,i1,a,b =   8.6400E+04  0.0000E+00  0.0000E+00  0.0000E+00  0.0000E+00  0.0000E+00  0.0000E+00     2     3  5.0000E-01  5.0000E-01
time,fu0,fu1,fu =   8.6400E+04  0.0000E+00  0.0000E+00  0.0000E+00  5.000000000000000E-01  5.000000000000000E-01
 cg2d: Sum(rhs),rhsMax =   1.77635683940025E-15  5.52147660664367E-01
(PID.TID 0000.0001)                    cg2d_init_res =    6.30180131915771E-02
(PID.TID 0000.0001)                       cg2d_iters =    44
(PID.TID 0000.0001)                         cg2d_res =    9.39098243999693E-14
(PID.TID 0000.0001) // =======================================================
(PID.TID 0000.0001) // Begin MONITOR dynamic field statistics
(PID.TID 0000.0001) // =======================================================
(PID.TID 0000.0001) %MON time_tsnumber                =                    19
(PID.TID 0000.0001) %MON time_secondsf                =   9.0000000000000E+04
(PID.TID 0000.0001) %MON dynstat_eta_max              =   1.5332231714013E-01
(PID.TID 0000.0001) %MON dynstat_eta_min              =  -2.2623576250072E-01
(PID.TID 0000.0001) %MON dynstat_eta_mean             =   2.2059871466606E-17
(PID.TID 0000.0001) %MON dynstat_eta_sd               =   7.8797130622654E-02
(PID.TID 0000.0001) %MON dynstat_eta_del2             =   4.7695404192087E-03
(PID.TID 0000.0001) %MON dynstat_uvel_max             =   3.2498451531517E-02
(PID.TID 0000.0001) %MON dynstat_uvel_min             =  -2.1634823349525E-01
(PID.TID 0000.0001) %MON dynstat_uvel_mean            =  -4.2559273471734E-05
(PID.TID 0000.0001) %MON dynstat_uvel_sd              =   8.5216653562979E-03
(PID.TID 0000.0001) %MON dynstat_uvel_del2            =   2.1590502215661E-03
(PID.TID 0000.0001) %MON dynstat_vvel_max             =   1.2117383707196E-01
(PID.TID 0000.0001) %MON dynstat_vvel_min             =  -1.2033945673350E-01
(PID.TID 0000.0001) %MON dynstat_vvel_mean            =  -2.1827019810883E-05
(PID.TID 0000.0001) %MON dynstat_vvel_sd              =   6.0413550782542E-03
(PID.TID 0000.0001) %MON dynstat_vvel_del2            =   2.1433096374636E-03
(PID.TID 0000.0001) %MON dynstat_wvel_max             =   8.0621833442074E-05
(PID.TID 0000.0001) %MON dynstat_wvel_min             =  -1.7150301724603E-04
(PID.TID 0000.0001) %MON dynstat_wvel_mean            =   1.1254787192334E-22
(PID.TID 0000.0001) %MON dynstat_wvel_sd              =   2.5307655872518E-05
(PID.TID 0000.0001) %MON dynstat_wvel_del2            =   5.3976018640686E-06
(PID.TID 0000.0001) %MON dynstat_theta_max            =   2.6159168025477E+01
(PID.TID 0000.0001) %MON dynstat_theta_min            =   1.8064727610141E+00
(PID.TID 0000.0001) %MON dynstat_theta_mean           =   5.4787041978581E+00
(PID.TID 0000.0001) %MON dynstat_theta_sd             =   4.5933621284736E+00
(PID.TID 0000.0001) %MON dynstat_theta_del2           =   5.1261439370759E-02
(PID.TID 0000.0001) %MON dynstat_salt_max             =   3.7405808900258E+01
(PID.TID 0000.0001) %MON dynstat_salt_min             =   3.4726840408738E+01
(PID.TID 0000.0001) %MON dynstat_salt_mean            =   3.5157577355239E+01
(PID.TID 0000.0001) %MON dynstat_salt_sd              =   4.1382074209305E-01
(PID.TID 0000.0001) %MON dynstat_salt_del2            =   1.2652071815931E-02
(PID.TID 0000.0001) %MON extforcing_qnet_max          =   5.5814346313477E+01
(PID.TID 0000.0001) %MON extforcing_qnet_min          =  -1.7021042633057E+02
(PID.TID 0000.0001) %MON extforcing_qnet_mean         =  -6.8873210229999E+01
(PID.TID 0000.0001) %MON extforcing_qnet_sd           =   4.9775139382117E+01
(PID.TID 0000.0001) %MON extforcing_qnet_del2         =   7.7450188603894E+00
(PID.TID 0000.0001) %MON extforcing_qsw_max           =  -1.3156417846680E+02
(PID.TID 0000.0001) %MON extforcing_qsw_min           =  -3.1702488708496E+02
(PID.TID 0000.0001) %MON extforcing_qsw_mean          =  -2.5227013325255E+02
(PID.TID 0000.0001) %MON extforcing_qsw_sd            =   4.1801383341981E+01
(PID.TID 0000.0001) %MON extforcing_qsw_del2          =   5.2682711408643E+00
(PID.TID 0000.0001) %MON extforcing_empmr_max         =   7.0008717045766E-08
(PID.TID 0000.0001) %MON extforcing_empmr_min         =   1.4411186022301E-08
(PID.TID 0000.0001) %MON extforcing_empmr_mean        =   4.3951190415929E-08
(PID.TID 0000.0001) %MON extforcing_empmr_sd          =   1.1601418676396E-08
(PID.TID 0000.0001) %MON extforcing_empmr_del2        =   2.3056566180100E-09
(PID.TID 0000.0001) %MON extforcing_fu_max            =   2.0525399595499E-01
(PID.TID 0000.0001) %MON extforcing_fu_min            =  -1.2709509953856E-01
(PID.TID 0000.0001) %MON extforcing_fu_mean           =  -2.6788515285675E-02
(PID.TID 0000.0001) %MON extforcing_fu_sd             =   4.1467373722769E-02
(PID.TID 0000.0001) %MON extforcing_fu_del2           =   5.2235445212188E-03
(PID.TID 0000.0001) %MON extforcing_fv_max            =   3.1886491924524E-02
(PID.TID 0000.0001) %MON extforcing_fv_min            =  -1.0375389456749E-01
(PID.TID 0000.0001) %MON extforcing_fv_mean           =  -3.1262350279453E-02
(PID.TID 0000.0001) %MON extforcing_fv_sd             =   2.9401898170734E-02
(PID.TID 0000.0001) %MON extforcing_fv_del2           =   4.2628544080146E-03
(PID.TID 0000.0001) %MON advcfl_uvel_max              =   3.6263129472639E-03
(PID.TID 0000.0001) %MON advcfl_vvel_max              =   1.9618444290318E-03
(PID.TID 0000.0001) %MON advcfl_wvel_max              =   5.1003666012178E-03
(PID.TID 0000.0001) %MON advcfl_W_hf_max              =   7.9516347375178E-03
(PID.TID 0000.0001) %MON pe_b_mean                    =   7.4843297526645E-06
(PID.TID 0000.0001) %MON ke_max                       =   2.5620524705298E-02
(PID.TID 0000.0001) %MON ke_mean                      =   4.8731024973075E-05
(PID.TID 0000.0001) %MON ke_vol                       =   3.6027486600263E+16
(PID.TID 0000.0001) %MON vort_r_min                   =  -4.1611928333735E-07
(PID.TID 0000.0001) %MON vort_r_max                   =   7.6063267728779E-07
(PID.TID 0000.0001) %MON vort_a_mean                  =   6.1944475191297E-05
(PID.TID 0000.0001) %MON vort_a_sd                    =   1.9197641570091E-05
(PID.TID 0000.0001) %MON vort_p_mean                  =   7.7881882182936E-05
(PID.TID 0000.0001) %MON vort_p_sd                    =   5.6367604768837E-05
(PID.TID 0000.0001) %MON surfExpan_theta_mean         =   9.5864365498393E-08
(PID.TID 0000.0001) %MON surfExpan_salt_mean          =  -2.4882087235747E-08
(PID.TID 0000.0001) // =======================================================
(PID.TID 0000.0001) // End MONITOR dynamic field statistics
(PID.TID 0000.0001) // =======================================================
time,SST,SSS,fu,fv,Q,E-P,i0,i1,a,b =   9.0000E+04  0.0000E+00  0.0000E+00  0.0000E+00  0.0000E+00  0.0000E+00  0.0000E+00     2     3  5.8333E-01  4.1667E-01
time,fu0,fu1,fu =   9.0000E+04  0.0000E+00  0.0000E+00  0.0000E+00  5.833333333333334E-01  4.166666666666666E-01
 cg2d: Sum(rhs),rhsMax =   5.32907051820075E-15  5.50497568611205E-01
(PID.TID 0000.0001)                    cg2d_init_res =    6.13181051010810E-02
(PID.TID 0000.0001)                       cg2d_iters =    44
(PID.TID 0000.0001)                         cg2d_res =    8.10452465708614E-14
(PID.TID 0000.0001) // =======================================================
(PID.TID 0000.0001) // Begin MONITOR dynamic field statistics
(PID.TID 0000.0001) // =======================================================
(PID.TID 0000.0001) %MON time_tsnumber                =                    20
(PID.TID 0000.0001) %MON time_secondsf                =   9.3600000000000E+04
(PID.TID 0000.0001) %MON dynstat_eta_max              =   1.5213805221137E-01
(PID.TID 0000.0001) %MON dynstat_eta_min              =  -2.2591636360962E-01
(PID.TID 0000.0001) %MON dynstat_eta_mean             =   2.7574839333258E-17
(PID.TID 0000.0001) %MON dynstat_eta_sd               =   7.8375026595566E-02
(PID.TID 0000.0001) %MON dynstat_eta_del2             =   4.8094930494682E-03
(PID.TID 0000.0001) %MON dynstat_uvel_max             =   3.2066001864841E-02
(PID.TID 0000.0001) %MON dynstat_uvel_min             =  -2.1152928243967E-01
(PID.TID 0000.0001) %MON dynstat_uvel_mean            =  -2.7154690613429E-05
(PID.TID 0000.0001) %MON dynstat_uvel_sd              =   8.1620305924003E-03
(PID.TID 0000.0001) %MON dynstat_uvel_del2            =   2.0509704791179E-03
(PID.TID 0000.0001) %MON dynstat_vvel_max             =   1.2928219273693E-01
(PID.TID 0000.0001) %MON dynstat_vvel_min             =  -1.1437627373437E-01
(PID.TID 0000.0001) %MON dynstat_vvel_mean            =   3.5979112894892E-05
(PID.TID 0000.0001) %MON dynstat_vvel_sd              =   5.9690916524510E-03
(PID.TID 0000.0001) %MON dynstat_vvel_del2            =   2.0354543833922E-03
(PID.TID 0000.0001) %MON dynstat_wvel_max             =   6.6247445627706E-05
(PID.TID 0000.0001) %MON dynstat_wvel_min             =  -1.6830850172251E-04
(PID.TID 0000.0001) %MON dynstat_wvel_mean            =  -4.5019148769337E-22
(PID.TID 0000.0001) %MON dynstat_wvel_sd              =   2.4133466544708E-05
(PID.TID 0000.0001) %MON dynstat_wvel_del2            =   5.2979523382569E-06
(PID.TID 0000.0001) %MON dynstat_theta_max            =   2.6164988164875E+01
(PID.TID 0000.0001) %MON dynstat_theta_min            =   1.8064759285568E+00
(PID.TID 0000.0001) %MON dynstat_theta_mean           =   5.4787193696513E+00
(PID.TID 0000.0001) %MON dynstat_theta_sd             =   4.5934118339586E+00
(PID.TID 0000.0001) %MON dynstat_theta_del2           =   5.1320191113629E-02
(PID.TID 0000.0001) %MON dynstat_salt_max             =   3.7406171910767E+01
(PID.TID 0000.0001) %MON dynstat_salt_min             =   3.4726847936652E+01
(PID.TID 0000.0001) %MON dynstat_salt_mean            =   3.5157578779064E+01
(PID.TID 0000.0001) %MON dynstat_salt_sd              =   4.1382429404822E-01
(PID.TID 0000.0001) %MON dynstat_salt_del2            =   1.2652718231764E-02
(PID.TID 0000.0001) %MON extforcing_qnet_max          =   5.7280787150065E+01
(PID.TID 0000.0001) %MON extforcing_qnet_min          =  -1.7148053487142E+02
(PID.TID 0000.0001) %MON extforcing_qnet_mean         =  -6.7917534930019E+01
(PID.TID 0000.0001) %MON extforcing_qnet_sd           =   4.9562900759258E+01
(PID.TID 0000.0001) %MON extforcing_qnet_del2         =   7.7331181872263E+00
(PID.TID 0000.0001) %MON extforcing_qsw_max           =  -1.3106833394368E+02
(PID.TID 0000.0001) %MON extforcing_qsw_min           =  -3.1762956492106E+02
(PID.TID 0000.0001) %MON extforcing_qsw_mean          =  -2.5271815664967E+02
(PID.TID 0000.0001) %MON extforcing_qsw_sd            =   4.1764415005147E+01
(PID.TID 0000.0001) %MON extforcing_qsw_del2          =   5.2155629425800E+00
(PID.TID 0000.0001) %MON extforcing_empmr_max         =   7.0573341541073E-08
(PID.TID 0000.0001) %MON extforcing_empmr_min         =   1.4495936451198E-08
(PID.TID 0000.0001) %MON extforcing_empmr_mean        =   4.4372547198526E-08
(PID.TID 0000.0001) %MON extforcing_empmr_sd          =   1.1613141640435E-08
(PID.TID 0000.0001) %MON extforcing_empmr_del2        =   2.3121962436290E-09
(PID.TID 0000.0001) %MON extforcing_fu_max            =   1.9245744620760E-01
(PID.TID 0000.0001) %MON extforcing_fu_min            =  -1.2815452553332E-01
(PID.TID 0000.0001) %MON extforcing_fu_mean           =  -2.7349075295949E-02
(PID.TID 0000.0001) %MON extforcing_fu_sd             =   4.1552928973191E-02
(PID.TID 0000.0001) %MON extforcing_fu_del2           =   5.1307599448505E-03
(PID.TID 0000.0001) %MON extforcing_fv_max            =   3.1439596166213E-02
(PID.TID 0000.0001) %MON extforcing_fv_min            =  -1.0662912329038E-01
(PID.TID 0000.0001) %MON extforcing_fv_mean           =  -3.1904467391930E-02
(PID.TID 0000.0001) %MON extforcing_fv_sd             =   3.0114185265121E-02
(PID.TID 0000.0001) %MON extforcing_fv_del2           =   4.3169642431840E-03
(PID.TID 0000.0001) %MON advcfl_uvel_max              =   3.5455402766357E-03
(PID.TID 0000.0001) %MON advcfl_vvel_max              =   2.0931213843079E-03
(PID.TID 0000.0001) %MON advcfl_wvel_max              =   5.1216143073138E-03
(PID.TID 0000.0001) %MON advcfl_W_hf_max              =   7.8347772642340E-03
(PID.TID 0000.0001) %MON pe_b_mean                    =   7.4043597303311E-06
(PID.TID 0000.0001) %MON ke_max                       =   2.5135527259974E-02
(PID.TID 0000.0001) %MON ke_mean                      =   4.5648016081072E-05
(PID.TID 0000.0001) %MON ke_vol                       =   3.6027486600263E+16
(PID.TID 0000.0001) %MON vort_r_min                   =  -3.8435344015890E-07
(PID.TID 0000.0001) %MON vort_r_max                   =   7.4348226655139E-07
(PID.TID 0000.0001) %MON vort_a_mean                  =   6.1944475191297E-05
(PID.TID 0000.0001) %MON vort_a_sd                    =   1.9197650980691E-05
(PID.TID 0000.0001) %MON vort_p_mean                  =   7.7881882182936E-05
(PID.TID 0000.0001) %MON vort_p_sd                    =   5.6368367448533E-05
(PID.TID 0000.0001) %MON surfExpan_theta_mean         =  -3.6760834351735E-07
(PID.TID 0000.0001) %MON surfExpan_salt_mean          =   1.2256786425157E-08
(PID.TID 0000.0001) // =======================================================
(PID.TID 0000.0001) // End MONITOR dynamic field statistics
(PID.TID 0000.0001) // =======================================================
(PID.TID 0000.0001) %CHECKPOINT        20 ckptA
(PID.TID 0000.0001)   Seconds in section "ALL                    [THE_MODEL_MAIN]":
(PID.TID 0000.0001)           User time:  5.89010405
(PID.TID 0000.0001)         System time:  0.283956995
(PID.TID 0000.0001)     Wall clock time:  6.31701803
(PID.TID 0000.0001)          No. starts: 1
(PID.TID 0000.0001)           No. stops: 1
(PID.TID 0000.0001)   Seconds in section "INITIALISE_FIXED       [THE_MODEL_MAIN]":
(PID.TID 0000.0001)           User time:  0.0949850031
(PID.TID 0000.0001)         System time:  0.0239969995
(PID.TID 0000.0001)     Wall clock time:  0.176460028
(PID.TID 0000.0001)          No. starts: 1
(PID.TID 0000.0001)           No. stops: 1
(PID.TID 0000.0001)   Seconds in section "THE_MAIN_LOOP          [THE_MODEL_MAIN]":
(PID.TID 0000.0001)           User time:  5.74412704
(PID.TID 0000.0001)         System time:  0.171973005
(PID.TID 0000.0001)     Wall clock time:  6.00106287
(PID.TID 0000.0001)          No. starts: 1
(PID.TID 0000.0001)           No. stops: 1
(PID.TID 0000.0001)   Seconds in section "INITIALISE_VARIA    [THE_MAIN_LOOP]":
(PID.TID 0000.0001)           User time:  0.564913981
(PID.TID 0000.0001)         System time:  0.0499920025
(PID.TID 0000.0001)     Wall clock time:  0.691293955
(PID.TID 0000.0001)          No. starts: 1
(PID.TID 0000.0001)           No. stops: 1
(PID.TID 0000.0001)   Seconds in section "MAIN LOOP           [THE_MAIN_LOOP]":
(PID.TID 0000.0001)           User time:  5.17821306
(PID.TID 0000.0001)         System time:  0.121981002
(PID.TID 0000.0001)     Wall clock time:  5.30963111
(PID.TID 0000.0001)          No. starts: 1
(PID.TID 0000.0001)           No. stops: 1
(PID.TID 0000.0001)   Seconds in section "FORWARD_STEP        [THE_MAIN_LOOP]":
(PID.TID 0000.0001)           User time:  5.17821306
(PID.TID 0000.0001)         System time:  0.121981002
(PID.TID 0000.0001)     Wall clock time:  5.30876994
(PID.TID 0000.0001)          No. starts: 20
(PID.TID 0000.0001)           No. stops: 20
(PID.TID 0000.0001)   Seconds in section "DO_STATEVARS_DIAGS  [FORWARD_STEP]":
(PID.TID 0000.0001)           User time:  0.
(PID.TID 0000.0001)         System time:  0.
(PID.TID 0000.0001)     Wall clock time:  0.00215816498
(PID.TID 0000.0001)          No. starts: 40
(PID.TID 0000.0001)           No. stops: 40
(PID.TID 0000.0001)   Seconds in section "LOAD_FIELDS_DRIVER  [FORWARD_STEP]":
(PID.TID 0000.0001)           User time:  0.0150010586
(PID.TID 0000.0001)         System time:  0.0049989894
(PID.TID 0000.0001)     Wall clock time:  0.0175118446
(PID.TID 0000.0001)          No. starts: 20
(PID.TID 0000.0001)           No. stops: 20
(PID.TID 0000.0001)   Seconds in section "EXTERNAL_FLDS_LOAD [LOAD_FLDS_DRIVER]":
(PID.TID 0000.0001)           User time:  0.0120003223
(PID.TID 0000.0001)         System time:  0.0049989894
(PID.TID 0000.0001)     Wall clock time:  0.0159101486
(PID.TID 0000.0001)          No. starts: 20
(PID.TID 0000.0001)           No. stops: 20
(PID.TID 0000.0001)   Seconds in section "DO_ATMOSPHERIC_PHYS [FORWARD_STEP]":
(PID.TID 0000.0001)           User time:  0.00200021267
(PID.TID 0000.0001)         System time:  0.
(PID.TID 0000.0001)     Wall clock time:  0.00081038475
(PID.TID 0000.0001)          No. starts: 20
(PID.TID 0000.0001)           No. stops: 20
(PID.TID 0000.0001)   Seconds in section "DO_OCEANIC_PHYS     [FORWARD_STEP]":
(PID.TID 0000.0001)           User time:  1.20981658
(PID.TID 0000.0001)         System time:  0.00399900228
(PID.TID 0000.0001)     Wall clock time:  1.21206141
(PID.TID 0000.0001)          No. starts: 20
(PID.TID 0000.0001)           No. stops: 20
(PID.TID 0000.0001)   Seconds in section "STATEKPP      [KPP_CALC]":
(PID.TID 0000.0001)           User time:  0.215967536
(PID.TID 0000.0001)         System time:  0.00399900228
(PID.TID 0000.0001)     Wall clock time:  0.220882177
(PID.TID 0000.0001)          No. starts: 40
(PID.TID 0000.0001)           No. stops: 40
(PID.TID 0000.0001)   Seconds in section "KPPMIX [KPP_CALC]":
(PID.TID 0000.0001)           User time:  0.481928527
(PID.TID 0000.0001)         System time:  0.
(PID.TID 0000.0001)     Wall clock time:  0.480589867
(PID.TID 0000.0001)          No. starts: 40
(PID.TID 0000.0001)           No. stops: 40
(PID.TID 0000.0001)   Seconds in section "THERMODYNAMICS      [FORWARD_STEP]":
(PID.TID 0000.0001)           User time:  0.908861995
(PID.TID 0000.0001)         System time:  0.00599900633
(PID.TID 0000.0001)     Wall clock time:  0.925792933
(PID.TID 0000.0001)          No. starts: 20
(PID.TID 0000.0001)           No. stops: 20
(PID.TID 0000.0001)   Seconds in section "DYNAMICS            [FORWARD_STEP]":
(PID.TID 0000.0001)           User time:  2.13467366
(PID.TID 0000.0001)         System time:  0.00100000203
(PID.TID 0000.0001)     Wall clock time:  2.13475013
(PID.TID 0000.0001)          No. starts: 20
(PID.TID 0000.0001)           No. stops: 20
(PID.TID 0000.0001)   Seconds in section "SOLVE_FOR_PRESSURE  [FORWARD_STEP]":
(PID.TID 0000.0001)           User time:  0.208968163
(PID.TID 0000.0001)         System time:  0.
(PID.TID 0000.0001)     Wall clock time:  0.211599112
(PID.TID 0000.0001)          No. starts: 20
(PID.TID 0000.0001)           No. stops: 20
(PID.TID 0000.0001)   Seconds in section "MOM_CORRECTION_STEP [FORWARD_STEP]":
(PID.TID 0000.0001)           User time:  0.0709869862
(PID.TID 0000.0001)         System time:  0.00100000203
(PID.TID 0000.0001)     Wall clock time:  0.0689022541
(PID.TID 0000.0001)          No. starts: 20
(PID.TID 0000.0001)           No. stops: 20
(PID.TID 0000.0001)   Seconds in section "TRC_CORRECTION_STEP [FORWARD_STEP]":
(PID.TID 0000.0001)           User time:  0.0279987454
(PID.TID 0000.0001)         System time:  0.
(PID.TID 0000.0001)     Wall clock time:  0.0279183388
(PID.TID 0000.0001)          No. starts: 20
(PID.TID 0000.0001)           No. stops: 20
(PID.TID 0000.0001)   Seconds in section "BLOCKING_EXCHANGES  [FORWARD_STEP]":
(PID.TID 0000.0001)           User time:  0.11898011
(PID.TID 0000.0001)         System time:  0.
(PID.TID 0000.0001)     Wall clock time:  0.118295431
(PID.TID 0000.0001)          No. starts: 20
(PID.TID 0000.0001)           No. stops: 20
(PID.TID 0000.0001)   Seconds in section "DO_STATEVARS_TAVE   [FORWARD_STEP]":
(PID.TID 0000.0001)           User time:  0.
(PID.TID 0000.0001)         System time:  0.
(PID.TID 0000.0001)     Wall clock time:  0.000797986984
(PID.TID 0000.0001)          No. starts: 20
(PID.TID 0000.0001)           No. stops: 20
(PID.TID 0000.0001)   Seconds in section "MONITOR             [FORWARD_STEP]":
(PID.TID 0000.0001)           User time:  0.351948738
(PID.TID 0000.0001)         System time:  0.
(PID.TID 0000.0001)     Wall clock time:  0.350669384
(PID.TID 0000.0001)          No. starts: 20
(PID.TID 0000.0001)           No. stops: 20
(PID.TID 0000.0001)   Seconds in section "DO_THE_MODEL_IO     [FORWARD_STEP]":
(PID.TID 0000.0001)           User time:  0.119978309
(PID.TID 0000.0001)         System time:  0.103983998
(PID.TID 0000.0001)     Wall clock time:  0.223285198
(PID.TID 0000.0001)          No. starts: 20
(PID.TID 0000.0001)           No. stops: 20
(PID.TID 0000.0001)   Seconds in section "DO_WRITE_PICKUP     [FORWARD_STEP]":
(PID.TID 0000.0001)           User time:  0.000999927521
(PID.TID 0000.0001)         System time:  0.
(PID.TID 0000.0001)     Wall clock time:  0.000848770142
(PID.TID 0000.0001)          No. starts: 20
(PID.TID 0000.0001)           No. stops: 20
(PID.TID 0000.0001)   Seconds in section "DO_WRITE_PICKUP        [THE_MODEL_MAIN]":
(PID.TID 0000.0001)           User time:  0.050992012
(PID.TID 0000.0001)         System time:  0.0879869908
(PID.TID 0000.0001)     Wall clock time:  0.139304161
(PID.TID 0000.0001)          No. starts: 1
(PID.TID 0000.0001)           No. stops: 1
(PID.TID 0000.0001) // ======================================================
(PID.TID 0000.0001) // Tile <-> Tile communication statistics
(PID.TID 0000.0001) // ======================================================
(PID.TID 0000.0001) // o Tile number: 000001
(PID.TID 0000.0001) //         No. X exchanges =              0
(PID.TID 0000.0001) //            Max. X spins =              0
(PID.TID 0000.0001) //            Min. X spins =     1000000000
(PID.TID 0000.0001) //          Total. X spins =              0
(PID.TID 0000.0001) //            Avg. X spins =       0.00E+00
(PID.TID 0000.0001) //         No. Y exchanges =              0
(PID.TID 0000.0001) //            Max. Y spins =              0
(PID.TID 0000.0001) //            Min. Y spins =     1000000000
(PID.TID 0000.0001) //          Total. Y spins =              0
(PID.TID 0000.0001) //            Avg. Y spins =       0.00E+00
(PID.TID 0000.0001) // o Tile number: 000002
(PID.TID 0000.0001) //         No. X exchanges =              0
(PID.TID 0000.0001) //            Max. X spins =              0
(PID.TID 0000.0001) //            Min. X spins =     1000000000
(PID.TID 0000.0001) //          Total. X spins =              0
(PID.TID 0000.0001) //            Avg. X spins =       0.00E+00
(PID.TID 0000.0001) //         No. Y exchanges =              0
(PID.TID 0000.0001) //            Max. Y spins =              0
(PID.TID 0000.0001) //            Min. Y spins =     1000000000
(PID.TID 0000.0001) //          Total. Y spins =              0
(PID.TID 0000.0001) //            Avg. Y spins =       0.00E+00
(PID.TID 0000.0001) // o Thread number: 000001
(PID.TID 0000.0001) //            No. barriers =          21216
(PID.TID 0000.0001) //      Max. barrier spins =              1
(PID.TID 0000.0001) //      Min. barrier spins =              1
(PID.TID 0000.0001) //     Total barrier spins =          21216
(PID.TID 0000.0001) //      Avg. barrier spins =       1.00E+00
