(PID.TID 0000.0001) 
(PID.TID 0000.0001) // ======================================================
(PID.TID 0000.0001) //                      MITgcm UV
(PID.TID 0000.0001) //                      =========
(PID.TID 0000.0001) // ======================================================
(PID.TID 0000.0001) // execution environment starting up...
(PID.TID 0000.0001) 
(PID.TID 0000.0001) // MITgcmUV version:  checkpoint67o
(PID.TID 0000.0001) // Build user:        jscott
(PID.TID 0000.0001) // Build host:        c086
(PID.TID 0000.0001) // Build date:        Thu Jan 23 13:52:19 EST 2020
(PID.TID 0000.0001) 
(PID.TID 0000.0001) // =======================================================
(PID.TID 0000.0001) // Execution Environment parameter file "eedata"
(PID.TID 0000.0001) // =======================================================
(PID.TID 0000.0001) ># Example "eedata" file
(PID.TID 0000.0001) ># Lines beginning "#" are comments
(PID.TID 0000.0001) >#  nTx      :: No. threads per process in X
(PID.TID 0000.0001) >#  nTy      :: No. threads per process in Y
(PID.TID 0000.0001) ># debugMode :: print debug msg (sequence of S/R calls)
(PID.TID 0000.0001) > &EEPARMS
(PID.TID 0000.0001) > nTx=1,
(PID.TID 0000.0001) > nTy=1,
(PID.TID 0000.0001) > /
(PID.TID 0000.0001) ># Note: Some systems use & as the namelist terminator (as shown here).
(PID.TID 0000.0001) >#       Other systems use a / character.
(PID.TID 0000.0001) 
(PID.TID 0000.0001) // =======================================================
(PID.TID 0000.0001) // Computational Grid Specification ( see files "SIZE.h" )
(PID.TID 0000.0001) //                                  ( and "eedata"       )
(PID.TID 0000.0001) // =======================================================
(PID.TID 0000.0001)      nPx =    1 ; /* No. processes in X */
(PID.TID 0000.0001)      nPy =    1 ; /* No. processes in Y */
(PID.TID 0000.0001)      nSx =    1 ; /* No. tiles in X per process */
(PID.TID 0000.0001)      nSy =    4 ; /* No. tiles in Y per process */
(PID.TID 0000.0001)      sNx =   20 ; /* Tile size in X */
(PID.TID 0000.0001)      sNy =   10 ; /* Tile size in Y */
(PID.TID 0000.0001)      OLx =    4 ; /* Tile overlap distance in X */
(PID.TID 0000.0001)      OLy =    4 ; /* Tile overlap distance in Y */
(PID.TID 0000.0001)      nTx =    1 ; /* No. threads in X per process */
(PID.TID 0000.0001)      nTy =    1 ; /* No. threads in Y per process */
(PID.TID 0000.0001)       Nr =   49 ; /* No. levels in the vertical   */
(PID.TID 0000.0001)       Nx =   20 ; /* Total domain size in X ( = nPx*nSx*sNx ) */
(PID.TID 0000.0001)       Ny =   40 ; /* Total domain size in Y ( = nPy*nSy*sNy ) */
(PID.TID 0000.0001)   nTiles =    4 ; /* Total no. tiles per process ( = nSx*nSy ) */
(PID.TID 0000.0001)   nProcs =    1 ; /* Total no. processes ( = nPx*nPy ) */
(PID.TID 0000.0001) nThreads =    1 ; /* Total no. threads per process ( = nTx*nTy ) */
(PID.TID 0000.0001) usingMPI =    F ; /* Flag used to control whether MPI is in use */
(PID.TID 0000.0001)                   /*  note: To execute a program with MPI calls */
(PID.TID 0000.0001)                   /*  it must be launched appropriately e.g     */
(PID.TID 0000.0001)                   /*  "mpirun -np 64 ......"                    */
(PID.TID 0000.0001) useCoupler=    F ;/* Flag used to control communications with   */
(PID.TID 0000.0001)                   /*  other model components, through a coupler */
(PID.TID 0000.0001) useNest2W_parent =    F ;/* Control 2-W Nesting comm */
(PID.TID 0000.0001) useNest2W_child  =    F ;/* Control 2-W Nesting comm */
(PID.TID 0000.0001) debugMode =    F ; /* print debug msg. (sequence of S/R calls)  */
(PID.TID 0000.0001) printMapIncludesZeros=    F ; /* print zeros in Std.Output maps */
(PID.TID 0000.0001) maxLengthPrt1D=   65 /* maxLength of 1D array printed to StdOut */
(PID.TID 0000.0001) 
(PID.TID 0000.0001) // ======================================================
(PID.TID 0000.0001) // Mapping of tiles to threads
(PID.TID 0000.0001) // ======================================================
(PID.TID 0000.0001) // -o- Thread   1, tiles (   1:   1,   1:   4)
(PID.TID 0000.0001) 
(PID.TID 0000.0001) // ======================================================
(PID.TID 0000.0001) // Tile <-> Tile connectvity table
(PID.TID 0000.0001) // ======================================================
(PID.TID 0000.0001) // Tile number: 000001 (process no. = 000000)
(PID.TID 0000.0001) //        WEST: Tile = 000001, Process = 000000, Comm = put
(PID.TID 0000.0001) //                bi = 000001, bj = 000001
(PID.TID 0000.0001) //        EAST: Tile = 000001, Process = 000000, Comm = put
(PID.TID 0000.0001) //                bi = 000001, bj = 000001
(PID.TID 0000.0001) //       SOUTH: Tile = 000004, Process = 000000, Comm = put
(PID.TID 0000.0001) //                bi = 000001, bj = 000004
(PID.TID 0000.0001) //       NORTH: Tile = 000002, Process = 000000, Comm = put
(PID.TID 0000.0001) //                bi = 000001, bj = 000002
(PID.TID 0000.0001) // Tile number: 000002 (process no. = 000000)
(PID.TID 0000.0001) //        WEST: Tile = 000002, Process = 000000, Comm = put
(PID.TID 0000.0001) //                bi = 000001, bj = 000002
(PID.TID 0000.0001) //        EAST: Tile = 000002, Process = 000000, Comm = put
(PID.TID 0000.0001) //                bi = 000001, bj = 000002
(PID.TID 0000.0001) //       SOUTH: Tile = 000001, Process = 000000, Comm = put
(PID.TID 0000.0001) //                bi = 000001, bj = 000001
(PID.TID 0000.0001) //       NORTH: Tile = 000003, Process = 000000, Comm = put
(PID.TID 0000.0001) //                bi = 000001, bj = 000003
(PID.TID 0000.0001) // Tile number: 000003 (process no. = 000000)
(PID.TID 0000.0001) //        WEST: Tile = 000003, Process = 000000, Comm = put
(PID.TID 0000.0001) //                bi = 000001, bj = 000003
(PID.TID 0000.0001) //        EAST: Tile = 000003, Process = 000000, Comm = put
(PID.TID 0000.0001) //                bi = 000001, bj = 000003
(PID.TID 0000.0001) //       SOUTH: Tile = 000002, Process = 000000, Comm = put
(PID.TID 0000.0001) //                bi = 000001, bj = 000002
(PID.TID 0000.0001) //       NORTH: Tile = 000004, Process = 000000, Comm = put
(PID.TID 0000.0001) //                bi = 000001, bj = 000004
(PID.TID 0000.0001) // Tile number: 000004 (process no. = 000000)
(PID.TID 0000.0001) //        WEST: Tile = 000004, Process = 000000, Comm = put
(PID.TID 0000.0001) //                bi = 000001, bj = 000004
(PID.TID 0000.0001) //        EAST: Tile = 000004, Process = 000000, Comm = put
(PID.TID 0000.0001) //                bi = 000001, bj = 000004
(PID.TID 0000.0001) //       SOUTH: Tile = 000003, Process = 000000, Comm = put
(PID.TID 0000.0001) //                bi = 000001, bj = 000003
(PID.TID 0000.0001) //       NORTH: Tile = 000001, Process = 000000, Comm = put
(PID.TID 0000.0001) //                bi = 000001, bj = 000001
(PID.TID 0000.0001) 
(PID.TID 0000.0001)  INI_PARMS: opening model parameter file "data"
(PID.TID 0000.0001)  OPEN_COPY_DATA_FILE: opening file data
(PID.TID 0000.0001) // =======================================================
(PID.TID 0000.0001) // Parameter file "data"
(PID.TID 0000.0001) // =======================================================
(PID.TID 0000.0001) ># Model parameters
(PID.TID 0000.0001) ># Continuous equation parameters
(PID.TID 0000.0001) > &PARM01
(PID.TID 0000.0001) ># Viscosity
(PID.TID 0000.0001) > viscAh=2000.,
(PID.TID 0000.0001) > viscAr=3.E-3,
(PID.TID 0000.0001) ># Diffusivity and convection
(PID.TID 0000.0001) > diffKhT=0.,
(PID.TID 0000.0001) > diffKrT=1.E-5,
(PID.TID 0000.0001) > ivdc_kappa=1.,
(PID.TID 0000.0001) > implicitDiffusion=.TRUE.,
(PID.TID 0000.0001) > implicitViscosity=.TRUE.,
(PID.TID 0000.0001) ># Coriolis parameter
(PID.TID 0000.0001) > f0=-1.363e-4,
(PID.TID 0000.0001) > beta=1.313e-11,
(PID.TID 0000.0001) > selectCoriScheme=1,
(PID.TID 0000.0001) ># Density and equation of state
(PID.TID 0000.0001) ># Temp only active tracer, no salinity
(PID.TID 0000.0001) > rhoConst=1035.,
(PID.TID 0000.0001) > rhoNil=1035.,
(PID.TID 0000.0001) > eosType='LINEAR',
(PID.TID 0000.0001) > tAlpha=2.E-4,
(PID.TID 0000.0001) > sBeta =0.E-4,
(PID.TID 0000.0001) > tRef= 49*5.,
(PID.TID 0000.0001) > saltStepping=.FALSE.,
(PID.TID 0000.0001) ># activate partial cells
(PID.TID 0000.0001) > hFacMinDr=5.,
(PID.TID 0000.0001) > hFacMin=0.1,
(PID.TID 0000.0001) ># free surface parameters
(PID.TID 0000.0001) > rigidLid=.FALSE.,
(PID.TID 0000.0001) > implicitFreeSurface=.TRUE.,
(PID.TID 0000.0001) > exactConserv=.TRUE.,
(PID.TID 0000.0001) ># advection scheme
(PID.TID 0000.0001) > tempAdvScheme=7,
(PID.TID 0000.0001) > staggerTimeStep=.TRUE.,
(PID.TID 0000.0001) >#
(PID.TID 0000.0001) >#######################################################
(PID.TID 0000.0001) ># for non-GM run, set horizontal diffusivity non-zero:
(PID.TID 0000.0001) ># diffKhT=1000.,
(PID.TID 0000.0001) >#
(PID.TID 0000.0001) ># uncomment the following for eddy-permitting run:
(PID.TID 0000.0001) ># viscC2Leith = 1.,
(PID.TID 0000.0001) ># useFullLeith=.TRUE.,
(PID.TID 0000.0001) ># viscAhGridMax = 0.5,
(PID.TID 0000.0001) ># useSingleCpuIO=.TRUE.,
(PID.TID 0000.0001) ># and comment out above statement viscAh=2000.,
(PID.TID 0000.0001) > /
(PID.TID 0000.0001) >
(PID.TID 0000.0001) ># Elliptic solver parameters
(PID.TID 0000.0001) > &PARM02
(PID.TID 0000.0001) > cg2dTargetResidual=1.E-7,
(PID.TID 0000.0001) > cg2dMaxIters=1000,
(PID.TID 0000.0001) > /
(PID.TID 0000.0001) >
(PID.TID 0000.0001) ># Time stepping parameters
(PID.TID 0000.0001) > &PARM03
(PID.TID 0000.0001) > nIter0=0,
(PID.TID 0000.0001) > nTimeSteps=10,
(PID.TID 0000.0001) > deltaT=1000.0,
(PID.TID 0000.0001) > pChkptFreq=31104000.0,
(PID.TID 0000.0001) > chkptFreq=15552000.0,
(PID.TID 0000.0001) > dumpFreq=0,
(PID.TID 0000.0001) > monitorFreq=1200.,
(PID.TID 0000.0001) > monitorSelect=2,
(PID.TID 0000.0001) > tauThetaClimRelax=864000.,
(PID.TID 0000.0001) > momDissip_In_AB=.FALSE.,
(PID.TID 0000.0001) >#
(PID.TID 0000.0001) >#######################################################
(PID.TID 0000.0001) ># change monitor frequency for longer run:
(PID.TID 0000.0001) ># monitorFreq=864000.,
(PID.TID 0000.0001) >#
(PID.TID 0000.0001) ># nTimesteps for 30 yrs, coarse:
(PID.TID 0000.0001) ># nTimeSteps=933120,
(PID.TID 0000.0001) >#
(PID.TID 0000.0001) ># nTimesteps for 30 yrs, eddy-permitting:
(PID.TID 0000.0001) ># nTimeSteps=3732480,
(PID.TID 0000.0001) >#
(PID.TID 0000.0001) ># for eddy-permitting run, also need to change timestep:
(PID.TID 0000.0001) ># deltaT=250.0,
(PID.TID 0000.0001) > /
(PID.TID 0000.0001) >
(PID.TID 0000.0001) ># Gridding parameters
(PID.TID 0000.0001) > &PARM04
(PID.TID 0000.0001) > usingCartesianGrid=.TRUE.,
(PID.TID 0000.0001) > delX=20*50.E3,
(PID.TID 0000.0001) > delY=40*50.E3,
(PID.TID 0000.0001) > delR=   5.48716549,   6.19462098,   6.99291201,   7.89353689,
(PID.TID 0000.0001) >         8.90937723,  10.05483267,  11.34595414,  12.80056778,
(PID.TID 0000.0001) >        14.43837763,  16.28102917,  18.35210877,  20.67704362,
(PID.TID 0000.0001) >        23.28285446,  26.1976981 ,  29.45012046,  33.06792588,
(PID.TID 0000.0001) >        37.07656002,  41.496912  ,  46.34247864,  51.61592052,
(PID.TID 0000.0001) >        57.30518684,  63.37960847,  69.78661289,  76.44996107,
(PID.TID 0000.0001) >        83.27047568,  90.13003112,  96.89898027, 103.44631852,
(PID.TID 0000.0001) >       109.65099217, 115.4122275 , 120.65692923, 125.34295968,
(PID.TID 0000.0001) >       129.45821977, 133.01641219, 136.05088105, 138.60793752,
(PID.TID 0000.0001) >       140.74074276, 142.50436556, 143.95220912, 145.133724  ,
(PID.TID 0000.0001) >       146.09317287, 146.86917206, 147.49475454, 147.99774783,
(PID.TID 0000.0001) >       148.40131516, 148.72455653, 148.98310489, 149.18968055,
(PID.TID 0000.0001) >       149.35458582,
(PID.TID 0000.0001) >#
(PID.TID 0000.0001) >#######################################################
(PID.TID 0000.0001) ># for eddy-permitting run, change delX and delY 50->5 km:
(PID.TID 0000.0001) ># delX=200*5.E3,
(PID.TID 0000.0001) ># delY=400*5.E3,
(PID.TID 0000.0001) > /
(PID.TID 0000.0001) >
(PID.TID 0000.0001) ># Input datasets
(PID.TID 0000.0001) > &PARM05
(PID.TID 0000.0001) > bathyFile='bathy.50km.bin'
(PID.TID 0000.0001) > zonalWindFile='zonal_wind.50km.bin',
(PID.TID 0000.0001) > thetaClimFile='SST_relax.50km.bin',
(PID.TID 0000.0001) > hydrogThetaFile='temperature.50km.bin',
(PID.TID 0000.0001) > /
(PID.TID 0000.0001) 
(PID.TID 0000.0001)  INI_PARMS ; starts to read PARM01
(PID.TID 0000.0001)  INI_PARMS ; read PARM01 : OK
(PID.TID 0000.0001)  INI_PARMS ; starts to read PARM02
(PID.TID 0000.0001)  INI_PARMS ; read PARM02 : OK
(PID.TID 0000.0001)  INI_PARMS ; starts to read PARM03
(PID.TID 0000.0001)  INI_PARMS ; read PARM03 : OK
(PID.TID 0000.0001)  INI_PARMS ; starts to read PARM04
(PID.TID 0000.0001)  INI_PARMS ; read PARM04 : OK
(PID.TID 0000.0001)  INI_PARMS ; starts to read PARM05
(PID.TID 0000.0001)  INI_PARMS ; read PARM05 : OK
(PID.TID 0000.0001)  INI_PARMS: finished reading file "data"
(PID.TID 0000.0001)  PACKAGES_BOOT: opening data.pkg
(PID.TID 0000.0001)  OPEN_COPY_DATA_FILE: opening file data.pkg
(PID.TID 0000.0001) // =======================================================
(PID.TID 0000.0001) // Parameter file "data.pkg"
(PID.TID 0000.0001) // =======================================================
(PID.TID 0000.0001) ># Packages
(PID.TID 0000.0001) > &PACKAGES
(PID.TID 0000.0001) > useRBCS=.TRUE.,
(PID.TID 0000.0001) > useGMRedi=.TRUE.,
(PID.TID 0000.0001) ># for non_GM run, uncomment below
(PID.TID 0000.0001) ># useGMRedi=.FALSE.,
(PID.TID 0000.0001) > useDiagnostics=.TRUE.,
(PID.TID 0000.0001) > useLayers=.TRUE.,
(PID.TID 0000.0001) > /
(PID.TID 0000.0001) 
(PID.TID 0000.0001)  PACKAGES_BOOT: finished reading data.pkg
(PID.TID 0000.0001)  PACKAGES_BOOT: On/Off package Summary
 --------  pkgs with a standard "usePKG" On/Off switch in "data.pkg":  --------
 pkg/gmredi               compiled   and   used ( useGMRedi                = T )
 pkg/rbcs                 compiled   and   used ( useRBCS                  = T )
 pkg/diagnostics          compiled   and   used ( useDiagnostics           = T )
 pkg/layers               compiled   and   used ( useLayers                = T )
 -------- pkgs without standard "usePKG" On/Off switch in "data.pkg":  --------
 pkg/generic_advdiff      compiled   and   used ( useGAD                   = T )
 pkg/mom_common           compiled   and   used ( momStepping              = T )
 pkg/mom_vecinv           compiled but not used ( +vectorInvariantMomentum = F )
 pkg/mom_fluxform         compiled   and   used ( & not vectorInvariantMom = T )
 pkg/monitor              compiled   and   used ( monitorFreq > 0.         = T )
 pkg/debug                compiled but not used ( debugMode                = F )
 pkg/rw                   compiled   and   used
 pkg/mdsio                compiled   and   used
(PID.TID 0000.0001)  PACKAGES_BOOT: End of package Summary
(PID.TID 0000.0001) 
(PID.TID 0000.0001)  GM_READPARMS: opening data.gmredi
(PID.TID 0000.0001)  OPEN_COPY_DATA_FILE: opening file data.gmredi
(PID.TID 0000.0001) // =======================================================
(PID.TID 0000.0001) // Parameter file "data.gmredi"
(PID.TID 0000.0001) // =======================================================
(PID.TID 0000.0001) ># GM-Redi package parameters:
(PID.TID 0000.0001) >
(PID.TID 0000.0001) ># GM_background_K:      GM  diffusion coefficient
(PID.TID 0000.0001) ># GM_taper_scheme:      slope clipping or one of the tapering schemes
(PID.TID 0000.0001) >
(PID.TID 0000.0001) > &GM_PARM01
(PID.TID 0000.0001) >  GM_background_K    = 1000.,
(PID.TID 0000.0001) >  GM_taper_scheme    = 'dm95',
(PID.TID 0000.0001) >  GM_AdvForm         =.TRUE.,
(PID.TID 0000.0001) > &end
(PID.TID 0000.0001) 
(PID.TID 0000.0001)  GM_READPARMS: finished reading data.gmredi
(PID.TID 0000.0001)  RBCS_READPARMS: opening data.rbcs
(PID.TID 0000.0001)  OPEN_COPY_DATA_FILE: opening file data.rbcs
(PID.TID 0000.0001) // =======================================================
(PID.TID 0000.0001) // Parameter file "data.rbcs"
(PID.TID 0000.0001) // =======================================================
(PID.TID 0000.0001) ># RBCS package parameters:
(PID.TID 0000.0001) > &RBCS_PARM01
(PID.TID 0000.0001) > useRBCtemp=.TRUE.,
(PID.TID 0000.0001) > tauRelaxT=864000.,
(PID.TID 0000.0001) > relaxMaskFile='T_relax_mask.50km.bin'
(PID.TID 0000.0001) > relaxTFile='temperature.50km.bin',
(PID.TID 0000.0001) > /
(PID.TID 0000.0001) >
(PID.TID 0000.0001) ># RBCS for pTracers (read this namelist only when ptracers pkg is compiled)
(PID.TID 0000.0001) > &RBCS_PARM02
(PID.TID 0000.0001) > /
(PID.TID 0000.0001) 
(PID.TID 0000.0001)  RBCS_READPARMS: finished reading data.rbcs
(PID.TID 0000.0001)  DIAGNOSTICS_READPARMS: opening data.diagnostics
(PID.TID 0000.0001)  OPEN_COPY_DATA_FILE: opening file data.diagnostics
(PID.TID 0000.0001) // =======================================================
(PID.TID 0000.0001) // Parameter file "data.diagnostics"
(PID.TID 0000.0001) // =======================================================
(PID.TID 0000.0001) ># Diagnostic Package Choices
(PID.TID 0000.0001) >#
(PID.TID 0000.0001) > &diagnostics_list
(PID.TID 0000.0001) >
(PID.TID 0000.0001) ># 2D diagnostics
(PID.TID 0000.0001) > fields(1:3,1) = 'TRELAX  ','MXLDEPTH', 'ETAN    ',
(PID.TID 0000.0001) > frequency(1) = 31104000.,
(PID.TID 0000.0001) > filename(1) = 'Diags/2D_diags',
(PID.TID 0000.0001) >
(PID.TID 0000.0001) ># 3D state variables
(PID.TID 0000.0001) > fields(1:8,2) =   'THETA   ', 'VVEL    ', 'UVEL    ',
(PID.TID 0000.0001) >                   'WVEL    ', 'momVort3', 'momHDiv ',
(PID.TID 0000.0001) >                   'CONVADJ ', 'PsiVEL  ',
(PID.TID 0000.0001) > frequency(2) = 31104000.,
(PID.TID 0000.0001) > filename(2) = 'Diags/state',
(PID.TID 0000.0001) >
(PID.TID 0000.0001) ># Heat budget terms
(PID.TID 0000.0001) > fields(1:7,3) = 'ADVx_TH ', 'ADVy_TH ', 'ADVr_TH ',
(PID.TID 0000.0001) >                 'DFxE_TH ', 'DFyE_TH ', 'DFrI_TH ',
(PID.TID 0000.0001) >                 'DFrE_TH ',
(PID.TID 0000.0001) > frequency(3) = 31104000.,
(PID.TID 0000.0001) > filename(3) = 'Diags/heat_3D',
(PID.TID 0000.0001) >
(PID.TID 0000.0001) ># Residual mean flow - Layers Package
(PID.TID 0000.0001) > fields(1:3,4) = 'LaVH1TH ', 'LaHs1TH ', 'LaVa1TH '
(PID.TID 0000.0001) > frequency(4) = 31104000.,
(PID.TID 0000.0001) > fileName(4) = 'Diags/layDiag',
(PID.TID 0000.0001) >
(PID.TID 0000.0001) ># GM diagnostics
(PID.TID 0000.0001) > fields(1:2,5) = 'GM_PsiX ', 'GM_PsiY ',
(PID.TID 0000.0001) > frequency(5) = 31104000.,
(PID.TID 0000.0001) > filename(5) = 'Diags/GM_diags',
(PID.TID 0000.0001) > /
(PID.TID 0000.0001) >
(PID.TID 0000.0001) > &DIAG_STATIS_PARMS
(PID.TID 0000.0001) > stat_fields(1:2,1) =  'THETA   ','TRELAX  ',
(PID.TID 0000.0001) > stat_freq(1) = 864000.,
(PID.TID 0000.0001) > stat_fName(1) = 'dynStDiag',
(PID.TID 0000.0001) > /
(PID.TID 0000.0001) 
(PID.TID 0000.0001) S/R DIAGNOSTICS_READPARMS, read namelist "diagnostics_list": start
(PID.TID 0000.0001) S/R DIAGNOSTICS_READPARMS, read namelist "diagnostics_list": OK
(PID.TID 0000.0001) S/R DIAGNOSTICS_READPARMS, read namelist "DIAG_STATIS_PARMS": start
(PID.TID 0000.0001) S/R DIAGNOSTICS_READPARMS, read namelist "DIAG_STATIS_PARMS": OK
(PID.TID 0000.0001)  DIAGNOSTICS_READPARMS: global parameter summary:
(PID.TID 0000.0001)  dumpAtLast = /* always write time-ave diags at the end */
(PID.TID 0000.0001)                   F
(PID.TID 0000.0001)     ;
(PID.TID 0000.0001)  diag_mnc =   /* write NetCDF output files */
(PID.TID 0000.0001)                   F
(PID.TID 0000.0001)     ;
(PID.TID 0000.0001)  useMissingValue = /* put MissingValue where mask = 0 */
(PID.TID 0000.0001)                   F
(PID.TID 0000.0001)     ;
(PID.TID 0000.0001)  diagCG_maxIters = /* max number of iters in diag_cg2d */
(PID.TID 0000.0001)                    1000
(PID.TID 0000.0001)     ;
(PID.TID 0000.0001)  diagCG_resTarget = /* residual target for diag_cg2d */
(PID.TID 0000.0001)                 1.000000000000000E-07
(PID.TID 0000.0001)     ;
(PID.TID 0000.0001)  diagCG_pcOffDFac = /* preconditioner off-diagonal factor */
(PID.TID 0000.0001)                 9.611687812379854E-01
(PID.TID 0000.0001)     ;
(PID.TID 0000.0001) -----------------------------------------------------
(PID.TID 0000.0001)  DIAGNOSTICS_READPARMS: active diagnostics summary:
(PID.TID 0000.0001) -----------------------------------------------------
(PID.TID 0000.0001) Creating Output Stream: Diags/2D_diags
(PID.TID 0000.0001) Output Frequency:   31104000.000000 ; Phase:           0.000000
(PID.TID 0000.0001)  Averaging Freq.:   31104000.000000 , Phase:           0.000000 , Cycle:   1
(PID.TID 0000.0001)  missing value: -9.990000000000E+02
(PID.TID 0000.0001)  Levels:    will be set later
(PID.TID 0000.0001)  Fields:    TRELAX   MXLDEPTH ETAN
(PID.TID 0000.0001) Creating Output Stream: Diags/state
(PID.TID 0000.0001) Output Frequency:   31104000.000000 ; Phase:           0.000000
(PID.TID 0000.0001)  Averaging Freq.:   31104000.000000 , Phase:           0.000000 , Cycle:   1
(PID.TID 0000.0001)  missing value: -9.990000000000E+02
(PID.TID 0000.0001)  Levels:    will be set later
(PID.TID 0000.0001)  Fields:    THETA    VVEL     UVEL     WVEL     momVort3 momHDiv  CONVADJ  PsiVEL
(PID.TID 0000.0001) Creating Output Stream: Diags/heat_3D
(PID.TID 0000.0001) Output Frequency:   31104000.000000 ; Phase:           0.000000
(PID.TID 0000.0001)  Averaging Freq.:   31104000.000000 , Phase:           0.000000 , Cycle:   1
(PID.TID 0000.0001)  missing value: -9.990000000000E+02
(PID.TID 0000.0001)  Levels:    will be set later
(PID.TID 0000.0001)  Fields:    ADVx_TH  ADVy_TH  ADVr_TH  DFxE_TH  DFyE_TH  DFrI_TH  DFrE_TH
(PID.TID 0000.0001) Creating Output Stream: Diags/layDiag
(PID.TID 0000.0001) Output Frequency:   31104000.000000 ; Phase:           0.000000
(PID.TID 0000.0001)  Averaging Freq.:   31104000.000000 , Phase:           0.000000 , Cycle:   1
(PID.TID 0000.0001)  missing value: -9.990000000000E+02
(PID.TID 0000.0001)  Levels:    will be set later
(PID.TID 0000.0001)  Fields:    LaVH1TH  LaHs1TH  LaVa1TH
(PID.TID 0000.0001) Creating Output Stream: Diags/GM_diags
(PID.TID 0000.0001) Output Frequency:   31104000.000000 ; Phase:           0.000000
(PID.TID 0000.0001)  Averaging Freq.:   31104000.000000 , Phase:           0.000000 , Cycle:   1
(PID.TID 0000.0001)  missing value: -9.990000000000E+02
(PID.TID 0000.0001)  Levels:    will be set later
(PID.TID 0000.0001)  Fields:    GM_PsiX  GM_PsiY
(PID.TID 0000.0001) -----------------------------------------------------
(PID.TID 0000.0001)  DIAGNOSTICS_READPARMS: statistics diags. summary:
(PID.TID 0000.0001) Creating Stats. Output Stream: dynStDiag
(PID.TID 0000.0001) Output Frequency:     864000.000000 ; Phase:           0.000000
(PID.TID 0000.0001)  Regions:   0
(PID.TID 0000.0001)  Fields:    THETA    TRELAX
(PID.TID 0000.0001) -----------------------------------------------------
(PID.TID 0000.0001) 
(PID.TID 0000.0001) LAYERS_READPARMS: opening data.layers
(PID.TID 0000.0001)  OPEN_COPY_DATA_FILE: opening file data.layers
(PID.TID 0000.0001) // =======================================================
(PID.TID 0000.0001) // Parameter file "data.layers"
(PID.TID 0000.0001) // =======================================================
(PID.TID 0000.0001) > &LAYERS_PARM01
(PID.TID 0000.0001) > layers_name(1) ='TH',
(PID.TID 0000.0001) > layers_bounds(1:38,1)= -2.00, -1.75, -1.50, -1.25,
(PID.TID 0000.0001) >                        -1.00, -0.75, -0.50, -0.25,
(PID.TID 0000.0001) >                         0.00,  0.25,  0.50,  0.75,
(PID.TID 0000.0001) >                         1.00,  1.25,  1.50,  1.75,
(PID.TID 0000.0001) >                         2.00,  2.25,  2.50,  2.75,
(PID.TID 0000.0001) >                         3.00,  3.25,  3.50,  3.75,
(PID.TID 0000.0001) >                         4.00,  4.25,  4.50,   5.0,
(PID.TID 0000.0001) >                         5.5,    6.0,   6.5,   7.0,
(PID.TID 0000.0001) >                         7.5,    8.0,   8.5,   9.0,
(PID.TID 0000.0001) >                         9.5,   10.0,
(PID.TID 0000.0001) >#---
(PID.TID 0000.0001) > /
(PID.TID 0000.0001) >
(PID.TID 0000.0001) 
(PID.TID 0000.0001) LAYERS_READPARMS: finished reading data.layers
(PID.TID 0000.0001) SET_PARMS: done
(PID.TID 0000.0001) Enter INI_VERTICAL_GRID: setInterFDr=    T ; setCenterDr=    F
(PID.TID 0000.0001) %MON XC_max                       =   9.7500000000000E+05
(PID.TID 0000.0001) %MON XC_min                       =   2.5000000000000E+04
(PID.TID 0000.0001) %MON XC_mean                      =   5.0000000000000E+05
(PID.TID 0000.0001) %MON XC_sd                        =   2.8831406486677E+05
(PID.TID 0000.0001) %MON XG_max                       =   9.5000000000000E+05
(PID.TID 0000.0001) %MON XG_min                       =   0.0000000000000E+00
(PID.TID 0000.0001) %MON XG_mean                      =   4.7500000000000E+05
(PID.TID 0000.0001) %MON XG_sd                        =   2.8831406486677E+05
(PID.TID 0000.0001) %MON DXC_max                      =   5.0000000000000E+04
(PID.TID 0000.0001) %MON DXC_min                      =   5.0000000000000E+04
(PID.TID 0000.0001) %MON DXC_mean                     =   5.0000000000000E+04
(PID.TID 0000.0001) %MON DXC_sd                       =   0.0000000000000E+00
(PID.TID 0000.0001) %MON DXF_max                      =   5.0000000000000E+04
(PID.TID 0000.0001) %MON DXF_min                      =   5.0000000000000E+04
(PID.TID 0000.0001) %MON DXF_mean                     =   5.0000000000000E+04
(PID.TID 0000.0001) %MON DXF_sd                       =   0.0000000000000E+00
(PID.TID 0000.0001) %MON DXG_max                      =   5.0000000000000E+04
(PID.TID 0000.0001) %MON DXG_min                      =   5.0000000000000E+04
(PID.TID 0000.0001) %MON DXG_mean                     =   5.0000000000000E+04
(PID.TID 0000.0001) %MON DXG_sd                       =   0.0000000000000E+00
(PID.TID 0000.0001) %MON DXV_max                      =   5.0000000000000E+04
(PID.TID 0000.0001) %MON DXV_min                      =   5.0000000000000E+04
(PID.TID 0000.0001) %MON DXV_mean                     =   5.0000000000000E+04
(PID.TID 0000.0001) %MON DXV_sd                       =   0.0000000000000E+00
(PID.TID 0000.0001) %MON YC_max                       =   1.9750000000000E+06
(PID.TID 0000.0001) %MON YC_min                       =   2.5000000000000E+04
(PID.TID 0000.0001) %MON YC_mean                      =   1.0000000000000E+06
(PID.TID 0000.0001) %MON YC_sd                        =   5.7716981903076E+05
(PID.TID 0000.0001) %MON YG_max                       =   1.9500000000000E+06
(PID.TID 0000.0001) %MON YG_min                       =   0.0000000000000E+00
(PID.TID 0000.0001) %MON YG_mean                      =   9.7500000000000E+05
(PID.TID 0000.0001) %MON YG_sd                        =   5.7716981903076E+05
(PID.TID 0000.0001) %MON DYC_max                      =   5.0000000000000E+04
(PID.TID 0000.0001) %MON DYC_min                      =   5.0000000000000E+04
(PID.TID 0000.0001) %MON DYC_mean                     =   5.0000000000000E+04
(PID.TID 0000.0001) %MON DYC_sd                       =   0.0000000000000E+00
(PID.TID 0000.0001) %MON DYF_max                      =   5.0000000000000E+04
(PID.TID 0000.0001) %MON DYF_min                      =   5.0000000000000E+04
(PID.TID 0000.0001) %MON DYF_mean                     =   5.0000000000000E+04
(PID.TID 0000.0001) %MON DYF_sd                       =   0.0000000000000E+00
(PID.TID 0000.0001) %MON DYG_max                      =   5.0000000000000E+04
(PID.TID 0000.0001) %MON DYG_min                      =   5.0000000000000E+04
(PID.TID 0000.0001) %MON DYG_mean                     =   5.0000000000000E+04
(PID.TID 0000.0001) %MON DYG_sd                       =   0.0000000000000E+00
(PID.TID 0000.0001) %MON DYU_max                      =   5.0000000000000E+04
(PID.TID 0000.0001) %MON DYU_min                      =   5.0000000000000E+04
(PID.TID 0000.0001) %MON DYU_mean                     =   5.0000000000000E+04
(PID.TID 0000.0001) %MON DYU_sd                       =   0.0000000000000E+00
(PID.TID 0000.0001) %MON RA_max                       =   2.5000000000000E+09
(PID.TID 0000.0001) %MON RA_min                       =   2.5000000000000E+09
(PID.TID 0000.0001) %MON RA_mean                      =   2.5000000000000E+09
(PID.TID 0000.0001) %MON RA_sd                        =   0.0000000000000E+00
(PID.TID 0000.0001) %MON RAW_max                      =   2.5000000000000E+09
(PID.TID 0000.0001) %MON RAW_min                      =   2.5000000000000E+09
(PID.TID 0000.0001) %MON RAW_mean                     =   2.5000000000000E+09
(PID.TID 0000.0001) %MON RAW_sd                       =   0.0000000000000E+00
(PID.TID 0000.0001) %MON RAS_max                      =   2.5000000000000E+09
(PID.TID 0000.0001) %MON RAS_min                      =   2.5000000000000E+09
(PID.TID 0000.0001) %MON RAS_mean                     =   2.5000000000000E+09
(PID.TID 0000.0001) %MON RAS_sd                       =   0.0000000000000E+00
(PID.TID 0000.0001) %MON RAZ_max                      =   2.5000000000000E+09
(PID.TID 0000.0001) %MON RAZ_min                      =   2.5000000000000E+09
(PID.TID 0000.0001) %MON RAZ_mean                     =   2.5000000000000E+09
(PID.TID 0000.0001) %MON RAZ_sd                       =   0.0000000000000E+00
(PID.TID 0000.0001) %MON AngleCS_max                  =   1.0000000000000E+00
(PID.TID 0000.0001) %MON AngleCS_min                  =   1.0000000000000E+00
(PID.TID 0000.0001) %MON AngleCS_mean                 =   1.0000000000000E+00
(PID.TID 0000.0001) %MON AngleCS_sd                   =   0.0000000000000E+00
(PID.TID 0000.0001) %MON AngleSN_max                  =   0.0000000000000E+00
(PID.TID 0000.0001) %MON AngleSN_min                  =   0.0000000000000E+00
(PID.TID 0000.0001) %MON AngleSN_mean                 =   0.0000000000000E+00
(PID.TID 0000.0001) %MON AngleSN_sd                   =   0.0000000000000E+00
(PID.TID 0000.0001)  MDS_READ_FIELD: opening global file: bathy.50km.bin
(PID.TID 0000.0001) // =======================================================
(PID.TID 0000.0001) // Field Model R_low (ini_masks_etc)
(PID.TID 0000.0001) // CMIN =         -3.982260742187500E+03
(PID.TID 0000.0001) // CMAX =         -1.982260864257812E+03
(PID.TID 0000.0001) // CINT =          7.407406955295139E+01
(PID.TID 0000.0001) // SYMBOLS (CMIN->CMAX): -abcdefghijklmnopqrstuvwxyz+
(PID.TID 0000.0001) //                  0.0: .
(PID.TID 0000.0001) // RANGE I (Lo:Hi:Step):(    -3:    24:     1)
(PID.TID 0000.0001) // RANGE J (Lo:Hi:Step):(    44:    -3:    -1)
(PID.TID 0000.0001) // RANGE K (Lo:Hi:Step):(   1:   1:   1)
(PID.TID 0000.0001) // =======================================================
(PID.TID 0000.0001) K =   1
(PID.TID 0000.0001) //                I=6       I=16
(PID.TID 0000.0001) // |--J--|321012345|789012345|78901234
(PID.TID 0000.0001) //     44 ----------jsy+ysj-----------
(PID.TID 0000.0001) //     43 ----------jsy+ysj-----------
(PID.TID 0000.0001) //     42 ----------jsy+ysj-----------
(PID.TID 0000.0001) //     41 ............................
(PID.TID 0000.0001) //     40 ----------jsy+ysj-----------
(PID.TID 0000.0001) //     39 ----------jsy+ysj-----------
(PID.TID 0000.0001) //     38 ----------jsy+ysj-----------
(PID.TID 0000.0001) //     37 ----------jsy+ysj-----------
(PID.TID 0000.0001) //     36 ----------jsy+ysj-----------
(PID.TID 0000.0001) //     35 ----------jsy+ysj-----------
(PID.TID 0000.0001) //     34 ----------jsy+ysj-----------
(PID.TID 0000.0001) //     33 ----------jsy+ysj-----------
(PID.TID 0000.0001) //     32 ----------jsy+ysj-----------
(PID.TID 0000.0001) //     31 ----------jsy+ysj-----------
(PID.TID 0000.0001) //     30 ----------jsy+ysj-----------
(PID.TID 0000.0001) //     29 ----------jsy+ysj-----------
(PID.TID 0000.0001) //     28 ----------jsy+ysj-----------
(PID.TID 0000.0001) //     27 ----------jsy+ysj-----------
(PID.TID 0000.0001) //     34 ----------jsy+ysj-----------
(PID.TID 0000.0001) //     33 ----------jsy+ysj-----------
(PID.TID 0000.0001) //     32 ----------jsy+ysj-----------
(PID.TID 0000.0001) //     31 ----------jsy+ysj-----------
(PID.TID 0000.0001) //     30 ----------jsy+ysj-----------
(PID.TID 0000.0001) //     29 ----------jsy+ysj-----------
(PID.TID 0000.0001) //     28 ----------jsy+ysj-----------
(PID.TID 0000.0001) //     27 ----------jsy+ysj-----------
(PID.TID 0000.0001) //     26 ----------jsy+ysj-----------
(PID.TID 0000.0001) //     25 ----------hotvtoh-----------
(PID.TID 0000.0001) //     24 ----------fkopokf-----------
(PID.TID 0000.0001) //     23 ----------dhjkjhd-----------
(PID.TID 0000.0001) //     22 ----------bdeeedb-----------
(PID.TID 0000.0001) //     21 ----------------------------
(PID.TID 0000.0001) //     20 ----------------------------
(PID.TID 0000.0001) //     19 ----------------------------
(PID.TID 0000.0001) //     18 ----------bdeeedb-----------
(PID.TID 0000.0001) //     17 ----------dhjkjhd-----------
(PID.TID 0000.0001) //     24 ----------fkopokf-----------
(PID.TID 0000.0001) //     23 ----------dhjkjhd-----------
(PID.TID 0000.0001) //     22 ----------bdeeedb-----------
(PID.TID 0000.0001) //     21 ----------------------------
(PID.TID 0000.0001) //     20 ----------------------------
(PID.TID 0000.0001) //     19 ----------------------------
(PID.TID 0000.0001) //     18 ----------bdeeedb-----------
(PID.TID 0000.0001) //     17 ----------dhjkjhd-----------
(PID.TID 0000.0001) //     16 ----------fkopokf-----------
(PID.TID 0000.0001) //     15 ----------hotvtoh-----------
(PID.TID 0000.0001) //     14 ----------jsy+ysj-----------
(PID.TID 0000.0001) //     13 ----------jsy+ysj-----------
(PID.TID 0000.0001) //     12 ----------jsy+ysj-----------
(PID.TID 0000.0001) //     11 ----------jsy+ysj-----------
(PID.TID 0000.0001) //     10 ----------jsy+ysj-----------
(PID.TID 0000.0001) //      9 ----------jsy+ysj-----------
(PID.TID 0000.0001) //      8 ----------jsy+ysj-----------
(PID.TID 0000.0001) //      7 ----------jsy+ysj-----------
(PID.TID 0000.0001) //     14 ----------jsy+ysj-----------
(PID.TID 0000.0001) //     13 ----------jsy+ysj-----------
(PID.TID 0000.0001) //     12 ----------jsy+ysj-----------
(PID.TID 0000.0001) //     11 ----------jsy+ysj-----------
(PID.TID 0000.0001) //     10 ----------jsy+ysj-----------
(PID.TID 0000.0001) //      9 ----------jsy+ysj-----------
(PID.TID 0000.0001) //      8 ----------jsy+ysj-----------
(PID.TID 0000.0001) //      7 ----------jsy+ysj-----------
(PID.TID 0000.0001) //      6 ----------jsy+ysj-----------
(PID.TID 0000.0001) //      5 ----------jsy+ysj-----------
(PID.TID 0000.0001) //      4 ----------jsy+ysj-----------
(PID.TID 0000.0001) //      3 ----------jsy+ysj-----------
(PID.TID 0000.0001) //      2 ----------jsy+ysj-----------
(PID.TID 0000.0001) //      1 ............................
(PID.TID 0000.0001) //      0 ----------jsy+ysj-----------
(PID.TID 0000.0001) //     -1 ----------jsy+ysj-----------
(PID.TID 0000.0001) //     -2 ----------jsy+ysj-----------
(PID.TID 0000.0001) //     -3 ----------jsy+ysj-----------
(PID.TID 0000.0001) // =======================================================
(PID.TID 0000.0001) // END OF FIELD                                          =
(PID.TID 0000.0001) // =======================================================
(PID.TID 0000.0001) 
(PID.TID 0000.0001) // =======================================================
(PID.TID 0000.0001) // Field Model Ro_surf (ini_masks_etc)
(PID.TID 0000.0001) // CMIN =          1.000000000000000E+32
(PID.TID 0000.0001) // CMAX =         -1.000000000000000E+32
(PID.TID 0000.0001) // CINT =          0.000000000000000E+00
(PID.TID 0000.0001) // SYMBOLS (CMIN->CMAX): -abcdefghijklmnopqrstuvwxyz+
(PID.TID 0000.0001) //                  0.0: .
(PID.TID 0000.0001) // RANGE I (Lo:Hi:Step):(    -3:    24:     1)
(PID.TID 0000.0001) // RANGE J (Lo:Hi:Step):(    44:    -3:    -1)
(PID.TID 0000.0001) // RANGE K (Lo:Hi:Step):(   1:   1:   1)
(PID.TID 0000.0001) // =======================================================
(PID.TID 0000.0001) // =======================================================
(PID.TID 0000.0001) // END OF FIELD                                          =
(PID.TID 0000.0001) // =======================================================
(PID.TID 0000.0001) 
(PID.TID 0000.0001) // =======================================================
(PID.TID 0000.0001) // Field hFacC at iteration          0
(PID.TID 0000.0001) // CMIN =          1.000000000000000E+00
(PID.TID 0000.0001) // CMAX =          1.000000000000000E+00
(PID.TID 0000.0001) // CINT =          0.000000000000000E+00
(PID.TID 0000.0001) // SYMBOLS (CMIN->CMAX): -abcdefghijklmnopqrstuvwxyz+
(PID.TID 0000.0001) //                  0.0: .
(PID.TID 0000.0001) // RANGE I (Lo:Hi:Step):(    -3:    24:     1)
(PID.TID 0000.0001) // RANGE J (Lo:Hi:Step):(    44:    -3:    -1)
(PID.TID 0000.0001) // RANGE K (Lo:Hi:Step):(   1:   1:   1)
(PID.TID 0000.0001) // =======================================================
(PID.TID 0000.0001) // =======================================================
(PID.TID 0000.0001) // END OF FIELD                                          =
(PID.TID 0000.0001) // =======================================================
(PID.TID 0000.0001) 
(PID.TID 0000.0001) // =======================================================
(PID.TID 0000.0001) // Field hFacW at iteration          0
(PID.TID 0000.0001) // CMIN =          1.000000000000000E+00
(PID.TID 0000.0001) // CMAX =          1.000000000000000E+00
(PID.TID 0000.0001) // CINT =          0.000000000000000E+00
(PID.TID 0000.0001) // SYMBOLS (CMIN->CMAX): -abcdefghijklmnopqrstuvwxyz+
(PID.TID 0000.0001) //                  0.0: .
(PID.TID 0000.0001) // RANGE I (Lo:Hi:Step):(    -3:    24:     1)
(PID.TID 0000.0001) // RANGE J (Lo:Hi:Step):(    44:    -3:    -1)
(PID.TID 0000.0001) // RANGE K (Lo:Hi:Step):(   1:   1:   1)
(PID.TID 0000.0001) // =======================================================
(PID.TID 0000.0001) // =======================================================
(PID.TID 0000.0001) // END OF FIELD                                          =
(PID.TID 0000.0001) // =======================================================
(PID.TID 0000.0001) 
(PID.TID 0000.0001) // =======================================================
(PID.TID 0000.0001) // Field hFacS at iteration          0
(PID.TID 0000.0001) // CMIN =          1.000000000000000E+00
(PID.TID 0000.0001) // CMAX =          1.000000000000000E+00
(PID.TID 0000.0001) // CINT =          0.000000000000000E+00
(PID.TID 0000.0001) // SYMBOLS (CMIN->CMAX): -abcdefghijklmnopqrstuvwxyz+
(PID.TID 0000.0001) //                  0.0: .
(PID.TID 0000.0001) // RANGE I (Lo:Hi:Step):(    -3:    24:     1)
(PID.TID 0000.0001) // RANGE J (Lo:Hi:Step):(    44:    -3:    -1)
(PID.TID 0000.0001) // RANGE K (Lo:Hi:Step):(   1:   1:   1)
(PID.TID 0000.0001) // =======================================================
(PID.TID 0000.0001) // =======================================================
(PID.TID 0000.0001) // END OF FIELD                                          =
(PID.TID 0000.0001) // =======================================================
(PID.TID 0000.0001) 
(PID.TID 0000.0001) GAD_INIT_FIXED: GAD_OlMinSize=  4  0  1
(PID.TID 0000.0001) 
(PID.TID 0000.0001) // ===================================
(PID.TID 0000.0001) // GAD parameters :
(PID.TID 0000.0001) // ===================================
(PID.TID 0000.0001) tempAdvScheme =   /* Temp. Horiz.Advection scheme selector */
(PID.TID 0000.0001)                       7
(PID.TID 0000.0001)     ;
(PID.TID 0000.0001) tempVertAdvScheme =   /* Temp. Vert. Advection scheme selector */
(PID.TID 0000.0001)                       7
(PID.TID 0000.0001)     ;
(PID.TID 0000.0001) tempMultiDimAdvec =   /* use Muti-Dim Advec method for Temp */
(PID.TID 0000.0001)                   T
(PID.TID 0000.0001)     ;
(PID.TID 0000.0001) tempSOM_Advection = /* use 2nd Order Moment Advection for Temp */
(PID.TID 0000.0001)                   F
(PID.TID 0000.0001)     ;
(PID.TID 0000.0001) AdamsBashforthGt = /* apply Adams-Bashforth extrapolation on Gt */
(PID.TID 0000.0001)                   F
(PID.TID 0000.0001)     ;
(PID.TID 0000.0001) AdamsBashforth_T = /* apply Adams-Bashforth extrapolation on Temp */
(PID.TID 0000.0001)                   F
(PID.TID 0000.0001)     ;
(PID.TID 0000.0001) saltAdvScheme =   /* Salt. Horiz.advection scheme selector */
(PID.TID 0000.0001)                       2
(PID.TID 0000.0001)     ;
(PID.TID 0000.0001) saltVertAdvScheme =   /* Salt. Vert. Advection scheme selector */
(PID.TID 0000.0001)                       2
(PID.TID 0000.0001)     ;
(PID.TID 0000.0001) saltMultiDimAdvec =   /* use Muti-Dim Advec method for Salt */
(PID.TID 0000.0001)                   F
(PID.TID 0000.0001)     ;
(PID.TID 0000.0001) saltSOM_Advection = /* use 2nd Order Moment Advection for Salt */
(PID.TID 0000.0001)                   F
(PID.TID 0000.0001)     ;
(PID.TID 0000.0001) AdamsBashforthGs = /* apply Adams-Bashforth extrapolation on Gs */
(PID.TID 0000.0001)                   F
(PID.TID 0000.0001)     ;
(PID.TID 0000.0001) AdamsBashforth_S = /* apply Adams-Bashforth extrapolation on Salt */
(PID.TID 0000.0001)                   F
(PID.TID 0000.0001)     ;
(PID.TID 0000.0001) // ===================================
(PID.TID 0000.0001) 
(PID.TID 0000.0001)  ---  RBCS_INIT_FIXED: setting RBCS mask  ---
(PID.TID 0000.0001) Use relaxMaskFile(irbc=  1) = "T_relax_mask.50km.bin"
(PID.TID 0000.0001)  for Temp  relaxation with tauRelaxT =  8.6400000000000E+05
(PID.TID 0000.0001)  MDS_READ_FIELD: opening global file: T_relax_mask.50km.bin
(PID.TID 0000.0001)  ---  RBCS_INIT_FIXED: setting RBCS mask done
(PID.TID 0000.0001) LAYERS_INIT_FIXED Debugging:
(PID.TID 0000.0001) // ZZc=   0.3, MapIndex(  1)=  1, MapFact(  1)=1.0000, CellIndex(  1)=  1
(PID.TID 0000.0001) // ZZc=   0.8, MapIndex(  2)=  1, MapFact(  2)=1.0000, CellIndex(  2)=  1
(PID.TID 0000.0001) // ZZc=   1.4, MapIndex(  3)=  1, MapFact(  3)=1.0000, CellIndex(  3)=  1
(PID.TID 0000.0001) // ZZc=   1.9, MapIndex(  4)=  1, MapFact(  4)=1.0000, CellIndex(  4)=  1
(PID.TID 0000.0001) // ZZc=   2.5, MapIndex(  5)=  1, MapFact(  5)=1.0000, CellIndex(  5)=  1
(PID.TID 0000.0001) // ZZc=   3.0, MapIndex(  6)=  1, MapFact(  6)=0.9530, CellIndex(  6)=  1
(PID.TID 0000.0001) // ZZc=   3.6, MapIndex(  7)=  1, MapFact(  7)=0.8591, CellIndex(  7)=  1
(PID.TID 0000.0001) // ZZc=   4.1, MapIndex(  8)=  1, MapFact(  8)=0.7651, CellIndex(  8)=  1
(PID.TID 0000.0001) // ZZc=   4.7, MapIndex(  9)=  1, MapFact(  9)=0.6712, CellIndex(  9)=  1
(PID.TID 0000.0001) // ZZc=   5.2, MapIndex( 10)=  1, MapFact( 10)=0.5773, CellIndex( 10)=  1
(PID.TID 0000.0001) // ZZc=   5.8, MapIndex( 11)=  1, MapFact( 11)=0.4773, CellIndex( 11)=  2
(PID.TID 0000.0001) // ZZc=   6.4, MapIndex( 12)=  1, MapFact( 12)=0.3712, CellIndex( 12)=  2
(PID.TID 0000.0001) // ZZc=   7.0, MapIndex( 13)=  1, MapFact( 13)=0.2651, CellIndex( 13)=  2
(PID.TID 0000.0001) // ZZc=   7.7, MapIndex( 14)=  1, MapFact( 14)=0.1591, CellIndex( 14)=  2
(PID.TID 0000.0001) // ZZc=   8.3, MapIndex( 15)=  1, MapFact( 15)=0.0530, CellIndex( 15)=  2
(PID.TID 0000.0001) // ZZc=   8.9, MapIndex( 16)=  2, MapFact( 16)=0.9530, CellIndex( 16)=  2
(PID.TID 0000.0001) // ZZc=   9.5, MapIndex( 17)=  2, MapFact( 17)=0.8591, CellIndex( 17)=  2
(PID.TID 0000.0001) // ZZc=  10.1, MapIndex( 18)=  2, MapFact( 18)=0.7651, CellIndex( 18)=  2
(PID.TID 0000.0001) // ZZc=  10.8, MapIndex( 19)=  2, MapFact( 19)=0.6712, CellIndex( 19)=  2
(PID.TID 0000.0001) // ZZc=  11.4, MapIndex( 20)=  2, MapFact( 20)=0.5772, CellIndex( 20)=  2
(PID.TID 0000.0001) // ZZc=  12.0, MapIndex( 21)=  2, MapFact( 21)=0.4772, CellIndex( 21)=  3
(PID.TID 0000.0001) // ZZc=  12.7, MapIndex( 22)=  2, MapFact( 22)=0.3712, CellIndex( 22)=  3
(PID.TID 0000.0001) // ZZc=  13.4, MapIndex( 23)=  2, MapFact( 23)=0.2651, CellIndex( 23)=  3
(PID.TID 0000.0001) // ZZc=  14.1, MapIndex( 24)=  2, MapFact( 24)=0.1591, CellIndex( 24)=  3
(PID.TID 0000.0001) // ZZc=  14.8, MapIndex( 25)=  2, MapFact( 25)=0.0530, CellIndex( 25)=  3
(PID.TID 0000.0001) // ZZc=  15.5, MapIndex( 26)=  3, MapFact( 26)=0.9530, CellIndex( 26)=  3
(PID.TID 0000.0001) // ZZc=  16.2, MapIndex( 27)=  3, MapFact( 27)=0.8591, CellIndex( 27)=  3
(PID.TID 0000.0001) // ZZc=  16.9, MapIndex( 28)=  3, MapFact( 28)=0.7651, CellIndex( 28)=  3
(PID.TID 0000.0001) // ZZc=  17.6, MapIndex( 29)=  3, MapFact( 29)=0.6712, CellIndex( 29)=  3
(PID.TID 0000.0001) // ZZc=  18.3, MapIndex( 30)=  3, MapFact( 30)=0.5772, CellIndex( 30)=  3
(PID.TID 0000.0001) // ZZc=  19.1, MapIndex( 31)=  3, MapFact( 31)=0.4772, CellIndex( 31)=  4
(PID.TID 0000.0001) // ZZc=  19.9, MapIndex( 32)=  3, MapFact( 32)=0.3712, CellIndex( 32)=  4
(PID.TID 0000.0001) // ZZc=  20.6, MapIndex( 33)=  3, MapFact( 33)=0.2651, CellIndex( 33)=  4
(PID.TID 0000.0001) // ZZc=  21.4, MapIndex( 34)=  3, MapFact( 34)=0.1591, CellIndex( 34)=  4
(PID.TID 0000.0001) // ZZc=  22.2, MapIndex( 35)=  3, MapFact( 35)=0.0530, CellIndex( 35)=  4
(PID.TID 0000.0001) // ZZc=  23.0, MapIndex( 36)=  4, MapFact( 36)=0.9530, CellIndex( 36)=  4
(PID.TID 0000.0001) // ZZc=  23.8, MapIndex( 37)=  4, MapFact( 37)=0.8591, CellIndex( 37)=  4
(PID.TID 0000.0001) // ZZc=  24.6, MapIndex( 38)=  4, MapFact( 38)=0.7651, CellIndex( 38)=  4
(PID.TID 0000.0001) // ZZc=  25.4, MapIndex( 39)=  4, MapFact( 39)=0.6712, CellIndex( 39)=  4
(PID.TID 0000.0001) // ZZc=  26.2, MapIndex( 40)=  4, MapFact( 40)=0.5772, CellIndex( 40)=  4
(PID.TID 0000.0001) // ZZc=  27.0, MapIndex( 41)=  4, MapFact( 41)=0.4772, CellIndex( 41)=  5
(PID.TID 0000.0001) // ZZc=  27.9, MapIndex( 42)=  4, MapFact( 42)=0.3712, CellIndex( 42)=  5
(PID.TID 0000.0001) // ZZc=  28.8, MapIndex( 43)=  4, MapFact( 43)=0.2651, CellIndex( 43)=  5
(PID.TID 0000.0001) // ZZc=  29.7, MapIndex( 44)=  4, MapFact( 44)=0.1591, CellIndex( 44)=  5
(PID.TID 0000.0001) // ZZc=  30.6, MapIndex( 45)=  4, MapFact( 45)=0.0530, CellIndex( 45)=  5
(PID.TID 0000.0001) // ZZc=  31.5, MapIndex( 46)=  5, MapFact( 46)=0.9530, CellIndex( 46)=  5
(PID.TID 0000.0001) // ZZc=  32.4, MapIndex( 47)=  5, MapFact( 47)=0.8591, CellIndex( 47)=  5
(PID.TID 0000.0001) // ZZc=  33.3, MapIndex( 48)=  5, MapFact( 48)=0.7651, CellIndex( 48)=  5
(PID.TID 0000.0001) // ZZc=  34.1, MapIndex( 49)=  5, MapFact( 49)=0.6711, CellIndex( 49)=  5
(PID.TID 0000.0001) // ZZc=  35.0, MapIndex( 50)=  5, MapFact( 50)=0.5772, CellIndex( 50)=  5
(PID.TID 0000.0001) // ZZc=  36.0, MapIndex( 51)=  5, MapFact( 51)=0.4772, CellIndex( 51)=  6
(PID.TID 0000.0001) // ZZc=  37.0, MapIndex( 52)=  5, MapFact( 52)=0.3711, CellIndex( 52)=  6
(PID.TID 0000.0001) // ZZc=  38.0, MapIndex( 53)=  5, MapFact( 53)=0.2651, CellIndex( 53)=  6
(PID.TID 0000.0001) // ZZc=  39.0, MapIndex( 54)=  5, MapFact( 54)=0.1591, CellIndex( 54)=  6
(PID.TID 0000.0001) // ZZc=  40.0, MapIndex( 55)=  5, MapFact( 55)=0.0530, CellIndex( 55)=  6
(PID.TID 0000.0001) // ZZc=  41.0, MapIndex( 56)=  6, MapFact( 56)=0.9530, CellIndex( 56)=  6
(PID.TID 0000.0001) // ZZc=  42.0, MapIndex( 57)=  6, MapFact( 57)=0.8590, CellIndex( 57)=  6
(PID.TID 0000.0001) // ZZc=  43.0, MapIndex( 58)=  6, MapFact( 58)=0.7651, CellIndex( 58)=  6
(PID.TID 0000.0001) // ZZc=  44.0, MapIndex( 59)=  6, MapFact( 59)=0.6711, CellIndex( 59)=  6
(PID.TID 0000.0001) // ZZc=  45.0, MapIndex( 60)=  6, MapFact( 60)=0.5771, CellIndex( 60)=  6
(PID.TID 0000.0001) // ZZc=  46.1, MapIndex( 61)=  6, MapFact( 61)=0.4771, CellIndex( 61)=  7
(PID.TID 0000.0001) // ZZc=  47.2, MapIndex( 62)=  6, MapFact( 62)=0.3711, CellIndex( 62)=  7
(PID.TID 0000.0001) // ZZc=  48.4, MapIndex( 63)=  6, MapFact( 63)=0.2651, CellIndex( 63)=  7
(PID.TID 0000.0001) // ZZc=  49.5, MapIndex( 64)=  6, MapFact( 64)=0.1590, CellIndex( 64)=  7
(PID.TID 0000.0001) // ZZc=  50.6, MapIndex( 65)=  6, MapFact( 65)=0.0530, CellIndex( 65)=  7
(PID.TID 0000.0001) // ZZc=  51.8, MapIndex( 66)=  7, MapFact( 66)=0.9530, CellIndex( 66)=  7
(PID.TID 0000.0001) // ZZc=  52.9, MapIndex( 67)=  7, MapFact( 67)=0.8590, CellIndex( 67)=  7
(PID.TID 0000.0001) // ZZc=  54.0, MapIndex( 68)=  7, MapFact( 68)=0.7651, CellIndex( 68)=  7
(PID.TID 0000.0001) // ZZc=  55.2, MapIndex( 69)=  7, MapFact( 69)=0.6711, CellIndex( 69)=  7
(PID.TID 0000.0001) // ZZc=  56.3, MapIndex( 70)=  7, MapFact( 70)=0.5771, CellIndex( 70)=  7
(PID.TID 0000.0001) // ZZc=  57.5, MapIndex( 71)=  7, MapFact( 71)=0.4771, CellIndex( 71)=  8
(PID.TID 0000.0001) // ZZc=  58.8, MapIndex( 72)=  7, MapFact( 72)=0.3711, CellIndex( 72)=  8
(PID.TID 0000.0001) // ZZc=  60.1, MapIndex( 73)=  7, MapFact( 73)=0.2651, CellIndex( 73)=  8
(PID.TID 0000.0001) // ZZc=  61.4, MapIndex( 74)=  7, MapFact( 74)=0.1590, CellIndex( 74)=  8
(PID.TID 0000.0001) // ZZc=  62.6, MapIndex( 75)=  7, MapFact( 75)=0.0530, CellIndex( 75)=  8
(PID.TID 0000.0001) // ZZc=  63.9, MapIndex( 76)=  8, MapFact( 76)=0.9530, CellIndex( 76)=  8
(PID.TID 0000.0001) // ZZc=  65.2, MapIndex( 77)=  8, MapFact( 77)=0.8590, CellIndex( 77)=  8
(PID.TID 0000.0001) // ZZc=  66.5, MapIndex( 78)=  8, MapFact( 78)=0.7650, CellIndex( 78)=  8
(PID.TID 0000.0001) // ZZc=  67.8, MapIndex( 79)=  8, MapFact( 79)=0.6710, CellIndex( 79)=  8
(PID.TID 0000.0001) // ZZc=  69.0, MapIndex( 80)=  8, MapFact( 80)=0.5771, CellIndex( 80)=  8
(PID.TID 0000.0001) // ZZc=  70.4, MapIndex( 81)=  8, MapFact( 81)=0.4771, CellIndex( 81)=  9
(PID.TID 0000.0001) // ZZc=  71.8, MapIndex( 82)=  8, MapFact( 82)=0.3710, CellIndex( 82)=  9
(PID.TID 0000.0001) // ZZc=  73.3, MapIndex( 83)=  8, MapFact( 83)=0.2650, CellIndex( 83)=  9
(PID.TID 0000.0001) // ZZc=  74.7, MapIndex( 84)=  8, MapFact( 84)=0.1590, CellIndex( 84)=  9
(PID.TID 0000.0001) // ZZc=  76.2, MapIndex( 85)=  8, MapFact( 85)=0.0530, CellIndex( 85)=  9
(PID.TID 0000.0001) // ZZc=  77.6, MapIndex( 86)=  9, MapFact( 86)=0.9530, CellIndex( 86)=  9
(PID.TID 0000.0001) // ZZc=  79.1, MapIndex( 87)=  9, MapFact( 87)=0.8590, CellIndex( 87)=  9
(PID.TID 0000.0001) // ZZc=  80.5, MapIndex( 88)=  9, MapFact( 88)=0.7650, CellIndex( 88)=  9
(PID.TID 0000.0001) // ZZc=  82.0, MapIndex( 89)=  9, MapFact( 89)=0.6710, CellIndex( 89)=  9
(PID.TID 0000.0001) // ZZc=  83.4, MapIndex( 90)=  9, MapFact( 90)=0.5770, CellIndex( 90)=  9
(PID.TID 0000.0001) // ZZc=  84.9, MapIndex( 91)=  9, MapFact( 91)=0.4770, CellIndex( 91)= 10
(PID.TID 0000.0001) // ZZc=  86.6, MapIndex( 92)=  9, MapFact( 92)=0.3710, CellIndex( 92)= 10
(PID.TID 0000.0001) // ZZc=  88.2, MapIndex( 93)=  9, MapFact( 93)=0.2650, CellIndex( 93)= 10
(PID.TID 0000.0001) // ZZc=  89.8, MapIndex( 94)=  9, MapFact( 94)=0.1590, CellIndex( 94)= 10
(PID.TID 0000.0001) // ZZc=  91.4, MapIndex( 95)=  9, MapFact( 95)=0.0530, CellIndex( 95)= 10
(PID.TID 0000.0001) // ZZc=  93.1, MapIndex( 96)= 10, MapFact( 96)=0.9530, CellIndex( 96)= 10
(PID.TID 0000.0001) // ZZc=  94.7, MapIndex( 97)= 10, MapFact( 97)=0.8590, CellIndex( 97)= 10
(PID.TID 0000.0001) // ZZc=  96.3, MapIndex( 98)= 10, MapFact( 98)=0.7650, CellIndex( 98)= 10
(PID.TID 0000.0001) // ZZc=  98.0, MapIndex( 99)= 10, MapFact( 99)=0.6709, CellIndex( 99)= 10
(PID.TID 0000.0001) // ZZc=  99.6, MapIndex(100)= 10, MapFact(100)=0.5769, CellIndex(100)= 10
(PID.TID 0000.0001) // ZZc= 101.3, MapIndex(101)= 10, MapFact(101)=0.4769, CellIndex(101)= 11
(PID.TID 0000.0001) // ZZc= 103.2, MapIndex(102)= 10, MapFact(102)=0.3709, CellIndex(102)= 11
(PID.TID 0000.0001) // ZZc= 105.0, MapIndex(103)= 10, MapFact(103)=0.2650, CellIndex(103)= 11
(PID.TID 0000.0001) // ZZc= 106.8, MapIndex(104)= 10, MapFact(104)=0.1590, CellIndex(104)= 11
(PID.TID 0000.0001) // ZZc= 108.7, MapIndex(105)= 10, MapFact(105)=0.0530, CellIndex(105)= 11
(PID.TID 0000.0001) // ZZc= 110.5, MapIndex(106)= 11, MapFact(106)=0.9530, CellIndex(106)= 11
(PID.TID 0000.0001) // ZZc= 112.3, MapIndex(107)= 11, MapFact(107)=0.8589, CellIndex(107)= 11
(PID.TID 0000.0001) // ZZc= 114.2, MapIndex(108)= 11, MapFact(108)=0.7649, CellIndex(108)= 11
(PID.TID 0000.0001) // ZZc= 116.0, MapIndex(109)= 11, MapFact(109)=0.6708, CellIndex(109)= 11
(PID.TID 0000.0001) // ZZc= 117.8, MapIndex(110)= 11, MapFact(110)=0.5768, CellIndex(110)= 11
(PID.TID 0000.0001) // ZZc= 119.8, MapIndex(111)= 11, MapFact(111)=0.4768, CellIndex(111)= 12
(PID.TID 0000.0001) // ZZc= 121.9, MapIndex(112)= 11, MapFact(112)=0.3708, CellIndex(112)= 12
(PID.TID 0000.0001) // ZZc= 123.9, MapIndex(113)= 11, MapFact(113)=0.2649, CellIndex(113)= 12
(PID.TID 0000.0001) // ZZc= 126.0, MapIndex(114)= 11, MapFact(114)=0.1589, CellIndex(114)= 12
(PID.TID 0000.0001) // ZZc= 128.1, MapIndex(115)= 11, MapFact(115)=0.0530, CellIndex(115)= 12
(PID.TID 0000.0001) // ZZc= 130.1, MapIndex(116)= 12, MapFact(116)=0.9530, CellIndex(116)= 12
(PID.TID 0000.0001) // ZZc= 132.2, MapIndex(117)= 12, MapFact(117)=0.8589, CellIndex(117)= 12
(PID.TID 0000.0001) // ZZc= 134.3, MapIndex(118)= 12, MapFact(118)=0.7648, CellIndex(118)= 12
(PID.TID 0000.0001) // ZZc= 136.3, MapIndex(119)= 12, MapFact(119)=0.6707, CellIndex(119)= 12
(PID.TID 0000.0001) // ZZc= 138.4, MapIndex(120)= 12, MapFact(120)=0.5767, CellIndex(120)= 12
(PID.TID 0000.0001) // ZZc= 140.6, MapIndex(121)= 12, MapFact(121)=0.4767, CellIndex(121)= 13
(PID.TID 0000.0001) // ZZc= 142.9, MapIndex(122)= 12, MapFact(122)=0.3707, CellIndex(122)= 13
(PID.TID 0000.0001) // ZZc= 145.2, MapIndex(123)= 12, MapFact(123)=0.2648, CellIndex(123)= 13
(PID.TID 0000.0001) // ZZc= 147.6, MapIndex(124)= 12, MapFact(124)=0.1589, CellIndex(124)= 13
(PID.TID 0000.0001) // ZZc= 149.9, MapIndex(125)= 12, MapFact(125)=0.0530, CellIndex(125)= 13
(PID.TID 0000.0001) // ZZc= 152.2, MapIndex(126)= 13, MapFact(126)=0.9529, CellIndex(126)= 13
(PID.TID 0000.0001) // ZZc= 154.6, MapIndex(127)= 13, MapFact(127)=0.8588, CellIndex(127)= 13
(PID.TID 0000.0001) // ZZc= 156.9, MapIndex(128)= 13, MapFact(128)=0.7647, CellIndex(128)= 13
(PID.TID 0000.0001) // ZZc= 159.2, MapIndex(129)= 13, MapFact(129)=0.6706, CellIndex(129)= 13
(PID.TID 0000.0001) // ZZc= 161.5, MapIndex(130)= 13, MapFact(130)=0.5765, CellIndex(130)= 13
(PID.TID 0000.0001) // ZZc= 164.0, MapIndex(131)= 13, MapFact(131)=0.4765, CellIndex(131)= 14
(PID.TID 0000.0001) // ZZc= 166.6, MapIndex(132)= 13, MapFact(132)=0.3706, CellIndex(132)= 14
(PID.TID 0000.0001) // ZZc= 169.3, MapIndex(133)= 13, MapFact(133)=0.2647, CellIndex(133)= 14
(PID.TID 0000.0001) // ZZc= 171.9, MapIndex(134)= 13, MapFact(134)=0.1588, CellIndex(134)= 14
(PID.TID 0000.0001) // ZZc= 174.5, MapIndex(135)= 13, MapFact(135)=0.0529, CellIndex(135)= 14
(PID.TID 0000.0001) // ZZc= 177.1, MapIndex(136)= 14, MapFact(136)=0.9529, CellIndex(136)= 14
(PID.TID 0000.0001) // ZZc= 179.7, MapIndex(137)= 14, MapFact(137)=0.8588, CellIndex(137)= 14
(PID.TID 0000.0001) // ZZc= 182.4, MapIndex(138)= 14, MapFact(138)=0.7646, CellIndex(138)= 14
(PID.TID 0000.0001) // ZZc= 185.0, MapIndex(139)= 14, MapFact(139)=0.6705, CellIndex(139)= 14
(PID.TID 0000.0001) // ZZc= 187.6, MapIndex(140)= 14, MapFact(140)=0.5763, CellIndex(140)= 14
(PID.TID 0000.0001) // ZZc= 190.4, MapIndex(141)= 14, MapFact(141)=0.4763, CellIndex(141)= 15
(PID.TID 0000.0001) // ZZc= 193.3, MapIndex(142)= 14, MapFact(142)=0.3705, CellIndex(142)= 15
(PID.TID 0000.0001) // ZZc= 196.3, MapIndex(143)= 14, MapFact(143)=0.2646, CellIndex(143)= 15
(PID.TID 0000.0001) // ZZc= 199.2, MapIndex(144)= 14, MapFact(144)=0.1588, CellIndex(144)= 15
(PID.TID 0000.0001) // ZZc= 202.2, MapIndex(145)= 14, MapFact(145)=0.0529, CellIndex(145)= 15
(PID.TID 0000.0001) // ZZc= 205.1, MapIndex(146)= 15, MapFact(146)=0.9529, CellIndex(146)= 15
(PID.TID 0000.0001) // ZZc= 208.1, MapIndex(147)= 15, MapFact(147)=0.8587, CellIndex(147)= 15
(PID.TID 0000.0001) // ZZc= 211.0, MapIndex(148)= 15, MapFact(148)=0.7645, CellIndex(148)= 15
(PID.TID 0000.0001) // ZZc= 213.9, MapIndex(149)= 15, MapFact(149)=0.6703, CellIndex(149)= 15
(PID.TID 0000.0001) // ZZc= 216.9, MapIndex(150)= 15, MapFact(150)=0.5760, CellIndex(150)= 15
(PID.TID 0000.0001) // ZZc= 220.0, MapIndex(151)= 15, MapFact(151)=0.4760, CellIndex(151)= 16
(PID.TID 0000.0001) // ZZc= 223.3, MapIndex(152)= 15, MapFact(152)=0.3703, CellIndex(152)= 16
(PID.TID 0000.0001) // ZZc= 226.6, MapIndex(153)= 15, MapFact(153)=0.2645, CellIndex(153)= 16
(PID.TID 0000.0001) // ZZc= 229.9, MapIndex(154)= 15, MapFact(154)=0.1587, CellIndex(154)= 16
(PID.TID 0000.0001) // ZZc= 233.2, MapIndex(155)= 15, MapFact(155)=0.0529, CellIndex(155)= 16
(PID.TID 0000.0001) // ZZc= 236.5, MapIndex(156)= 16, MapFact(156)=0.9529, CellIndex(156)= 16
(PID.TID 0000.0001) // ZZc= 239.9, MapIndex(157)= 16, MapFact(157)=0.8586, CellIndex(157)= 16
(PID.TID 0000.0001) // ZZc= 243.2, MapIndex(158)= 16, MapFact(158)=0.7643, CellIndex(158)= 16
(PID.TID 0000.0001) // ZZc= 246.5, MapIndex(159)= 16, MapFact(159)=0.6700, CellIndex(159)= 16
(PID.TID 0000.0001) // ZZc= 249.8, MapIndex(160)= 16, MapFact(160)=0.5757, CellIndex(160)= 16
(PID.TID 0000.0001) // ZZc= 253.3, MapIndex(161)= 16, MapFact(161)=0.4757, CellIndex(161)= 17
(PID.TID 0000.0001) // ZZc= 257.0, MapIndex(162)= 16, MapFact(162)=0.3700, CellIndex(162)= 17
(PID.TID 0000.0001) // ZZc= 260.7, MapIndex(163)= 16, MapFact(163)=0.2643, CellIndex(163)= 17
(PID.TID 0000.0001) // ZZc= 264.4, MapIndex(164)= 16, MapFact(164)=0.1586, CellIndex(164)= 17
(PID.TID 0000.0001) // ZZc= 268.1, MapIndex(165)= 16, MapFact(165)=0.0529, CellIndex(165)= 17
(PID.TID 0000.0001) // ZZc= 271.8, MapIndex(166)= 17, MapFact(166)=0.9528, CellIndex(166)= 17
(PID.TID 0000.0001) // ZZc= 275.5, MapIndex(167)= 17, MapFact(167)=0.8584, CellIndex(167)= 17
(PID.TID 0000.0001) // ZZc= 279.2, MapIndex(168)= 17, MapFact(168)=0.7641, CellIndex(168)= 17
(PID.TID 0000.0001) // ZZc= 282.9, MapIndex(169)= 17, MapFact(169)=0.6697, CellIndex(169)= 17
(PID.TID 0000.0001) // ZZc= 286.6, MapIndex(170)= 17, MapFact(170)=0.5753, CellIndex(170)= 17
(PID.TID 0000.0001) // ZZc= 290.6, MapIndex(171)= 17, MapFact(171)=0.4753, CellIndex(171)= 18
(PID.TID 0000.0001) // ZZc= 294.7, MapIndex(172)= 17, MapFact(172)=0.3697, CellIndex(172)= 18
(PID.TID 0000.0001) // ZZc= 298.9, MapIndex(173)= 17, MapFact(173)=0.2641, CellIndex(173)= 18
(PID.TID 0000.0001) // ZZc= 303.0, MapIndex(174)= 17, MapFact(174)=0.1584, CellIndex(174)= 18
(PID.TID 0000.0001) // ZZc= 307.2, MapIndex(175)= 17, MapFact(175)=0.0528, CellIndex(175)= 18
(PID.TID 0000.0001) // ZZc= 311.3, MapIndex(176)= 18, MapFact(176)=0.9528, CellIndex(176)= 18
(PID.TID 0000.0001) // ZZc= 315.5, MapIndex(177)= 18, MapFact(177)=0.8583, CellIndex(177)= 18
(PID.TID 0000.0001) // ZZc= 319.6, MapIndex(178)= 18, MapFact(178)=0.7638, CellIndex(178)= 18
(PID.TID 0000.0001) // ZZc= 323.8, MapIndex(179)= 18, MapFact(179)=0.6693, CellIndex(179)= 18
(PID.TID 0000.0001) // ZZc= 327.9, MapIndex(180)= 18, MapFact(180)=0.5748, CellIndex(180)= 18
(PID.TID 0000.0001) // ZZc= 332.3, MapIndex(181)= 18, MapFact(181)=0.4748, CellIndex(181)= 19
(PID.TID 0000.0001) // ZZc= 337.0, MapIndex(182)= 18, MapFact(182)=0.3693, CellIndex(182)= 19
(PID.TID 0000.0001) // ZZc= 341.6, MapIndex(183)= 18, MapFact(183)=0.2638, CellIndex(183)= 19
(PID.TID 0000.0001) // ZZc= 346.2, MapIndex(184)= 18, MapFact(184)=0.1583, CellIndex(184)= 19
(PID.TID 0000.0001) // ZZc= 350.9, MapIndex(185)= 18, MapFact(185)=0.0528, CellIndex(185)= 19
(PID.TID 0000.0001) // ZZc= 355.5, MapIndex(186)= 19, MapFact(186)=0.9527, CellIndex(186)= 19
(PID.TID 0000.0001) // ZZc= 360.1, MapIndex(187)= 19, MapFact(187)=0.8581, CellIndex(187)= 19
(PID.TID 0000.0001) // ZZc= 364.8, MapIndex(188)= 19, MapFact(188)=0.7635, CellIndex(188)= 19
(PID.TID 0000.0001) // ZZc= 369.4, MapIndex(189)= 19, MapFact(189)=0.6688, CellIndex(189)= 19
(PID.TID 0000.0001) // ZZc= 374.0, MapIndex(190)= 19, MapFact(190)=0.5742, CellIndex(190)= 19
(PID.TID 0000.0001) // ZZc= 378.9, MapIndex(191)= 19, MapFact(191)=0.4742, CellIndex(191)= 20
(PID.TID 0000.0001) // ZZc= 384.1, MapIndex(192)= 19, MapFact(192)=0.3688, CellIndex(192)= 20
(PID.TID 0000.0001) // ZZc= 389.2, MapIndex(193)= 19, MapFact(193)=0.2635, CellIndex(193)= 20
(PID.TID 0000.0001) // ZZc= 394.4, MapIndex(194)= 19, MapFact(194)=0.1581, CellIndex(194)= 20
(PID.TID 0000.0001) // ZZc= 399.6, MapIndex(195)= 19, MapFact(195)=0.0527, CellIndex(195)= 20
(PID.TID 0000.0001) // ZZc= 404.7, MapIndex(196)= 20, MapFact(196)=0.9526, CellIndex(196)= 20
(PID.TID 0000.0001) // ZZc= 409.9, MapIndex(197)= 20, MapFact(197)=0.8578, CellIndex(197)= 20
(PID.TID 0000.0001) // ZZc= 415.1, MapIndex(198)= 20, MapFact(198)=0.7631, CellIndex(198)= 20
(PID.TID 0000.0001) // ZZc= 420.2, MapIndex(199)= 20, MapFact(199)=0.6683, CellIndex(199)= 20
(PID.TID 0000.0001) // ZZc= 425.4, MapIndex(200)= 20, MapFact(200)=0.5735, CellIndex(200)= 20
(PID.TID 0000.0001) // ZZc= 430.8, MapIndex(201)= 20, MapFact(201)=0.4735, CellIndex(201)= 21
(PID.TID 0000.0001) // ZZc= 436.6, MapIndex(202)= 20, MapFact(202)=0.3683, CellIndex(202)= 21
(PID.TID 0000.0001) // ZZc= 442.3, MapIndex(203)= 20, MapFact(203)=0.2631, CellIndex(203)= 21
(PID.TID 0000.0001) // ZZc= 448.0, MapIndex(204)= 20, MapFact(204)=0.1578, CellIndex(204)= 21
(PID.TID 0000.0001) // ZZc= 453.7, MapIndex(205)= 20, MapFact(205)=0.0526, CellIndex(205)= 21
(PID.TID 0000.0001) // ZZc= 459.5, MapIndex(206)= 21, MapFact(206)=0.9525, CellIndex(206)= 21
(PID.TID 0000.0001) // ZZc= 465.2, MapIndex(207)= 21, MapFact(207)=0.8575, CellIndex(207)= 21
(PID.TID 0000.0001) // ZZc= 470.9, MapIndex(208)= 21, MapFact(208)=0.7626, CellIndex(208)= 21
(PID.TID 0000.0001) // ZZc= 476.7, MapIndex(209)= 21, MapFact(209)=0.6676, CellIndex(209)= 21
(PID.TID 0000.0001) // ZZc= 482.4, MapIndex(210)= 21, MapFact(210)=0.5726, CellIndex(210)= 21
(PID.TID 0000.0001) // ZZc= 488.4, MapIndex(211)= 21, MapFact(211)=0.4726, CellIndex(211)= 22
(PID.TID 0000.0001) // ZZc= 494.8, MapIndex(212)= 21, MapFact(212)=0.3676, CellIndex(212)= 22
(PID.TID 0000.0001) // ZZc= 501.1, MapIndex(213)= 21, MapFact(213)=0.2626, CellIndex(213)= 22
(PID.TID 0000.0001) // ZZc= 507.4, MapIndex(214)= 21, MapFact(214)=0.1575, CellIndex(214)= 22
(PID.TID 0000.0001) // ZZc= 513.8, MapIndex(215)= 21, MapFact(215)=0.0525, CellIndex(215)= 22
(PID.TID 0000.0001) // ZZc= 520.1, MapIndex(216)= 22, MapFact(216)=0.9524, CellIndex(216)= 22
(PID.TID 0000.0001) // ZZc= 526.5, MapIndex(217)= 22, MapFact(217)=0.8572, CellIndex(217)= 22
(PID.TID 0000.0001) // ZZc= 532.8, MapIndex(218)= 22, MapFact(218)=0.7620, CellIndex(218)= 22
(PID.TID 0000.0001) // ZZc= 539.1, MapIndex(219)= 22, MapFact(219)=0.6668, CellIndex(219)= 22
(PID.TID 0000.0001) // ZZc= 545.5, MapIndex(220)= 22, MapFact(220)=0.5717, CellIndex(220)= 22
(PID.TID 0000.0001) // ZZc= 552.1, MapIndex(221)= 22, MapFact(221)=0.4717, CellIndex(221)= 23
(PID.TID 0000.0001) // ZZc= 559.1, MapIndex(222)= 22, MapFact(222)=0.3668, CellIndex(222)= 23
(PID.TID 0000.0001) // ZZc= 566.1, MapIndex(223)= 22, MapFact(223)=0.2620, CellIndex(223)= 23
(PID.TID 0000.0001) // ZZc= 573.1, MapIndex(224)= 22, MapFact(224)=0.1572, CellIndex(224)= 23
(PID.TID 0000.0001) // ZZc= 580.0, MapIndex(225)= 22, MapFact(225)=0.0524, CellIndex(225)= 23
(PID.TID 0000.0001) // ZZc= 587.0, MapIndex(226)= 23, MapFact(226)=0.9523, CellIndex(226)= 23
(PID.TID 0000.0001) // ZZc= 594.0, MapIndex(227)= 23, MapFact(227)=0.8568, CellIndex(227)= 23
(PID.TID 0000.0001) // ZZc= 601.0, MapIndex(228)= 23, MapFact(228)=0.7614, CellIndex(228)= 23
(PID.TID 0000.0001) // ZZc= 608.0, MapIndex(229)= 23, MapFact(229)=0.6659, CellIndex(229)= 23
(PID.TID 0000.0001) // ZZc= 614.9, MapIndex(230)= 23, MapFact(230)=0.5705, CellIndex(230)= 23
(PID.TID 0000.0001) // ZZc= 622.3, MapIndex(231)= 23, MapFact(231)=0.4705, CellIndex(231)= 24
(PID.TID 0000.0001) // ZZc= 629.9, MapIndex(232)= 23, MapFact(232)=0.3659, CellIndex(232)= 24
(PID.TID 0000.0001) // ZZc= 637.5, MapIndex(233)= 23, MapFact(233)=0.2614, CellIndex(233)= 24
(PID.TID 0000.0001) // ZZc= 645.2, MapIndex(234)= 23, MapFact(234)=0.1568, CellIndex(234)= 24
(PID.TID 0000.0001) // ZZc= 652.8, MapIndex(235)= 23, MapFact(235)=0.0523, CellIndex(235)= 24
(PID.TID 0000.0001) // ZZc= 660.5, MapIndex(236)= 24, MapFact(236)=0.9521, CellIndex(236)= 24
(PID.TID 0000.0001) // ZZc= 668.1, MapIndex(237)= 24, MapFact(237)=0.8564, CellIndex(237)= 24
(PID.TID 0000.0001) // ZZc= 675.8, MapIndex(238)= 24, MapFact(238)=0.7607, CellIndex(238)= 24
(PID.TID 0000.0001) // ZZc= 683.4, MapIndex(239)= 24, MapFact(239)=0.6649, CellIndex(239)= 24
(PID.TID 0000.0001) // ZZc= 691.1, MapIndex(240)= 24, MapFact(240)=0.5692, CellIndex(240)= 24
(PID.TID 0000.0001) // ZZc= 699.0, MapIndex(241)= 24, MapFact(241)=0.4692, CellIndex(241)= 25
(PID.TID 0000.0001) // ZZc= 707.4, MapIndex(242)= 24, MapFact(242)=0.3649, CellIndex(242)= 25
(PID.TID 0000.0001) // ZZc= 715.7, MapIndex(243)= 24, MapFact(243)=0.2607, CellIndex(243)= 25
(PID.TID 0000.0001) // ZZc= 724.0, MapIndex(244)= 24, MapFact(244)=0.1564, CellIndex(244)= 25
(PID.TID 0000.0001) // ZZc= 732.4, MapIndex(245)= 24, MapFact(245)=0.0521, CellIndex(245)= 25
(PID.TID 0000.0001) // ZZc= 740.7, MapIndex(246)= 25, MapFact(246)=0.9520, CellIndex(246)= 25
(PID.TID 0000.0001) // ZZc= 749.0, MapIndex(247)= 25, MapFact(247)=0.8559, CellIndex(247)= 25
(PID.TID 0000.0001) // ZZc= 757.3, MapIndex(248)= 25, MapFact(248)=0.7599, CellIndex(248)= 25
(PID.TID 0000.0001) // ZZc= 765.7, MapIndex(249)= 25, MapFact(249)=0.6638, CellIndex(249)= 25
(PID.TID 0000.0001) // ZZc= 774.0, MapIndex(250)= 25, MapFact(250)=0.5678, CellIndex(250)= 25
(PID.TID 0000.0001) // ZZc= 782.7, MapIndex(251)= 25, MapFact(251)=0.4678, CellIndex(251)= 26
(PID.TID 0000.0001) // ZZc= 791.7, MapIndex(252)= 25, MapFact(252)=0.3638, CellIndex(252)= 26
(PID.TID 0000.0001) // ZZc= 800.7, MapIndex(253)= 25, MapFact(253)=0.2599, CellIndex(253)= 26
(PID.TID 0000.0001) // ZZc= 809.7, MapIndex(254)= 25, MapFact(254)=0.1559, CellIndex(254)= 26
(PID.TID 0000.0001) // ZZc= 818.7, MapIndex(255)= 25, MapFact(255)=0.0520, CellIndex(255)= 26
(PID.TID 0000.0001) // ZZc= 827.7, MapIndex(256)= 26, MapFact(256)=0.9518, CellIndex(256)= 26
(PID.TID 0000.0001) // ZZc= 836.7, MapIndex(257)= 26, MapFact(257)=0.8554, CellIndex(257)= 26
(PID.TID 0000.0001) // ZZc= 845.7, MapIndex(258)= 26, MapFact(258)=0.7590, CellIndex(258)= 26
(PID.TID 0000.0001) // ZZc= 854.8, MapIndex(259)= 26, MapFact(259)=0.6627, CellIndex(259)= 26
(PID.TID 0000.0001) // ZZc= 863.8, MapIndex(260)= 26, MapFact(260)=0.5663, CellIndex(260)= 26
(PID.TID 0000.0001) // ZZc= 873.1, MapIndex(261)= 26, MapFact(261)=0.4663, CellIndex(261)= 27
(PID.TID 0000.0001) // ZZc= 882.8, MapIndex(262)= 26, MapFact(262)=0.3627, CellIndex(262)= 27
(PID.TID 0000.0001) // ZZc= 892.5, MapIndex(263)= 26, MapFact(263)=0.2590, CellIndex(263)= 27
(PID.TID 0000.0001) // ZZc= 902.2, MapIndex(264)= 26, MapFact(264)=0.1554, CellIndex(264)= 27
(PID.TID 0000.0001) // ZZc= 911.9, MapIndex(265)= 26, MapFact(265)=0.0518, CellIndex(265)= 27
(PID.TID 0000.0001) // ZZc= 921.6, MapIndex(266)= 27, MapFact(266)=0.9516, CellIndex(266)= 27
(PID.TID 0000.0001) // ZZc= 931.3, MapIndex(267)= 27, MapFact(267)=0.8549, CellIndex(267)= 27
(PID.TID 0000.0001) // ZZc= 941.0, MapIndex(268)= 27, MapFact(268)=0.7582, CellIndex(268)= 27
(PID.TID 0000.0001) // ZZc= 950.6, MapIndex(269)= 27, MapFact(269)=0.6614, CellIndex(269)= 27
(PID.TID 0000.0001) // ZZc= 960.3, MapIndex(270)= 27, MapFact(270)=0.5647, CellIndex(270)= 27
(PID.TID 0000.0001) // ZZc= 970.4, MapIndex(271)= 27, MapFact(271)=0.4647, CellIndex(271)= 28
(PID.TID 0000.0001) // ZZc= 980.7, MapIndex(272)= 27, MapFact(272)=0.3614, CellIndex(272)= 28
(PID.TID 0000.0001) // ZZc= 991.0, MapIndex(273)= 27, MapFact(273)=0.2582, CellIndex(273)= 28
(PID.TID 0000.0001) // ZZc=1001.4, MapIndex(274)= 27, MapFact(274)=0.1549, CellIndex(274)= 28
(PID.TID 0000.0001) // ZZc=1011.7, MapIndex(275)= 27, MapFact(275)=0.0516, CellIndex(275)= 28
(PID.TID 0000.0001) // ZZc=1022.1, MapIndex(276)= 28, MapFact(276)=0.9515, CellIndex(276)= 28
(PID.TID 0000.0001) // ZZc=1032.4, MapIndex(277)= 28, MapFact(277)=0.8544, CellIndex(277)= 28
(PID.TID 0000.0001) // ZZc=1042.8, MapIndex(278)= 28, MapFact(278)=0.7573, CellIndex(278)= 28
(PID.TID 0000.0001) // ZZc=1053.1, MapIndex(279)= 28, MapFact(279)=0.6602, CellIndex(279)= 28
(PID.TID 0000.0001) // ZZc=1063.5, MapIndex(280)= 28, MapFact(280)=0.5631, CellIndex(280)= 28
(PID.TID 0000.0001) // ZZc=1074.1, MapIndex(281)= 28, MapFact(281)=0.4631, CellIndex(281)= 29
(PID.TID 0000.0001) // ZZc=1085.1, MapIndex(282)= 28, MapFact(282)=0.3602, CellIndex(282)= 29
(PID.TID 0000.0001) // ZZc=1096.0, MapIndex(283)= 28, MapFact(283)=0.2573, CellIndex(283)= 29
(PID.TID 0000.0001) // ZZc=1107.0, MapIndex(284)= 28, MapFact(284)=0.1544, CellIndex(284)= 29
(PID.TID 0000.0001) // ZZc=1118.0, MapIndex(285)= 28, MapFact(285)=0.0515, CellIndex(285)= 29
(PID.TID 0000.0001) // ZZc=1128.9, MapIndex(286)= 29, MapFact(286)=0.9513, CellIndex(286)= 29
(PID.TID 0000.0001) // ZZc=1139.9, MapIndex(287)= 29, MapFact(287)=0.8538, CellIndex(287)= 29
(PID.TID 0000.0001) // ZZc=1150.9, MapIndex(288)= 29, MapFact(288)=0.7564, CellIndex(288)= 29
(PID.TID 0000.0001) // ZZc=1161.8, MapIndex(289)= 29, MapFact(289)=0.6590, CellIndex(289)= 29
(PID.TID 0000.0001) // ZZc=1172.8, MapIndex(290)= 29, MapFact(290)=0.5615, CellIndex(290)= 29
(PID.TID 0000.0001) // ZZc=1184.0, MapIndex(291)= 29, MapFact(291)=0.4615, CellIndex(291)= 30
(PID.TID 0000.0001) // ZZc=1195.6, MapIndex(292)= 29, MapFact(292)=0.3590, CellIndex(292)= 30
(PID.TID 0000.0001) // ZZc=1207.1, MapIndex(293)= 29, MapFact(293)=0.2564, CellIndex(293)= 30
(PID.TID 0000.0001) // ZZc=1218.7, MapIndex(294)= 29, MapFact(294)=0.1538, CellIndex(294)= 30
(PID.TID 0000.0001) // ZZc=1230.2, MapIndex(295)= 29, MapFact(295)=0.0513, CellIndex(295)= 30
(PID.TID 0000.0001) // ZZc=1241.8, MapIndex(296)= 30, MapFact(296)=0.9511, CellIndex(296)= 30
(PID.TID 0000.0001) // ZZc=1253.3, MapIndex(297)= 30, MapFact(297)=0.8533, CellIndex(297)= 30
(PID.TID 0000.0001) // ZZc=1264.8, MapIndex(298)= 30, MapFact(298)=0.7556, CellIndex(298)= 30
(PID.TID 0000.0001) // ZZc=1276.4, MapIndex(299)= 30, MapFact(299)=0.6578, CellIndex(299)= 30
(PID.TID 0000.0001) // ZZc=1287.9, MapIndex(300)= 30, MapFact(300)=0.5600, CellIndex(300)= 30
(PID.TID 0000.0001) // ZZc=1299.7, MapIndex(301)= 30, MapFact(301)=0.4600, CellIndex(301)= 31
(PID.TID 0000.0001) // ZZc=1311.8, MapIndex(302)= 30, MapFact(302)=0.3578, CellIndex(302)= 31
(PID.TID 0000.0001) // ZZc=1323.9, MapIndex(303)= 30, MapFact(303)=0.2556, CellIndex(303)= 31
(PID.TID 0000.0001) // ZZc=1335.9, MapIndex(304)= 30, MapFact(304)=0.1533, CellIndex(304)= 31
(PID.TID 0000.0001) // ZZc=1348.0, MapIndex(305)= 30, MapFact(305)=0.0511, CellIndex(305)= 31
(PID.TID 0000.0001) // ZZc=1360.0, MapIndex(306)= 31, MapFact(306)=0.9510, CellIndex(306)= 31
(PID.TID 0000.0001) // ZZc=1372.1, MapIndex(307)= 31, MapFact(307)=0.8529, CellIndex(307)= 31
(PID.TID 0000.0001) // ZZc=1384.2, MapIndex(308)= 31, MapFact(308)=0.7548, CellIndex(308)= 31
(PID.TID 0000.0001) // ZZc=1396.2, MapIndex(309)= 31, MapFact(309)=0.6567, CellIndex(309)= 31
(PID.TID 0000.0001) // ZZc=1408.3, MapIndex(310)= 31, MapFact(310)=0.5586, CellIndex(310)= 31
(PID.TID 0000.0001) // ZZc=1420.6, MapIndex(311)= 31, MapFact(311)=0.4586, CellIndex(311)= 32
(PID.TID 0000.0001) // ZZc=1433.1, MapIndex(312)= 31, MapFact(312)=0.3567, CellIndex(312)= 32
(PID.TID 0000.0001) // ZZc=1445.7, MapIndex(313)= 31, MapFact(313)=0.2548, CellIndex(313)= 32
(PID.TID 0000.0001) // ZZc=1458.2, MapIndex(314)= 31, MapFact(314)=0.1529, CellIndex(314)= 32
(PID.TID 0000.0001) // ZZc=1470.7, MapIndex(315)= 31, MapFact(315)=0.0510, CellIndex(315)= 32
(PID.TID 0000.0001) // ZZc=1483.3, MapIndex(316)= 32, MapFact(316)=0.9508, CellIndex(316)= 32
(PID.TID 0000.0001) // ZZc=1495.8, MapIndex(317)= 32, MapFact(317)=0.8524, CellIndex(317)= 32
(PID.TID 0000.0001) // ZZc=1508.4, MapIndex(318)= 32, MapFact(318)=0.7540, CellIndex(318)= 32
(PID.TID 0000.0001) // ZZc=1520.9, MapIndex(319)= 32, MapFact(319)=0.6557, CellIndex(319)= 32
(PID.TID 0000.0001) // ZZc=1533.4, MapIndex(320)= 32, MapFact(320)=0.5573, CellIndex(320)= 32
(PID.TID 0000.0001) // ZZc=1546.2, MapIndex(321)= 32, MapFact(321)=0.4573, CellIndex(321)= 33
(PID.TID 0000.0001) // ZZc=1559.1, MapIndex(322)= 32, MapFact(322)=0.3557, CellIndex(322)= 33
(PID.TID 0000.0001) // ZZc=1572.1, MapIndex(323)= 32, MapFact(323)=0.2540, CellIndex(323)= 33
(PID.TID 0000.0001) // ZZc=1585.0, MapIndex(324)= 32, MapFact(324)=0.1524, CellIndex(324)= 33
(PID.TID 0000.0001) // ZZc=1597.9, MapIndex(325)= 32, MapFact(325)=0.0508, CellIndex(325)= 33
(PID.TID 0000.0001) // ZZc=1610.9, MapIndex(326)= 33, MapFact(326)=0.9507, CellIndex(326)= 33
(PID.TID 0000.0001) // ZZc=1623.8, MapIndex(327)= 33, MapFact(327)=0.8520, CellIndex(327)= 33
(PID.TID 0000.0001) // ZZc=1636.8, MapIndex(328)= 33, MapFact(328)=0.7534, CellIndex(328)= 33
(PID.TID 0000.0001) // ZZc=1649.7, MapIndex(329)= 33, MapFact(329)=0.6547, CellIndex(329)= 33
(PID.TID 0000.0001) // ZZc=1662.7, MapIndex(330)= 33, MapFact(330)=0.5561, CellIndex(330)= 33
(PID.TID 0000.0001) // ZZc=1675.8, MapIndex(331)= 33, MapFact(331)=0.4561, CellIndex(331)= 34
(PID.TID 0000.0001) // ZZc=1689.1, MapIndex(332)= 33, MapFact(332)=0.3547, CellIndex(332)= 34
(PID.TID 0000.0001) // ZZc=1702.4, MapIndex(333)= 33, MapFact(333)=0.2534, CellIndex(333)= 34
(PID.TID 0000.0001) // ZZc=1715.7, MapIndex(334)= 33, MapFact(334)=0.1520, CellIndex(334)= 34
(PID.TID 0000.0001) // ZZc=1729.0, MapIndex(335)= 33, MapFact(335)=0.0507, CellIndex(335)= 34
(PID.TID 0000.0001) // ZZc=1742.3, MapIndex(336)= 34, MapFact(336)=0.9506, CellIndex(336)= 34
(PID.TID 0000.0001) // ZZc=1755.6, MapIndex(337)= 34, MapFact(337)=0.8517, CellIndex(337)= 34
(PID.TID 0000.0001) // ZZc=1768.9, MapIndex(338)= 34, MapFact(338)=0.7528, CellIndex(338)= 34
(PID.TID 0000.0001) // ZZc=1782.2, MapIndex(339)= 34, MapFact(339)=0.6539, CellIndex(339)= 34
(PID.TID 0000.0001) // ZZc=1795.5, MapIndex(340)= 34, MapFact(340)=0.5551, CellIndex(340)= 34
(PID.TID 0000.0001) // ZZc=1809.0, MapIndex(341)= 34, MapFact(341)=0.4551, CellIndex(341)= 35
(PID.TID 0000.0001) // ZZc=1822.6, MapIndex(342)= 34, MapFact(342)=0.3539, CellIndex(342)= 35
(PID.TID 0000.0001) // ZZc=1836.2, MapIndex(343)= 34, MapFact(343)=0.2528, CellIndex(343)= 35
(PID.TID 0000.0001) // ZZc=1849.8, MapIndex(344)= 34, MapFact(344)=0.1517, CellIndex(344)= 35
(PID.TID 0000.0001) // ZZc=1863.4, MapIndex(345)= 34, MapFact(345)=0.0506, CellIndex(345)= 35
(PID.TID 0000.0001) // ZZc=1877.0, MapIndex(346)= 35, MapFact(346)=0.9505, CellIndex(346)= 35
(PID.TID 0000.0001) // ZZc=1890.6, MapIndex(347)= 35, MapFact(347)=0.8514, CellIndex(347)= 35
(PID.TID 0000.0001) // ZZc=1904.2, MapIndex(348)= 35, MapFact(348)=0.7523, CellIndex(348)= 35
(PID.TID 0000.0001) // ZZc=1917.8, MapIndex(349)= 35, MapFact(349)=0.6533, CellIndex(349)= 35
(PID.TID 0000.0001) // ZZc=1931.4, MapIndex(350)= 35, MapFact(350)=0.5542, CellIndex(350)= 35
(PID.TID 0000.0001) // ZZc=1945.1, MapIndex(351)= 35, MapFact(351)=0.4542, CellIndex(351)= 36
(PID.TID 0000.0001) // ZZc=1959.0, MapIndex(352)= 35, MapFact(352)=0.3533, CellIndex(352)= 36
(PID.TID 0000.0001) // ZZc=1972.9, MapIndex(353)= 35, MapFact(353)=0.2523, CellIndex(353)= 36
(PID.TID 0000.0001) // ZZc=1986.7, MapIndex(354)= 35, MapFact(354)=0.1514, CellIndex(354)= 36
(PID.TID 0000.0001) // ZZc=2000.6, MapIndex(355)= 35, MapFact(355)=0.0505, CellIndex(355)= 36
(PID.TID 0000.0001) // ZZc=2014.4, MapIndex(356)= 36, MapFact(356)=0.9504, CellIndex(356)= 36
(PID.TID 0000.0001) // ZZc=2028.3, MapIndex(357)= 36, MapFact(357)=0.8511, CellIndex(357)= 36
(PID.TID 0000.0001) // ZZc=2042.2, MapIndex(358)= 36, MapFact(358)=0.7519, CellIndex(358)= 36
(PID.TID 0000.0001) // ZZc=2056.0, MapIndex(359)= 36, MapFact(359)=0.6527, CellIndex(359)= 36
(PID.TID 0000.0001) // ZZc=2069.9, MapIndex(360)= 36, MapFact(360)=0.5534, CellIndex(360)= 36
(PID.TID 0000.0001) // ZZc=2083.9, MapIndex(361)= 36, MapFact(361)=0.4534, CellIndex(361)= 37
(PID.TID 0000.0001) // ZZc=2097.9, MapIndex(362)= 36, MapFact(362)=0.3527, CellIndex(362)= 37
(PID.TID 0000.0001) // ZZc=2112.0, MapIndex(363)= 36, MapFact(363)=0.2519, CellIndex(363)= 37
(PID.TID 0000.0001) // ZZc=2126.1, MapIndex(364)= 36, MapFact(364)=0.1511, CellIndex(364)= 37
(PID.TID 0000.0001) // ZZc=2140.2, MapIndex(365)= 36, MapFact(365)=0.0504, CellIndex(365)= 37
(PID.TID 0000.0001) // ZZc=2154.2, MapIndex(366)= 37, MapFact(366)=0.9503, CellIndex(366)= 37
(PID.TID 0000.0001) // ZZc=2168.3, MapIndex(367)= 37, MapFact(367)=0.8509, CellIndex(367)= 37
(PID.TID 0000.0001) // ZZc=2182.4, MapIndex(368)= 37, MapFact(368)=0.7516, CellIndex(368)= 37
(PID.TID 0000.0001) // ZZc=2196.5, MapIndex(369)= 37, MapFact(369)=0.6522, CellIndex(369)= 37
(PID.TID 0000.0001) // ZZc=2210.5, MapIndex(370)= 37, MapFact(370)=0.5528, CellIndex(370)= 37
(PID.TID 0000.0001) // ZZc=2224.7, MapIndex(371)= 37, MapFact(371)=0.4528, CellIndex(371)= 38
(PID.TID 0000.0001) // ZZc=2238.9, MapIndex(372)= 37, MapFact(372)=0.3522, CellIndex(372)= 38
(PID.TID 0000.0001) // ZZc=2253.2, MapIndex(373)= 37, MapFact(373)=0.2516, CellIndex(373)= 38
(PID.TID 0000.0001) // ZZc=2267.4, MapIndex(374)= 37, MapFact(374)=0.1509, CellIndex(374)= 38
(PID.TID 0000.0001) // ZZc=2281.7, MapIndex(375)= 37, MapFact(375)=0.0503, CellIndex(375)= 38
(PID.TID 0000.0001) // ZZc=2295.9, MapIndex(376)= 38, MapFact(376)=0.9503, CellIndex(376)= 38
(PID.TID 0000.0001) // ZZc=2310.2, MapIndex(377)= 38, MapFact(377)=0.8508, CellIndex(377)= 38
(PID.TID 0000.0001) // ZZc=2324.4, MapIndex(378)= 38, MapFact(378)=0.7513, CellIndex(378)= 38
(PID.TID 0000.0001) // ZZc=2338.7, MapIndex(379)= 38, MapFact(379)=0.6518, CellIndex(379)= 38
(PID.TID 0000.0001) // ZZc=2352.9, MapIndex(380)= 38, MapFact(380)=0.5523, CellIndex(380)= 38
(PID.TID 0000.0001) // ZZc=2367.3, MapIndex(381)= 38, MapFact(381)=0.4523, CellIndex(381)= 39
(PID.TID 0000.0001) // ZZc=2381.7, MapIndex(382)= 38, MapFact(382)=0.3518, CellIndex(382)= 39
(PID.TID 0000.0001) // ZZc=2396.1, MapIndex(383)= 38, MapFact(383)=0.2513, CellIndex(383)= 39
(PID.TID 0000.0001) // ZZc=2410.5, MapIndex(384)= 38, MapFact(384)=0.1508, CellIndex(384)= 39
(PID.TID 0000.0001) // ZZc=2424.8, MapIndex(385)= 38, MapFact(385)=0.0503, CellIndex(385)= 39
(PID.TID 0000.0001) // ZZc=2439.2, MapIndex(386)= 39, MapFact(386)=0.9502, CellIndex(386)= 39
(PID.TID 0000.0001) // ZZc=2453.6, MapIndex(387)= 39, MapFact(387)=0.8506, CellIndex(387)= 39
(PID.TID 0000.0001) // ZZc=2468.0, MapIndex(388)= 39, MapFact(388)=0.7510, CellIndex(388)= 39
(PID.TID 0000.0001) // ZZc=2482.4, MapIndex(389)= 39, MapFact(389)=0.6514, CellIndex(389)= 39
(PID.TID 0000.0001) // ZZc=2496.8, MapIndex(390)= 39, MapFact(390)=0.5518, CellIndex(390)= 39
(PID.TID 0000.0001) // ZZc=2511.3, MapIndex(391)= 39, MapFact(391)=0.4518, CellIndex(391)= 40
(PID.TID 0000.0001) // ZZc=2525.8, MapIndex(392)= 39, MapFact(392)=0.3514, CellIndex(392)= 40
(PID.TID 0000.0001) // ZZc=2540.3, MapIndex(393)= 39, MapFact(393)=0.2510, CellIndex(393)= 40
(PID.TID 0000.0001) // ZZc=2554.8, MapIndex(394)= 39, MapFact(394)=0.1506, CellIndex(394)= 40
(PID.TID 0000.0001) // ZZc=2569.3, MapIndex(395)= 39, MapFact(395)=0.0502, CellIndex(395)= 40
(PID.TID 0000.0001) // ZZc=2583.8, MapIndex(396)= 40, MapFact(396)=0.9502, CellIndex(396)= 40
(PID.TID 0000.0001) // ZZc=2598.4, MapIndex(397)= 40, MapFact(397)=0.8505, CellIndex(397)= 40
(PID.TID 0000.0001) // ZZc=2612.9, MapIndex(398)= 40, MapFact(398)=0.7508, CellIndex(398)= 40
(PID.TID 0000.0001) // ZZc=2627.4, MapIndex(399)= 40, MapFact(399)=0.6512, CellIndex(399)= 40
(PID.TID 0000.0001) // ZZc=2641.9, MapIndex(400)= 40, MapFact(400)=0.5515, CellIndex(400)= 40
(PID.TID 0000.0001) // ZZc=2656.5, MapIndex(401)= 40, MapFact(401)=0.4515, CellIndex(401)= 41
(PID.TID 0000.0001) // ZZc=2671.1, MapIndex(402)= 40, MapFact(402)=0.3512, CellIndex(402)= 41
(PID.TID 0000.0001) // ZZc=2685.7, MapIndex(403)= 40, MapFact(403)=0.2508, CellIndex(403)= 41
(PID.TID 0000.0001) // ZZc=2700.3, MapIndex(404)= 40, MapFact(404)=0.1505, CellIndex(404)= 41
(PID.TID 0000.0001) // ZZc=2714.9, MapIndex(405)= 40, MapFact(405)=0.0502, CellIndex(405)= 41
(PID.TID 0000.0001) // ZZc=2729.5, MapIndex(406)= 41, MapFact(406)=0.9501, CellIndex(406)= 41
(PID.TID 0000.0001) // ZZc=2744.1, MapIndex(407)= 41, MapFact(407)=0.8504, CellIndex(407)= 41
(PID.TID 0000.0001) // ZZc=2758.7, MapIndex(408)= 41, MapFact(408)=0.7507, CellIndex(408)= 41
(PID.TID 0000.0001) // ZZc=2773.3, MapIndex(409)= 41, MapFact(409)=0.6509, CellIndex(409)= 41
(PID.TID 0000.0001) // ZZc=2787.9, MapIndex(410)= 41, MapFact(410)=0.5512, CellIndex(410)= 41
(PID.TID 0000.0001) // ZZc=2802.6, MapIndex(411)= 41, MapFact(411)=0.4512, CellIndex(411)= 42
(PID.TID 0000.0001) // ZZc=2817.3, MapIndex(412)= 41, MapFact(412)=0.3509, CellIndex(412)= 42
(PID.TID 0000.0001) // ZZc=2832.0, MapIndex(413)= 41, MapFact(413)=0.2507, CellIndex(413)= 42
(PID.TID 0000.0001) // ZZc=2846.7, MapIndex(414)= 41, MapFact(414)=0.1504, CellIndex(414)= 42
(PID.TID 0000.0001) // ZZc=2861.3, MapIndex(415)= 41, MapFact(415)=0.0501, CellIndex(415)= 42
(PID.TID 0000.0001) // ZZc=2876.0, MapIndex(416)= 42, MapFact(416)=0.9501, CellIndex(416)= 42
(PID.TID 0000.0001) // ZZc=2890.7, MapIndex(417)= 42, MapFact(417)=0.8503, CellIndex(417)= 42
(PID.TID 0000.0001) // ZZc=2905.4, MapIndex(418)= 42, MapFact(418)=0.7505, CellIndex(418)= 42
(PID.TID 0000.0001) // ZZc=2920.1, MapIndex(419)= 42, MapFact(419)=0.6507, CellIndex(419)= 42
(PID.TID 0000.0001) // ZZc=2934.8, MapIndex(420)= 42, MapFact(420)=0.5510, CellIndex(420)= 42
(PID.TID 0000.0001) // ZZc=2949.5, MapIndex(421)= 42, MapFact(421)=0.4510, CellIndex(421)= 43
(PID.TID 0000.0001) // ZZc=2964.2, MapIndex(422)= 42, MapFact(422)=0.3507, CellIndex(422)= 43
(PID.TID 0000.0001) // ZZc=2979.0, MapIndex(423)= 42, MapFact(423)=0.2505, CellIndex(423)= 43
(PID.TID 0000.0001) // ZZc=2993.7, MapIndex(424)= 42, MapFact(424)=0.1503, CellIndex(424)= 43
(PID.TID 0000.0001) // ZZc=3008.5, MapIndex(425)= 42, MapFact(425)=0.0501, CellIndex(425)= 43
(PID.TID 0000.0001) // ZZc=3023.2, MapIndex(426)= 43, MapFact(426)=0.9501, CellIndex(426)= 43
(PID.TID 0000.0001) // ZZc=3038.0, MapIndex(427)= 43, MapFact(427)=0.8503, CellIndex(427)= 43
(PID.TID 0000.0001) // ZZc=3052.7, MapIndex(428)= 43, MapFact(428)=0.7504, CellIndex(428)= 43
(PID.TID 0000.0001) // ZZc=3067.5, MapIndex(429)= 43, MapFact(429)=0.6506, CellIndex(429)= 43
(PID.TID 0000.0001) // ZZc=3082.2, MapIndex(430)= 43, MapFact(430)=0.5508, CellIndex(430)= 43
(PID.TID 0000.0001) // ZZc=3097.0, MapIndex(431)= 43, MapFact(431)=0.4508, CellIndex(431)= 44
(PID.TID 0000.0001) // ZZc=3111.8, MapIndex(432)= 43, MapFact(432)=0.3506, CellIndex(432)= 44
(PID.TID 0000.0001) // ZZc=3126.6, MapIndex(433)= 43, MapFact(433)=0.2504, CellIndex(433)= 44
(PID.TID 0000.0001) // ZZc=3141.4, MapIndex(434)= 43, MapFact(434)=0.1503, CellIndex(434)= 44
(PID.TID 0000.0001) // ZZc=3156.2, MapIndex(435)= 43, MapFact(435)=0.0501, CellIndex(435)= 44
(PID.TID 0000.0001) // ZZc=3171.0, MapIndex(436)= 44, MapFact(436)=0.9501, CellIndex(436)= 44
(PID.TID 0000.0001) // ZZc=3185.8, MapIndex(437)= 44, MapFact(437)=0.8502, CellIndex(437)= 44
(PID.TID 0000.0001) // ZZc=3200.6, MapIndex(438)= 44, MapFact(438)=0.7503, CellIndex(438)= 44
(PID.TID 0000.0001) // ZZc=3215.4, MapIndex(439)= 44, MapFact(439)=0.6505, CellIndex(439)= 44
(PID.TID 0000.0001) // ZZc=3230.2, MapIndex(440)= 44, MapFact(440)=0.5506, CellIndex(440)= 44
(PID.TID 0000.0001) // ZZc=3245.0, MapIndex(441)= 44, MapFact(441)=0.4506, CellIndex(441)= 45
(PID.TID 0000.0001) // ZZc=3259.9, MapIndex(442)= 44, MapFact(442)=0.3505, CellIndex(442)= 45
(PID.TID 0000.0001) // ZZc=3274.7, MapIndex(443)= 44, MapFact(443)=0.2503, CellIndex(443)= 45
(PID.TID 0000.0001) // ZZc=3289.5, MapIndex(444)= 44, MapFact(444)=0.1502, CellIndex(444)= 45
(PID.TID 0000.0001) // ZZc=3304.4, MapIndex(445)= 44, MapFact(445)=0.0501, CellIndex(445)= 45
(PID.TID 0000.0001) // ZZc=3319.2, MapIndex(446)= 45, MapFact(446)=0.9501, CellIndex(446)= 45
(PID.TID 0000.0001) // ZZc=3334.1, MapIndex(447)= 45, MapFact(447)=0.8502, CellIndex(447)= 45
(PID.TID 0000.0001) // ZZc=3348.9, MapIndex(448)= 45, MapFact(448)=0.7503, CellIndex(448)= 45
(PID.TID 0000.0001) // ZZc=3363.7, MapIndex(449)= 45, MapFact(449)=0.6504, CellIndex(449)= 45
(PID.TID 0000.0001) // ZZc=3378.6, MapIndex(450)= 45, MapFact(450)=0.5505, CellIndex(450)= 45
(PID.TID 0000.0001) // ZZc=3393.4, MapIndex(451)= 45, MapFact(451)=0.4505, CellIndex(451)= 46
(PID.TID 0000.0001) // ZZc=3408.3, MapIndex(452)= 45, MapFact(452)=0.3504, CellIndex(452)= 46
(PID.TID 0000.0001) // ZZc=3423.2, MapIndex(453)= 45, MapFact(453)=0.2503, CellIndex(453)= 46
(PID.TID 0000.0001) // ZZc=3438.1, MapIndex(454)= 45, MapFact(454)=0.1502, CellIndex(454)= 46
(PID.TID 0000.0001) // ZZc=3452.9, MapIndex(455)= 45, MapFact(455)=0.0501, CellIndex(455)= 46
(PID.TID 0000.0001) // ZZc=3467.8, MapIndex(456)= 46, MapFact(456)=0.9500, CellIndex(456)= 46
(PID.TID 0000.0001) // ZZc=3482.7, MapIndex(457)= 46, MapFact(457)=0.8501, CellIndex(457)= 46
(PID.TID 0000.0001) // ZZc=3497.6, MapIndex(458)= 46, MapFact(458)=0.7502, CellIndex(458)= 46
(PID.TID 0000.0001) // ZZc=3512.4, MapIndex(459)= 46, MapFact(459)=0.6503, CellIndex(459)= 46
(PID.TID 0000.0001) // ZZc=3527.3, MapIndex(460)= 46, MapFact(460)=0.5504, CellIndex(460)= 46
(PID.TID 0000.0001) // ZZc=3542.2, MapIndex(461)= 46, MapFact(461)=0.4504, CellIndex(461)= 47
(PID.TID 0000.0001) // ZZc=3557.1, MapIndex(462)= 46, MapFact(462)=0.3503, CellIndex(462)= 47
(PID.TID 0000.0001) // ZZc=3572.0, MapIndex(463)= 46, MapFact(463)=0.2502, CellIndex(463)= 47
(PID.TID 0000.0001) // ZZc=3586.9, MapIndex(464)= 46, MapFact(464)=0.1501, CellIndex(464)= 47
(PID.TID 0000.0001) // ZZc=3601.8, MapIndex(465)= 46, MapFact(465)=0.0500, CellIndex(465)= 47
(PID.TID 0000.0001) // ZZc=3616.7, MapIndex(466)= 47, MapFact(466)=0.9500, CellIndex(466)= 47
(PID.TID 0000.0001) // ZZc=3631.6, MapIndex(467)= 47, MapFact(467)=0.8501, CellIndex(467)= 47
(PID.TID 0000.0001) // ZZc=3646.5, MapIndex(468)= 47, MapFact(468)=0.7502, CellIndex(468)= 47
(PID.TID 0000.0001) // ZZc=3661.4, MapIndex(469)= 47, MapFact(469)=0.6502, CellIndex(469)= 47
(PID.TID 0000.0001) // ZZc=3676.3, MapIndex(470)= 47, MapFact(470)=0.5503, CellIndex(470)= 47
(PID.TID 0000.0001) // ZZc=3691.2, MapIndex(471)= 47, MapFact(471)=0.4503, CellIndex(471)= 48
(PID.TID 0000.0001) // ZZc=3706.1, MapIndex(472)= 47, MapFact(472)=0.3502, CellIndex(472)= 48
(PID.TID 0000.0001) // ZZc=3721.0, MapIndex(473)= 47, MapFact(473)=0.2502, CellIndex(473)= 48
(PID.TID 0000.0001) // ZZc=3735.9, MapIndex(474)= 47, MapFact(474)=0.1501, CellIndex(474)= 48
(PID.TID 0000.0001) // ZZc=3750.9, MapIndex(475)= 47, MapFact(475)=0.0500, CellIndex(475)= 48
(PID.TID 0000.0001) // ZZc=3765.8, MapIndex(476)= 48, MapFact(476)=0.9500, CellIndex(476)= 48
(PID.TID 0000.0001) // ZZc=3780.7, MapIndex(477)= 48, MapFact(477)=0.8501, CellIndex(477)= 48
(PID.TID 0000.0001) // ZZc=3795.6, MapIndex(478)= 48, MapFact(478)=0.7501, CellIndex(478)= 48
(PID.TID 0000.0001) // ZZc=3810.5, MapIndex(479)= 48, MapFact(479)=0.6502, CellIndex(479)= 48
(PID.TID 0000.0001) // ZZc=3825.4, MapIndex(480)= 48, MapFact(480)=0.5502, CellIndex(480)= 48
(PID.TID 0000.0001) // ZZc=3840.4, MapIndex(481)= 48, MapFact(481)=0.4502, CellIndex(481)= 49
(PID.TID 0000.0001) // ZZc=3855.3, MapIndex(482)= 48, MapFact(482)=0.3502, CellIndex(482)= 49
(PID.TID 0000.0001) // ZZc=3870.2, MapIndex(483)= 48, MapFact(483)=0.2501, CellIndex(483)= 49
(PID.TID 0000.0001) // ZZc=3885.2, MapIndex(484)= 48, MapFact(484)=0.1501, CellIndex(484)= 49
(PID.TID 0000.0001) // ZZc=3900.1, MapIndex(485)= 48, MapFact(485)=0.0500, CellIndex(485)= 49
(PID.TID 0000.0001) // ZZc=3915.1, MapIndex(486)= 48, MapFact(486)=0.0000, CellIndex(486)= 49
(PID.TID 0000.0001) // ZZc=3930.0, MapIndex(487)= 48, MapFact(487)=0.0000, CellIndex(487)= 49
(PID.TID 0000.0001) // ZZc=3944.9, MapIndex(488)= 48, MapFact(488)=0.0000, CellIndex(488)= 49
(PID.TID 0000.0001) // ZZc=3959.9, MapIndex(489)= 48, MapFact(489)=0.0000, CellIndex(489)= 49
(PID.TID 0000.0001) // ZZc=3974.8, MapIndex(490)= 48, MapFact(490)=0.0000, CellIndex(490)= 49
(PID.TID 0000.0001) ------------------------------------------------------------
(PID.TID 0000.0001) DIAGNOSTICS_SET_LEVELS: done
(PID.TID 0000.0001)  Total Nb of available Diagnostics: ndiagt=   222
(PID.TID 0000.0001)  write list of available Diagnostics to file: available_diagnostics.log
(PID.TID 0000.0001) SETDIAG: Allocate  1 x  1 Levels for Diagnostic #    88 TRELAX
(PID.TID 0000.0001) SETDIAG: Allocate  1 x  1 Levels for Diagnostic #    76 MXLDEPTH
(PID.TID 0000.0001) SETDIAG: Allocate  1 x  1 Levels for Diagnostic #    23 ETAN
(PID.TID 0000.0001) SETDIAG: Allocate 49 x  1 Levels for Diagnostic #    26 THETA
(PID.TID 0000.0001) SETDIAG: Allocate 49 x  1 Levels for Diagnostic #    31 VVEL
(PID.TID 0000.0001) SETDIAG: Allocate 49 x  1 Levels for Diagnostic #    30 UVEL
(PID.TID 0000.0001) SETDIAG: Allocate 49 x  1 Levels for Diagnostic #    32 WVEL
(PID.TID 0000.0001) SETDIAG: Allocate 49 x  1 Levels for Diagnostic #   154 momVort3
(PID.TID 0000.0001) SETDIAG: Allocate 49 x  1 Levels for Diagnostic #   153 momHDiv
(PID.TID 0000.0001) SETDIAG: Allocate 49 x  1 Levels for Diagnostic #    78 CONVADJ
(PID.TID 0000.0001) SETDIAG: Diag #    49 PsiVEL   processed from Diag #    45 UVELMASS
(PID.TID 0000.0001) SETDIAG: Allocate 49 x  1 Levels for Diagnostic #    45 UVELMASS
(PID.TID 0000.0001) SETDIAG: Allocate 49 x  1 Levels for Mate Diag. #    46 VVELMASS
(PID.TID 0000.0001) SETDIAG: Allocate 49 x  1 Levels for Diagnostic #   110 ADVx_TH
(PID.TID 0000.0001) SETDIAG: Allocate 49 x  1 Levels for Diagnostic #   111 ADVy_TH
(PID.TID 0000.0001) SETDIAG: Allocate 49 x  1 Levels for Diagnostic #   109 ADVr_TH
(PID.TID 0000.0001) SETDIAG: Allocate 49 x  1 Levels for Diagnostic #   113 DFxE_TH
(PID.TID 0000.0001) SETDIAG: Allocate 49 x  1 Levels for Diagnostic #   114 DFyE_TH
(PID.TID 0000.0001) SETDIAG: Allocate 49 x  1 Levels for Diagnostic #   115 DFrI_TH
(PID.TID 0000.0001) SETDIAG: Allocate 49 x  1 Levels for Diagnostic #   112 DFrE_TH
(PID.TID 0000.0001) SETDIAG: Allocate 37 x  1 Levels for Diagnostic #   216 LaVH1TH
(PID.TID 0000.0001) SETDIAG: Allocate 37 x  1 Levels for Diagnostic #   218 LaHs1TH
(PID.TID 0000.0001) SETDIAG: Allocate 37 x  1 Levels for Diagnostic #   222 LaVa1TH
(PID.TID 0000.0001) SETDIAG: Allocate 49 x  1 Levels for Diagnostic #   206 GM_PsiX
(PID.TID 0000.0001) SETDIAG: Allocate 49 x  1 Levels for Diagnostic #   207 GM_PsiY
(PID.TID 0000.0001)   space allocated for all diagnostics:     996 levels
(PID.TID 0000.0001)   set mate pointer for diag #    31  VVEL     , Parms: VVR     MR , mate:    30
(PID.TID 0000.0001)   set mate pointer for diag #    30  UVEL     , Parms: UUR     MR , mate:    31
(PID.TID 0000.0001)   set mate pointer for diag #    45  UVELMASS , Parms: UUr     MR , mate:    46
(PID.TID 0000.0001)   set mate pointer for diag #    46  VVELMASS , Parms: VVr     MR , mate:    45
(PID.TID 0000.0001)   set mate pointer for diag #   110  ADVx_TH  , Parms: UU      MR , mate:   111
(PID.TID 0000.0001)   set mate pointer for diag #   111  ADVy_TH  , Parms: VV      MR , mate:   110
(PID.TID 0000.0001)   set mate pointer for diag #   113  DFxE_TH  , Parms: UU      MR , mate:   114
(PID.TID 0000.0001)   set mate pointer for diag #   114  DFyE_TH  , Parms: VV      MR , mate:   113
(PID.TID 0000.0001)   set mate pointer for diag #   206  GM_PsiX  , Parms: UU      LR , mate:   207
(PID.TID 0000.0001)   set mate pointer for diag #   207  GM_PsiY  , Parms: VV      LR , mate:   206
(PID.TID 0000.0001) DIAGNOSTICS_SET_POINTERS: Set levels for Outp.Stream: Diags/2D_diags
(PID.TID 0000.0001)  Levels:       1.
(PID.TID 0000.0001) DIAGNOSTICS_SET_POINTERS: Set levels for Outp.Stream: Diags/state
(PID.TID 0000.0001)  Levels:       1.   2.   3.   4.   5.   6.   7.   8.   9.  10.  11.  12.  13.  14.  15.  16.  17.  18.  19.  20.
(PID.TID 0000.0001)  Levels:      21.  22.  23.  24.  25.  26.  27.  28.  29.  30.  31.  32.  33.  34.  35.  36.  37.  38.  39.  40.
(PID.TID 0000.0001)  Levels:      41.  42.  43.  44.  45.  46.  47.  48.  49.
(PID.TID 0000.0001) DIAGNOSTICS_SET_POINTERS: Set levels for Outp.Stream: Diags/heat_3D
(PID.TID 0000.0001)  Levels:       1.   2.   3.   4.   5.   6.   7.   8.   9.  10.  11.  12.  13.  14.  15.  16.  17.  18.  19.  20.
(PID.TID 0000.0001)  Levels:      21.  22.  23.  24.  25.  26.  27.  28.  29.  30.  31.  32.  33.  34.  35.  36.  37.  38.  39.  40.
(PID.TID 0000.0001)  Levels:      41.  42.  43.  44.  45.  46.  47.  48.  49.
(PID.TID 0000.0001) DIAGNOSTICS_SET_POINTERS: Set levels for Outp.Stream: Diags/layDiag
(PID.TID 0000.0001)  Levels:       1.   2.   3.   4.   5.   6.   7.   8.   9.  10.  11.  12.  13.  14.  15.  16.  17.  18.  19.  20.
(PID.TID 0000.0001)  Levels:      21.  22.  23.  24.  25.  26.  27.  28.  29.  30.  31.  32.  33.  34.  35.  36.  37.
(PID.TID 0000.0001) DIAGNOSTICS_SET_POINTERS: Set levels for Outp.Stream: Diags/GM_diags
(PID.TID 0000.0001)  Levels:       1.   2.   3.   4.   5.   6.   7.   8.   9.  10.  11.  12.  13.  14.  15.  16.  17.  18.  19.  20.
(PID.TID 0000.0001)  Levels:      21.  22.  23.  24.  25.  26.  27.  28.  29.  30.  31.  32.  33.  34.  35.  36.  37.  38.  39.  40.
(PID.TID 0000.0001)  Levels:      41.  42.  43.  44.  45.  46.  47.  48.  49.
(PID.TID 0000.0001) DIAGNOSTICS_SET_POINTERS: done
(PID.TID 0000.0001) ------------------------------------------------------------
(PID.TID 0000.0001) DIAGSTATS_SET_REGIONS: define no region
(PID.TID 0000.0001) ------------------------------------------------------------
(PID.TID 0000.0001) SETDIAG: Allocate 49 Levels for Stats-Diag #    26 THETA
(PID.TID 0000.0001) SETDIAG: Allocate  1 Levels for Stats-Diag #    88 TRELAX
(PID.TID 0000.0001)   space allocated for all stats-diags:      50 levels
(PID.TID 0000.0001) DIAGSTATS_SET_POINTERS: done
(PID.TID 0000.0001) ------------------------------------------------------------
(PID.TID 0000.0001) DIAGSTATS_INI_IO: open file: dynStDiag.0000000000.txt , unit=     9
(PID.TID 0000.0001) %MON fCori_max                    =  -1.1036825000000E-04
(PID.TID 0000.0001) %MON fCori_min                    =  -1.3597175000000E-04
(PID.TID 0000.0001) %MON fCori_mean                   =  -1.2317000000000E-04
(PID.TID 0000.0001) %MON fCori_sd                     =   7.5782397238739E-06
(PID.TID 0000.0001) %MON fCoriG_max                   =  -1.1069650000000E-04
(PID.TID 0000.0001) %MON fCoriG_min                   =  -1.3630000000000E-04
(PID.TID 0000.0001) %MON fCoriG_mean                  =  -1.2349825000000E-04
(PID.TID 0000.0001) %MON fCoriG_sd                    =   7.5782397238739E-06
(PID.TID 0000.0001) %MON fCoriCos_max                 =   0.0000000000000E+00
(PID.TID 0000.0001) %MON fCoriCos_min                 =   0.0000000000000E+00
(PID.TID 0000.0001) %MON fCoriCos_mean                =   0.0000000000000E+00
(PID.TID 0000.0001) %MON fCoriCos_sd                  =   0.0000000000000E+00
(PID.TID 0000.0001) INI_CG2D: CG2D normalisation factor =  2.5111364241074002E-04
(PID.TID 0000.0001) 
(PID.TID 0000.0001) // =======================================================
(PID.TID 0000.0001) // Model configuration
(PID.TID 0000.0001) // =======================================================
(PID.TID 0000.0001) //
(PID.TID 0000.0001) // "Physical" paramters ( PARM01 in namelist )
(PID.TID 0000.0001) //
(PID.TID 0000.0001) buoyancyRelation = /* Type of relation to get Buoyancy */
(PID.TID 0000.0001)               'OCEANIC'
(PID.TID 0000.0001)     ;
(PID.TID 0000.0001) fluidIsAir   =  /* fluid major constituent is Air */
(PID.TID 0000.0001)                   F
(PID.TID 0000.0001)     ;
(PID.TID 0000.0001) fluidIsWater =  /* fluid major constituent is Water */
(PID.TID 0000.0001)                   T
(PID.TID 0000.0001)     ;
(PID.TID 0000.0001) usingPCoords =  /* use p (or p*) vertical coordinate */
(PID.TID 0000.0001)                   F
(PID.TID 0000.0001)     ;
(PID.TID 0000.0001) usingZCoords =  /* use z (or z*) vertical coordinate */
(PID.TID 0000.0001)                   T
(PID.TID 0000.0001)     ;
(PID.TID 0000.0001) tRef =   /* Reference temperature profile ( oC or K ) */
(PID.TID 0000.0001)    49 @  5.000000000000000E+00              /* K =  1: 49 */
(PID.TID 0000.0001)     ;
(PID.TID 0000.0001) sRef =   /* Reference salinity profile ( psu ) */
(PID.TID 0000.0001)    49 @  3.000000000000000E+01              /* K =  1: 49 */
(PID.TID 0000.0001)     ;
(PID.TID 0000.0001) useStrainTensionVisc= /* Use StrainTension Form of Viscous Operator */
(PID.TID 0000.0001)                   F
(PID.TID 0000.0001)     ;
(PID.TID 0000.0001) useVariableVisc = /* Use variable horizontal viscosity */
(PID.TID 0000.0001)                   F
(PID.TID 0000.0001)     ;
(PID.TID 0000.0001) useHarmonicVisc = /* Use harmonic horizontal viscosity */
(PID.TID 0000.0001)                   T
(PID.TID 0000.0001)     ;
(PID.TID 0000.0001) useBiharmonicVisc= /* Use biharmonic horiz.  viscosity */
(PID.TID 0000.0001)                   F
(PID.TID 0000.0001)     ;
(PID.TID 0000.0001) useSmag3D = /* Use isotropic 3-D Smagorinsky viscosity */
(PID.TID 0000.0001)                   F
(PID.TID 0000.0001)     ;
(PID.TID 0000.0001) viscAh  =   /* Lateral harmonic viscosity ( m^2/s ) */
(PID.TID 0000.0001)                 2.000000000000000E+03
(PID.TID 0000.0001)     ;
(PID.TID 0000.0001) viscA4  =   /* Lateral biharmonic viscosity ( m^4/s ) */
(PID.TID 0000.0001)                 0.000000000000000E+00
(PID.TID 0000.0001)     ;
(PID.TID 0000.0001) no_slip_sides =  /* Viscous BCs: No-slip sides */
(PID.TID 0000.0001)                   T
(PID.TID 0000.0001)     ;
(PID.TID 0000.0001) sideDragFactor = /* side-drag scaling factor (non-dim) */
(PID.TID 0000.0001)                 2.000000000000000E+00
(PID.TID 0000.0001)     ;
(PID.TID 0000.0001) viscArNr = /* vertical profile of vertical viscosity ( m^2/s )*/
(PID.TID 0000.0001)    49 @  3.000000000000000E-03              /* K =  1: 49 */
(PID.TID 0000.0001)     ;
(PID.TID 0000.0001) no_slip_bottom =  /* Viscous BCs: No-slip bottom */
(PID.TID 0000.0001)                   T
(PID.TID 0000.0001)     ;
(PID.TID 0000.0001) bottomVisc_pCell = /* Partial-cell in bottom Visc. BC */
(PID.TID 0000.0001)                   F
(PID.TID 0000.0001)     ;
(PID.TID 0000.0001) bottomDragLinear = /* linear bottom-drag coefficient ( m/s ) */
(PID.TID 0000.0001)                 0.000000000000000E+00
(PID.TID 0000.0001)     ;
(PID.TID 0000.0001) bottomDragQuadratic = /* quadratic bottom-drag coefficient (-) */
(PID.TID 0000.0001)                 0.000000000000000E+00
(PID.TID 0000.0001)     ;
(PID.TID 0000.0001) selectBotDragQuadr = /* select quadratic bottom drag options */
(PID.TID 0000.0001)                      -1
(PID.TID 0000.0001)     ;
(PID.TID 0000.0001) diffKhT =   /* Laplacian diffusion of heat laterally ( m^2/s ) */
(PID.TID 0000.0001)                 0.000000000000000E+00
(PID.TID 0000.0001)     ;
(PID.TID 0000.0001) diffK4T =   /* Biharmonic diffusion of heat laterally ( m^4/s ) */
(PID.TID 0000.0001)                 0.000000000000000E+00
(PID.TID 0000.0001)     ;
(PID.TID 0000.0001) diffKhS =   /* Laplacian diffusion of salt laterally ( m^2/s ) */
(PID.TID 0000.0001)                 0.000000000000000E+00
(PID.TID 0000.0001)     ;
(PID.TID 0000.0001) diffK4S =   /* Biharmonic diffusion of salt laterally ( m^4/s ) */
(PID.TID 0000.0001)                 0.000000000000000E+00
(PID.TID 0000.0001)     ;
(PID.TID 0000.0001) diffKrNrT = /* vertical profile of vertical diffusion of Temp ( m^2/s )*/
(PID.TID 0000.0001)    49 @  1.000000000000000E-05              /* K =  1: 49 */
(PID.TID 0000.0001)     ;
(PID.TID 0000.0001) diffKrNrS = /* vertical profile of vertical diffusion of Salt ( m^2/s )*/
(PID.TID 0000.0001)    49 @  1.000000000000000E-05              /* K =  1: 49 */
(PID.TID 0000.0001)     ;
(PID.TID 0000.0001) diffKrBL79surf = /* Surface diffusion for Bryan and Lewis 79 ( m^2/s ) */
(PID.TID 0000.0001)                 0.000000000000000E+00
(PID.TID 0000.0001)     ;
(PID.TID 0000.0001) diffKrBL79deep = /* Deep diffusion for Bryan and Lewis 1979 ( m^2/s ) */
(PID.TID 0000.0001)                 0.000000000000000E+00
(PID.TID 0000.0001)     ;
(PID.TID 0000.0001) diffKrBL79scl = /* Depth scale for Bryan and Lewis 1979 ( m ) */
(PID.TID 0000.0001)                 2.000000000000000E+02
(PID.TID 0000.0001)     ;
(PID.TID 0000.0001) diffKrBL79Ho = /* Turning depth for Bryan and Lewis 1979 ( m ) */
(PID.TID 0000.0001)                -2.000000000000000E+03
(PID.TID 0000.0001)     ;
(PID.TID 0000.0001) ivdc_kappa = /* Implicit Vertical Diffusivity for Convection ( m^2/s) */
(PID.TID 0000.0001)                 1.000000000000000E+00
(PID.TID 0000.0001)     ;
(PID.TID 0000.0001) hMixCriteria=  /* Criteria for mixed-layer diagnostic */
(PID.TID 0000.0001)                -8.000000000000000E-01
(PID.TID 0000.0001)     ;
(PID.TID 0000.0001) dRhoSmall =  /* Parameter for mixed-layer diagnostic */
(PID.TID 0000.0001)                 1.000000000000000E-06
(PID.TID 0000.0001)     ;
(PID.TID 0000.0001) hMixSmooth=  /* Smoothing parameter for mixed-layer diagnostic */
(PID.TID 0000.0001)                 0.000000000000000E+00
(PID.TID 0000.0001)     ;
(PID.TID 0000.0001) eosType =  /* Type of Equation of State */
(PID.TID 0000.0001)               'LINEAR'
(PID.TID 0000.0001)     ;
(PID.TID 0000.0001) tAlpha = /* Linear EOS thermal expansion coefficient ( 1/oC ) */
(PID.TID 0000.0001)                 2.000000000000000E-04
(PID.TID 0000.0001)     ;
(PID.TID 0000.0001) sBeta  = /* Linear EOS haline contraction coefficient ( 1/psu ) */
(PID.TID 0000.0001)                 0.000000000000000E+00
(PID.TID 0000.0001)     ;
(PID.TID 0000.0001) rhoNil    = /* Reference density for Linear EOS ( kg/m^3 ) */
(PID.TID 0000.0001)                 1.035000000000000E+03
(PID.TID 0000.0001)     ;
(PID.TID 0000.0001) selectP_inEOS_Zc = /* select pressure to use in EOS (0,1,2,3) */
(PID.TID 0000.0001)                       0
(PID.TID 0000.0001)     0= -g*rhoConst*z ; 1= pRef (from tRef,sRef); 2= Hyd P ; 3= Hyd+NH P
(PID.TID 0000.0001)     ;
(PID.TID 0000.0001) HeatCapacity_Cp =  /* Specific heat capacity ( J/kg/K ) */
(PID.TID 0000.0001)                 3.994000000000000E+03
(PID.TID 0000.0001)     ;
(PID.TID 0000.0001) celsius2K = /* 0 degree Celsius converted to Kelvin ( K ) */
(PID.TID 0000.0001)                 2.731500000000000E+02
(PID.TID 0000.0001)     ;
(PID.TID 0000.0001) rhoConst  = /* Reference density (Boussinesq)  ( kg/m^3 ) */
(PID.TID 0000.0001)                 1.035000000000000E+03
(PID.TID 0000.0001)     ;
(PID.TID 0000.0001) rhoFacC = /* normalized Reference density @ cell-Center (-) */
(PID.TID 0000.0001)    49 @  1.000000000000000E+00              /* K =  1: 49 */
(PID.TID 0000.0001)     ;
(PID.TID 0000.0001) rhoFacF = /* normalized Reference density @ W-Interface (-) */
(PID.TID 0000.0001)    50 @  1.000000000000000E+00              /* K =  1: 50 */
(PID.TID 0000.0001)     ;
(PID.TID 0000.0001) rhoConstFresh = /* Fresh-water reference density ( kg/m^3 ) */
(PID.TID 0000.0001)                 1.035000000000000E+03
(PID.TID 0000.0001)     ;
(PID.TID 0000.0001) gravity =   /* Gravitational acceleration ( m/s^2 ) */
(PID.TID 0000.0001)                 9.810000000000000E+00
(PID.TID 0000.0001)     ;
(PID.TID 0000.0001) gBaro =   /* Barotropic gravity ( m/s^2 ) */
(PID.TID 0000.0001)                 9.810000000000000E+00
(PID.TID 0000.0001)     ;
(PID.TID 0000.0001) gravFacC = /* gravity factor (vs surf.) @ cell-Center (-) */
(PID.TID 0000.0001)    49 @  1.000000000000000E+00              /* K =  1: 49 */
(PID.TID 0000.0001)     ;
(PID.TID 0000.0001) gravFacF = /* gravity factor (vs surf.) @ W-Interface (-) */
(PID.TID 0000.0001)    50 @  1.000000000000000E+00              /* K =  1: 50 */
(PID.TID 0000.0001)     ;
(PID.TID 0000.0001) rotationPeriod =   /* Rotation Period ( s ) */
(PID.TID 0000.0001)                 8.616400000000000E+04
(PID.TID 0000.0001)     ;
(PID.TID 0000.0001) omega =   /* Angular velocity ( rad/s ) */
(PID.TID 0000.0001)                 7.292123516990375E-05
(PID.TID 0000.0001)     ;
(PID.TID 0000.0001) f0 =   /* Reference coriolis parameter ( 1/s ) */
(PID.TID 0000.0001)                -1.363000000000000E-04
(PID.TID 0000.0001)     ;
(PID.TID 0000.0001) beta =   /* Beta ( 1/(m.s) ) */
(PID.TID 0000.0001)                 1.313000000000000E-11
(PID.TID 0000.0001)     ;
(PID.TID 0000.0001) fPrime =   /* Second coriolis parameter ( 1/s ) */
(PID.TID 0000.0001)                 0.000000000000000E+00
(PID.TID 0000.0001)     ;
(PID.TID 0000.0001) rigidLid =   /* Rigid lid on/off flag */
(PID.TID 0000.0001)                   F
(PID.TID 0000.0001)     ;
(PID.TID 0000.0001) implicitFreeSurface =   /* Implicit free surface on/off flag */
(PID.TID 0000.0001)                   T
(PID.TID 0000.0001)     ;
(PID.TID 0000.0001) freeSurfFac =   /* Implicit free surface factor */
(PID.TID 0000.0001)                 1.000000000000000E+00
(PID.TID 0000.0001)     ;
(PID.TID 0000.0001) implicSurfPress =  /* Surface Pressure implicit factor (0-1)*/
(PID.TID 0000.0001)                 1.000000000000000E+00
(PID.TID 0000.0001)     ;
(PID.TID 0000.0001) implicDiv2DFlow =  /* Barot. Flow Div. implicit factor (0-1)*/
(PID.TID 0000.0001)                 1.000000000000000E+00
(PID.TID 0000.0001)     ;
(PID.TID 0000.0001) uniformLin_PhiSurf = /* use uniform Bo_surf on/off flag*/
(PID.TID 0000.0001)                   T
(PID.TID 0000.0001)     ;
(PID.TID 0000.0001) uniformFreeSurfLev = /* free-surface level-index is uniform */
(PID.TID 0000.0001)                   T
(PID.TID 0000.0001)     ;
(PID.TID 0000.0001) hFacMin =   /* minimum partial cell factor (hFac) */
(PID.TID 0000.0001)                 1.000000000000000E-01
(PID.TID 0000.0001)     ;
(PID.TID 0000.0001) hFacMinDr = /* minimum partial cell thickness ( m) */
(PID.TID 0000.0001)                 5.000000000000000E+00
(PID.TID 0000.0001)     ;
(PID.TID 0000.0001) exactConserv =  /* Exact Volume Conservation on/off flag*/
(PID.TID 0000.0001)                   T
(PID.TID 0000.0001)     ;
(PID.TID 0000.0001) linFSConserveTr = /* Tracer correction for Lin Free Surface on/off flag*/
(PID.TID 0000.0001)                   F
(PID.TID 0000.0001)     ;
(PID.TID 0000.0001) nonlinFreeSurf = /* Non-linear Free Surf. options (-1,0,1,2,3)*/
(PID.TID 0000.0001)                       0
(PID.TID 0000.0001)      -1,0= Off ; 1,2,3= On, 2=+rescale gU,gV, 3=+update cg2d solv.
(PID.TID 0000.0001)     ;
(PID.TID 0000.0001) hFacInf =   /* lower threshold for hFac (nonlinFreeSurf only)*/
(PID.TID 0000.0001)                 2.000000000000000E-01
(PID.TID 0000.0001)     ;
(PID.TID 0000.0001) hFacSup =   /* upper threshold for hFac (nonlinFreeSurf only)*/
(PID.TID 0000.0001)                 2.000000000000000E+00
(PID.TID 0000.0001)     ;
(PID.TID 0000.0001) select_rStar = /* r* Vertical coord. options (=0 r coord.; >0 uses r*)*/
(PID.TID 0000.0001)                       0
(PID.TID 0000.0001)     ;
(PID.TID 0000.0001) useRealFreshWaterFlux = /* Real Fresh Water Flux on/off flag*/
(PID.TID 0000.0001)                   F
(PID.TID 0000.0001)     ;
(PID.TID 0000.0001) temp_EvPrRn = /* Temp. of Evap/Prec/R (UNSET=use local T)(oC)*/
(PID.TID 0000.0001)                 1.234567000000000E+05
(PID.TID 0000.0001)     ;
(PID.TID 0000.0001) salt_EvPrRn = /* Salin. of Evap/Prec/R (UNSET=use local S)(psu)*/
(PID.TID 0000.0001)                 0.000000000000000E+00
(PID.TID 0000.0001)     ;
(PID.TID 0000.0001) selectAddFluid = /* option for mass source/sink of fluid (=0: off) */
(PID.TID 0000.0001)                       0
(PID.TID 0000.0001)     ;
(PID.TID 0000.0001) temp_addMass = /* Temp. of addMass array (UNSET=use local T)(oC)*/
(PID.TID 0000.0001)                 1.234567000000000E+05
(PID.TID 0000.0001)     ;
(PID.TID 0000.0001) salt_addMass = /* Salin. of addMass array (UNSET=use local S)(psu)*/
(PID.TID 0000.0001)                 0.000000000000000E+00
(PID.TID 0000.0001)     ;
(PID.TID 0000.0001) convertFW2Salt = /* convert F.W. Flux to Salt Flux (-1=use local S)(psu)*/
(PID.TID 0000.0001)                 3.500000000000000E+01
(PID.TID 0000.0001)     ;
(PID.TID 0000.0001) use3Dsolver = /* use 3-D pressure solver on/off flag */
(PID.TID 0000.0001)                   F
(PID.TID 0000.0001)     ;
(PID.TID 0000.0001) nonHydrostatic =  /* Non-Hydrostatic on/off flag */
(PID.TID 0000.0001)                   F
(PID.TID 0000.0001)     ;
(PID.TID 0000.0001) nh_Am2 = /* Non-Hydrostatic terms scaling factor */
(PID.TID 0000.0001)                 1.000000000000000E+00
(PID.TID 0000.0001)     ;
(PID.TID 0000.0001) implicitNHPress = /* Non-Hyd Pressure implicit factor (0-1)*/
(PID.TID 0000.0001)                 1.000000000000000E+00
(PID.TID 0000.0001)     ;
(PID.TID 0000.0001) selectNHfreeSurf = /* Non-Hyd (free-)Surface option */
(PID.TID 0000.0001)                       0
(PID.TID 0000.0001)     ;
(PID.TID 0000.0001) quasiHydrostatic = /* Quasi-Hydrostatic on/off flag */
(PID.TID 0000.0001)                   F
(PID.TID 0000.0001)     ;
(PID.TID 0000.0001) calc_wVelocity = /* vertical velocity calculation on/off flag */
(PID.TID 0000.0001)                   T
(PID.TID 0000.0001)     ;
(PID.TID 0000.0001) momStepping =  /* Momentum equation on/off flag */
(PID.TID 0000.0001)                   T
(PID.TID 0000.0001)     ;
(PID.TID 0000.0001) vectorInvariantMomentum= /* Vector-Invariant Momentum on/off */
(PID.TID 0000.0001)                   F
(PID.TID 0000.0001)     ;
(PID.TID 0000.0001) momAdvection =  /* Momentum advection on/off flag */
(PID.TID 0000.0001)                   T
(PID.TID 0000.0001)     ;
(PID.TID 0000.0001) momViscosity =  /* Momentum viscosity on/off flag */
(PID.TID 0000.0001)                   T
(PID.TID 0000.0001)     ;
(PID.TID 0000.0001) momImplVertAdv= /* Momentum implicit vert. advection on/off*/
(PID.TID 0000.0001)                   F
(PID.TID 0000.0001)     ;
(PID.TID 0000.0001) implicitViscosity = /* Implicit viscosity on/off flag */
(PID.TID 0000.0001)                   T
(PID.TID 0000.0001)     ;
(PID.TID 0000.0001) selectImplicitDrag= /* Implicit bot Drag options (0,1,2)*/
(PID.TID 0000.0001)                       0
(PID.TID 0000.0001)     0= Expl. ; 1= Impl. on provis. Vel ; 2= Fully Impl (with surf.P)
(PID.TID 0000.0001)     ;
(PID.TID 0000.0001) metricTerms =  /* metric-Terms on/off flag */
(PID.TID 0000.0001)                   F
(PID.TID 0000.0001)     ;
(PID.TID 0000.0001) useNHMTerms = /* Non-Hydrostatic Metric-Terms on/off */
(PID.TID 0000.0001)                   F
(PID.TID 0000.0001)     ;
(PID.TID 0000.0001) selectCoriMap = /* Coriolis Map options (0,1,2,3)*/
(PID.TID 0000.0001)                       1
(PID.TID 0000.0001)     0= f-Plane ; 1= Beta-Plane ; 2= Spherical ; 3= read from file
(PID.TID 0000.0001)     ;
(PID.TID 0000.0001) use3dCoriolis = /* 3-D Coriolis on/off flag */
(PID.TID 0000.0001)                   F
(PID.TID 0000.0001)     ;
(PID.TID 0000.0001) useCoriolis =  /* Coriolis on/off flag */
(PID.TID 0000.0001)                   T
(PID.TID 0000.0001)     ;
(PID.TID 0000.0001) useCDscheme =  /* CD scheme on/off flag */
(PID.TID 0000.0001)                   F
(PID.TID 0000.0001)     ;
(PID.TID 0000.0001) selectCoriScheme= /* Scheme selector for Coriolis-Term */
(PID.TID 0000.0001)                       1
(PID.TID 0000.0001)    = 0 : original discretization (simple averaging, no hFac)
(PID.TID 0000.0001)    = 1 : Wet-point averaging (Jamar & Ozer 1986)
(PID.TID 0000.0001)    = 2 : energy conserving scheme (no hFac weight)
(PID.TID 0000.0001)    = 3 : energy conserving scheme using Wet-point averaging
(PID.TID 0000.0001)     ;
(PID.TID 0000.0001) momForcing =  /* Momentum forcing on/off flag */
(PID.TID 0000.0001)                   T
(PID.TID 0000.0001)     ;
(PID.TID 0000.0001) momTidalForcing = /* Momentum Tidal forcing on/off flag */
(PID.TID 0000.0001)                   T
(PID.TID 0000.0001)     ;
(PID.TID 0000.0001) momPressureForcing =  /* Momentum pressure term on/off flag */
(PID.TID 0000.0001)                   T
(PID.TID 0000.0001)     ;
(PID.TID 0000.0001) implicitIntGravWave= /* Implicit Internal Gravity Wave flag */
(PID.TID 0000.0001)                   F
(PID.TID 0000.0001)     ;
(PID.TID 0000.0001) staggerTimeStep =    /* Stagger time stepping on/off flag */
(PID.TID 0000.0001)                   T
(PID.TID 0000.0001)     ;
(PID.TID 0000.0001) doResetHFactors = /* reset thickness factors @ each time-step */
(PID.TID 0000.0001)                   F
(PID.TID 0000.0001)     ;
(PID.TID 0000.0001) multiDimAdvection =  /* enable/disable Multi-Dim Advection */
(PID.TID 0000.0001)                   T
(PID.TID 0000.0001)     ;
(PID.TID 0000.0001) useMultiDimAdvec =   /* Multi-Dim Advection is/is-not used */
(PID.TID 0000.0001)                   T
(PID.TID 0000.0001)     ;
(PID.TID 0000.0001) implicitDiffusion = /* Implicit Diffusion on/off flag */
(PID.TID 0000.0001)                   T
(PID.TID 0000.0001)     ;
(PID.TID 0000.0001) tempStepping =  /* Temperature equation on/off flag */
(PID.TID 0000.0001)                   T
(PID.TID 0000.0001)     ;
(PID.TID 0000.0001) tempAdvection = /* Temperature advection on/off flag */
(PID.TID 0000.0001)                   T
(PID.TID 0000.0001)     ;
(PID.TID 0000.0001) tempImplVertAdv = /* Temp. implicit vert. advection on/off */
(PID.TID 0000.0001)                   F
(PID.TID 0000.0001)     ;
(PID.TID 0000.0001) tempForcing  =  /* Temperature forcing on/off flag */
(PID.TID 0000.0001)                   T
(PID.TID 0000.0001)     ;
(PID.TID 0000.0001) doThetaClimRelax = /* apply SST relaxation on/off flag */
(PID.TID 0000.0001)                   T
(PID.TID 0000.0001)     ;
(PID.TID 0000.0001) tempIsActiveTr = /* Temp. is a dynamically Active Tracer */
(PID.TID 0000.0001)                   T
(PID.TID 0000.0001)     ;
(PID.TID 0000.0001) saltStepping =  /* Salinity equation on/off flag */
(PID.TID 0000.0001)                   F
(PID.TID 0000.0001)     ;
(PID.TID 0000.0001) saltAdvection = /* Salinity advection on/off flag */
(PID.TID 0000.0001)                   F
(PID.TID 0000.0001)     ;
(PID.TID 0000.0001) saltImplVertAdv = /* Sali. implicit vert. advection on/off */
(PID.TID 0000.0001)                   F
(PID.TID 0000.0001)     ;
(PID.TID 0000.0001) saltForcing  =  /* Salinity forcing on/off flag */
(PID.TID 0000.0001)                   F
(PID.TID 0000.0001)     ;
(PID.TID 0000.0001) doSaltClimRelax = /* apply SSS relaxation on/off flag */
(PID.TID 0000.0001)                   F
(PID.TID 0000.0001)     ;
(PID.TID 0000.0001) saltIsActiveTr = /* Salt  is a dynamically Active Tracer */
(PID.TID 0000.0001)                   F
(PID.TID 0000.0001)     ;
(PID.TID 0000.0001)  readBinaryPrec = /* Precision used for reading binary files */
(PID.TID 0000.0001)                      32
(PID.TID 0000.0001)     ;
(PID.TID 0000.0001) writeBinaryPrec = /* Precision used for writing binary files */
(PID.TID 0000.0001)                      32
(PID.TID 0000.0001)     ;
(PID.TID 0000.0001)  rwSuffixType =   /* select format of mds file suffix */
(PID.TID 0000.0001)                       0
(PID.TID 0000.0001)    = 0 : myIter (I10.10) ;   = 1 : 100*myTime (100th sec) ;
(PID.TID 0000.0001)    = 2 : myTime (seconds);   = 3 : myTime/360 (10th of hr);
(PID.TID 0000.0001)    = 4 : myTime/3600 (hours)
(PID.TID 0000.0001)     ;
(PID.TID 0000.0001)  globalFiles = /* write "global" (=not per tile) files */
(PID.TID 0000.0001)                   F
(PID.TID 0000.0001)     ;
(PID.TID 0000.0001)  useSingleCpuIO = /* only master MPI process does I/O */
(PID.TID 0000.0001)                   F
(PID.TID 0000.0001)     ;
(PID.TID 0000.0001)  useSingleCpuInput = /* only master process reads input */
(PID.TID 0000.0001)                   F
(PID.TID 0000.0001)     ;
(PID.TID 0000.0001) /* debLev[*]  : level of debug & auxiliary message printing */
(PID.TID 0000.0001) debLevZero =  0 ; /* level of disabled aux. msg printing */
(PID.TID 0000.0001)    debLevA =  1 ; /* level of minimum  aux. msg printing */
(PID.TID 0000.0001)    debLevB =  2 ; /* level of low aux. print (report read-file opening)*/
(PID.TID 0000.0001)    debLevC =  3 ; /* level of moderate debug prt (most pkgs debug msg) */
(PID.TID 0000.0001)    debLevD =  4 ; /* level of enhanced debug prt (add DEBUG_STATS prt) */
(PID.TID 0000.0001)    debLevE =  5 ; /* level of extensive debug printing */
(PID.TID 0000.0001) debugLevel =  /* select debug printing level */
(PID.TID 0000.0001)                       2
(PID.TID 0000.0001)     ;
(PID.TID 0000.0001)  plotLevel =  /* select PLOT_FIELD printing level */
(PID.TID 0000.0001)                       2
(PID.TID 0000.0001)     ;
(PID.TID 0000.0001) //
(PID.TID 0000.0001) // Elliptic solver(s) paramters ( PARM02 in namelist )
(PID.TID 0000.0001) //
(PID.TID 0000.0001) cg2dMaxIters =   /* Upper limit on 2d con. grad iterations  */
(PID.TID 0000.0001)                    1000
(PID.TID 0000.0001)     ;
(PID.TID 0000.0001) cg2dChkResFreq =   /* 2d con. grad convergence test frequency */
(PID.TID 0000.0001)                       1
(PID.TID 0000.0001)     ;
(PID.TID 0000.0001) cg2dUseMinResSol= /* use cg2d last-iter(=0) / min-resid.(=1) solution */
(PID.TID 0000.0001)                       0
(PID.TID 0000.0001)     ;
(PID.TID 0000.0001) cg2dTargetResidual =   /* 2d con. grad target residual  */
(PID.TID 0000.0001)                 1.000000000000000E-07
(PID.TID 0000.0001)     ;
(PID.TID 0000.0001) cg2dTargetResWunit =   /* CG2d target residual [W units] */
(PID.TID 0000.0001)                -1.000000000000000E+00
(PID.TID 0000.0001)     ;
(PID.TID 0000.0001) cg2dPreCondFreq =   /* Freq. for updating cg2d preconditioner */
(PID.TID 0000.0001)                       1
(PID.TID 0000.0001)     ;
(PID.TID 0000.0001) useSRCGSolver =  /* use single reduction CG solver(s) */
(PID.TID 0000.0001)                   F
(PID.TID 0000.0001)     ;
(PID.TID 0000.0001) printResidualFreq = /* Freq. for printing CG residual */
(PID.TID 0000.0001)                       0
(PID.TID 0000.0001)     ;
(PID.TID 0000.0001) //
(PID.TID 0000.0001) // Time stepping paramters ( PARM03 in namelist )
(PID.TID 0000.0001) //
(PID.TID 0000.0001) deltaTMom =   /* Momentum equation timestep ( s ) */
(PID.TID 0000.0001)                 1.000000000000000E+03
(PID.TID 0000.0001)     ;
(PID.TID 0000.0001) deltaTFreeSurf = /* FreeSurface equation timestep ( s ) */
(PID.TID 0000.0001)                 1.000000000000000E+03
(PID.TID 0000.0001)     ;
(PID.TID 0000.0001) dTtracerLev =  /* Tracer equation timestep ( s ) */
(PID.TID 0000.0001)    49 @  1.000000000000000E+03              /* K =  1: 49 */
(PID.TID 0000.0001)     ;
(PID.TID 0000.0001) deltaTClock  =   /* Model clock timestep ( s ) */
(PID.TID 0000.0001)                 1.000000000000000E+03
(PID.TID 0000.0001)     ;
(PID.TID 0000.0001) cAdjFreq =   /* Convective adjustment interval ( s ) */
(PID.TID 0000.0001)                 0.000000000000000E+00
(PID.TID 0000.0001)     ;
(PID.TID 0000.0001) momForcingOutAB = /* =1: take Momentum Forcing out of Adams-Bash. stepping */
(PID.TID 0000.0001)                       0
(PID.TID 0000.0001)     ;
(PID.TID 0000.0001) tracForcingOutAB = /* =1: take T,S,pTr Forcing out of Adams-Bash. stepping */
(PID.TID 0000.0001)                       0
(PID.TID 0000.0001)     ;
(PID.TID 0000.0001) momDissip_In_AB = /* put Dissipation Tendency in Adams-Bash. stepping */
(PID.TID 0000.0001)                   F
(PID.TID 0000.0001)     ;
(PID.TID 0000.0001) doAB_onGtGs = /* apply AB on Tendencies (rather than on T,S)*/
(PID.TID 0000.0001)                   T
(PID.TID 0000.0001)     ;
(PID.TID 0000.0001) abEps =   /* Adams-Bashforth-2 stabilizing weight */
(PID.TID 0000.0001)                 1.000000000000000E-02
(PID.TID 0000.0001)     ;
(PID.TID 0000.0001) applyExchUV_early = /* Apply EXCH to U,V earlier in time-step */
(PID.TID 0000.0001)                   F
(PID.TID 0000.0001)     ;
(PID.TID 0000.0001) pickupStrictlyMatch= /* stop if pickup do not strictly match */
(PID.TID 0000.0001)                   T
(PID.TID 0000.0001)     ;
(PID.TID 0000.0001) nIter0   =   /* Run starting timestep number */
(PID.TID 0000.0001)                       0
(PID.TID 0000.0001)     ;
(PID.TID 0000.0001) nTimeSteps = /* Number of timesteps */
(PID.TID 0000.0001)                      10
(PID.TID 0000.0001)     ;
(PID.TID 0000.0001) nEndIter =   /* Run ending timestep number */
(PID.TID 0000.0001)                      10
(PID.TID 0000.0001)     ;
(PID.TID 0000.0001) baseTime =   /* Model base time ( s ) */
(PID.TID 0000.0001)                 0.000000000000000E+00
(PID.TID 0000.0001)     ;
(PID.TID 0000.0001) startTime =  /* Run start time ( s ) */
(PID.TID 0000.0001)                 0.000000000000000E+00
(PID.TID 0000.0001)     ;
(PID.TID 0000.0001) endTime  =   /* Integration ending time ( s ) */
(PID.TID 0000.0001)                 1.000000000000000E+04
(PID.TID 0000.0001)     ;
(PID.TID 0000.0001) pChkPtFreq = /* Permanent restart/pickup file interval ( s ) */
(PID.TID 0000.0001)                 3.110400000000000E+07
(PID.TID 0000.0001)     ;
(PID.TID 0000.0001) chkPtFreq  = /* Rolling restart/pickup file interval ( s ) */
(PID.TID 0000.0001)                 1.555200000000000E+07
(PID.TID 0000.0001)     ;
(PID.TID 0000.0001) pickup_write_mdsio =   /* Model IO flag. */
(PID.TID 0000.0001)                   T
(PID.TID 0000.0001)     ;
(PID.TID 0000.0001) pickup_read_mdsio =   /* Model IO flag. */
(PID.TID 0000.0001)                   T
(PID.TID 0000.0001)     ;
(PID.TID 0000.0001) writePickupAtEnd =   /* Model IO flag. */
(PID.TID 0000.0001)                   T
(PID.TID 0000.0001)     ;
(PID.TID 0000.0001) dumpFreq =   /* Model state write out interval ( s ). */
(PID.TID 0000.0001)                 0.000000000000000E+00
(PID.TID 0000.0001)     ;
(PID.TID 0000.0001) dumpInitAndLast= /* write out Initial & Last iter. model state */
(PID.TID 0000.0001)                   T
(PID.TID 0000.0001)     ;
(PID.TID 0000.0001) snapshot_mdsio =   /* Model IO flag. */
(PID.TID 0000.0001)                   T
(PID.TID 0000.0001)     ;
(PID.TID 0000.0001) monitorFreq =   /* Monitor output interval ( s ). */
(PID.TID 0000.0001)                 1.200000000000000E+03
(PID.TID 0000.0001)     ;
(PID.TID 0000.0001) monitorSelect = /* select group of variables to monitor */
(PID.TID 0000.0001)                       2
(PID.TID 0000.0001)     ;
(PID.TID 0000.0001) monitor_stdio =   /* Model IO flag. */
(PID.TID 0000.0001)                   T
(PID.TID 0000.0001)     ;
(PID.TID 0000.0001) externForcingPeriod =   /* forcing period (s) */
(PID.TID 0000.0001)                 0.000000000000000E+00
(PID.TID 0000.0001)     ;
(PID.TID 0000.0001) externForcingCycle =   /* period of the cyle (s). */
(PID.TID 0000.0001)                 0.000000000000000E+00
(PID.TID 0000.0001)     ;
(PID.TID 0000.0001) tauThetaClimRelax =   /* relaxation time scale (s) */
(PID.TID 0000.0001)                 8.640000000000000E+05
(PID.TID 0000.0001)     ;
(PID.TID 0000.0001) tauSaltClimRelax =   /* relaxation time scale (s) */
(PID.TID 0000.0001)                 0.000000000000000E+00
(PID.TID 0000.0001)     ;
(PID.TID 0000.0001) latBandClimRelax =   /* max. Lat. where relaxation */
(PID.TID 0000.0001)                 6.000000000000000E+06
(PID.TID 0000.0001)     ;
(PID.TID 0000.0001) //
(PID.TID 0000.0001) // Gridding paramters ( PARM04 in namelist )
(PID.TID 0000.0001) //
(PID.TID 0000.0001) usingCartesianGrid = /* Cartesian coordinates flag ( True/False ) */
(PID.TID 0000.0001)                   T
(PID.TID 0000.0001)     ;
(PID.TID 0000.0001) usingCylindricalGrid = /* Cylindrical coordinates flag ( True/False ) */
(PID.TID 0000.0001)                   F
(PID.TID 0000.0001)     ;
(PID.TID 0000.0001) usingSphericalPolarGrid = /* Spherical coordinates flag ( True/False ) */
(PID.TID 0000.0001)                   F
(PID.TID 0000.0001)     ;
(PID.TID 0000.0001) usingCurvilinearGrid = /* Curvilinear coordinates flag ( True/False ) */
(PID.TID 0000.0001)                   F
(PID.TID 0000.0001)     ;
(PID.TID 0000.0001) useMin4hFacEdges = /* set hFacW,S as minimum of adjacent hFacC factor */
(PID.TID 0000.0001)                   F
(PID.TID 0000.0001)     ;
(PID.TID 0000.0001) interViscAr_pCell = /* account for partial-cell in interior vert. viscosity */
(PID.TID 0000.0001)                   F
(PID.TID 0000.0001)     ;
(PID.TID 0000.0001) interDiffKr_pCell = /* account for partial-cell in interior vert. diffusion */
(PID.TID 0000.0001)                   F
(PID.TID 0000.0001)     ;
(PID.TID 0000.0001) pCellMix_select = /* option to enhance mixing near surface & bottom */
(PID.TID 0000.0001)                       0
(PID.TID 0000.0001)     ;
(PID.TID 0000.0001) selectSigmaCoord = /* Hybrid-Sigma Vert. Coordinate option */
(PID.TID 0000.0001)                       0
(PID.TID 0000.0001)     ;
(PID.TID 0000.0001) rSigmaBnd = /* r/sigma transition ( units of r ==  m ) */
(PID.TID 0000.0001)                 1.234567000000000E+05
(PID.TID 0000.0001)     ;
(PID.TID 0000.0001) rkSign =   /* index orientation relative to vertical coordinate */
(PID.TID 0000.0001)                -1.000000000000000E+00
(PID.TID 0000.0001)     ;
(PID.TID 0000.0001) gravitySign = /* gravity orientation relative to vertical coordinate */
(PID.TID 0000.0001)                -1.000000000000000E+00
(PID.TID 0000.0001)     ;
(PID.TID 0000.0001) seaLev_Z =  /* reference height of sea-level [m] */
(PID.TID 0000.0001)                 0.000000000000000E+00
(PID.TID 0000.0001)     ;
(PID.TID 0000.0001) top_Pres =  /* reference pressure at the top [Pa] */
(PID.TID 0000.0001)                 0.000000000000000E+00
(PID.TID 0000.0001)     ;
(PID.TID 0000.0001) mass2rUnit = /* convert mass per unit area [kg/m2] to r-units [m] */
(PID.TID 0000.0001)                 9.661835748792270E-04
(PID.TID 0000.0001)     ;
(PID.TID 0000.0001) rUnit2mass = /* convert r-units [m] to mass per unit area [kg/m2] */
(PID.TID 0000.0001)                 1.035000000000000E+03
(PID.TID 0000.0001)     ;
(PID.TID 0000.0001) drC =   /* C spacing ( units of r ) */
(PID.TID 0000.0001)                 2.743582745000000E+00,      /* K =  1 */
(PID.TID 0000.0001)                 5.840893234999999E+00,      /* K =  2 */
(PID.TID 0000.0001)                 6.593766495000001E+00,      /* K =  3 */
(PID.TID 0000.0001)                 7.443224450000001E+00,      /* K =  4 */
(PID.TID 0000.0001)                 8.401457060000000E+00,      /* K =  5 */
(PID.TID 0000.0001)                 9.482104950000000E+00,      /* K =  6 */
(PID.TID 0000.0001)                 1.070039340500000E+01,      /* K =  7 */
(PID.TID 0000.0001)                 1.207326096000000E+01,      /* K =  8 */
(PID.TID 0000.0001)                 1.361947270500000E+01,      /* K =  9 */
(PID.TID 0000.0001)                 1.535970340000000E+01,      /* K = 10 */
(PID.TID 0000.0001)                 1.731656897000000E+01,      /* K = 11 */
(PID.TID 0000.0001)                 1.951457619500000E+01,      /* K = 12 */
(PID.TID 0000.0001)                 2.197994904000000E+01,      /* K = 13 */
(PID.TID 0000.0001)                 2.474027628000000E+01,      /* K = 14 */
(PID.TID 0000.0001)                 2.782390928000000E+01,      /* K = 15 */
(PID.TID 0000.0001)                 3.125902317000000E+01,      /* K = 16 */
(PID.TID 0000.0001)                 3.507224295000000E+01,      /* K = 17 */
(PID.TID 0000.0001)                 3.928673601000000E+01,      /* K = 18 */
(PID.TID 0000.0001)                 4.391969532000000E+01,      /* K = 19 */
(PID.TID 0000.0001)                 4.897919958000000E+01,      /* K = 20 */
(PID.TID 0000.0001)                 5.446055368000000E+01,      /* K = 21 */
(PID.TID 0000.0001)                 6.034239765500000E+01,      /* K = 22 */
(PID.TID 0000.0001)                 6.658311068000000E+01,      /* K = 23 */
(PID.TID 0000.0001)                 7.311828697999999E+01,      /* K = 24 */
(PID.TID 0000.0001)                 7.986021837500000E+01,      /* K = 25 */
(PID.TID 0000.0001)                 8.670025340000001E+01,      /* K = 26 */
(PID.TID 0000.0001)                 9.351450569500000E+01,      /* K = 27 */
(PID.TID 0000.0001)                 1.001726493950000E+02,      /* K = 28 */
(PID.TID 0000.0001)                 1.065486553450000E+02,      /* K = 29 */
(PID.TID 0000.0001)                 1.125316098350000E+02,      /* K = 30 */
(PID.TID 0000.0001)                 1.180345783650000E+02,      /* K = 31 */
(PID.TID 0000.0001)                 1.229999444550000E+02,      /* K = 32 */
(PID.TID 0000.0001)                 1.274005897250000E+02,      /* K = 33 */
(PID.TID 0000.0001)                 1.312373159800000E+02,      /* K = 34 */
(PID.TID 0000.0001)                 1.345336466200000E+02,      /* K = 35 */
(PID.TID 0000.0001)                 1.373294092850000E+02,      /* K = 36 */
(PID.TID 0000.0001)                 1.396743401400000E+02,      /* K = 37 */
(PID.TID 0000.0001)                 1.416225541600000E+02,      /* K = 38 */
(PID.TID 0000.0001)                 1.432282873400000E+02,      /* K = 39 */
(PID.TID 0000.0001)                 1.445429665600000E+02,      /* K = 40 */
(PID.TID 0000.0001)                 1.456134484350000E+02,      /* K = 41 */
(PID.TID 0000.0001)                 1.464811724650000E+02,      /* K = 42 */
(PID.TID 0000.0001)                 1.471819633000000E+02,      /* K = 43 */
(PID.TID 0000.0001)                 1.477462511850000E+02,      /* K = 44 */
(PID.TID 0000.0001)                 1.481995314950000E+02,      /* K = 45 */
(PID.TID 0000.0001)                 1.485629358450000E+02,      /* K = 46 */
(PID.TID 0000.0001)                 1.488538307100000E+02,      /* K = 47 */
(PID.TID 0000.0001)                 1.490863927200000E+02,      /* K = 48 */
(PID.TID 0000.0001)                 1.492721331850000E+02,      /* K = 49 */
(PID.TID 0000.0001)                 7.467729291000001E+01       /* K = 50 */
(PID.TID 0000.0001)     ;
(PID.TID 0000.0001) drF =   /* W spacing ( units of r ) */
(PID.TID 0000.0001)                 5.487165490000000E+00,      /* K =  1 */
(PID.TID 0000.0001)                 6.194620980000000E+00,      /* K =  2 */
(PID.TID 0000.0001)                 6.992912010000000E+00,      /* K =  3 */
(PID.TID 0000.0001)                 7.893536890000000E+00,      /* K =  4 */
(PID.TID 0000.0001)                 8.909377230000000E+00,      /* K =  5 */
(PID.TID 0000.0001)                 1.005483267000000E+01,      /* K =  6 */
(PID.TID 0000.0001)                 1.134595414000000E+01,      /* K =  7 */
(PID.TID 0000.0001)                 1.280056778000000E+01,      /* K =  8 */
(PID.TID 0000.0001)                 1.443837763000000E+01,      /* K =  9 */
(PID.TID 0000.0001)                 1.628102917000000E+01,      /* K = 10 */
(PID.TID 0000.0001)                 1.835210877000000E+01,      /* K = 11 */
(PID.TID 0000.0001)                 2.067704362000000E+01,      /* K = 12 */
(PID.TID 0000.0001)                 2.328285446000000E+01,      /* K = 13 */
(PID.TID 0000.0001)                 2.619769810000000E+01,      /* K = 14 */
(PID.TID 0000.0001)                 2.945012046000000E+01,      /* K = 15 */
(PID.TID 0000.0001)                 3.306792588000000E+01,      /* K = 16 */
(PID.TID 0000.0001)                 3.707656002000000E+01,      /* K = 17 */
(PID.TID 0000.0001)                 4.149691200000000E+01,      /* K = 18 */
(PID.TID 0000.0001)                 4.634247864000000E+01,      /* K = 19 */
(PID.TID 0000.0001)                 5.161592052000000E+01,      /* K = 20 */
(PID.TID 0000.0001)                 5.730518684000000E+01,      /* K = 21 */
(PID.TID 0000.0001)                 6.337960847000000E+01,      /* K = 22 */
(PID.TID 0000.0001)                 6.978661289000000E+01,      /* K = 23 */
(PID.TID 0000.0001)                 7.644996107000000E+01,      /* K = 24 */
(PID.TID 0000.0001)                 8.327047568000000E+01,      /* K = 25 */
(PID.TID 0000.0001)                 9.013003112000000E+01,      /* K = 26 */
(PID.TID 0000.0001)                 9.689898027000000E+01,      /* K = 27 */
(PID.TID 0000.0001)                 1.034463185200000E+02,      /* K = 28 */
(PID.TID 0000.0001)                 1.096509921700000E+02,      /* K = 29 */
(PID.TID 0000.0001)                 1.154122275000000E+02,      /* K = 30 */
(PID.TID 0000.0001)                 1.206569292300000E+02,      /* K = 31 */
(PID.TID 0000.0001)                 1.253429596800000E+02,      /* K = 32 */
(PID.TID 0000.0001)                 1.294582197700000E+02,      /* K = 33 */
(PID.TID 0000.0001)                 1.330164121900000E+02,      /* K = 34 */
(PID.TID 0000.0001)                 1.360508810500000E+02,      /* K = 35 */
(PID.TID 0000.0001)                 1.386079375200000E+02,      /* K = 36 */
(PID.TID 0000.0001)                 1.407407427600000E+02,      /* K = 37 */
(PID.TID 0000.0001)                 1.425043655600000E+02,      /* K = 38 */
(PID.TID 0000.0001)                 1.439522091200000E+02,      /* K = 39 */
(PID.TID 0000.0001)                 1.451337240000000E+02,      /* K = 40 */
(PID.TID 0000.0001)                 1.460931728700000E+02,      /* K = 41 */
(PID.TID 0000.0001)                 1.468691720600000E+02,      /* K = 42 */
(PID.TID 0000.0001)                 1.474947545400000E+02,      /* K = 43 */
(PID.TID 0000.0001)                 1.479977478300000E+02,      /* K = 44 */
(PID.TID 0000.0001)                 1.484013151600000E+02,      /* K = 45 */
(PID.TID 0000.0001)                 1.487245565300000E+02,      /* K = 46 */
(PID.TID 0000.0001)                 1.489831048900000E+02,      /* K = 47 */
(PID.TID 0000.0001)                 1.491896805500000E+02,      /* K = 48 */
(PID.TID 0000.0001)                 1.493545858200000E+02       /* K = 49 */
(PID.TID 0000.0001)     ;
(PID.TID 0000.0001) delX = /* U spacing ( m - cartesian, degrees - spherical ) */
(PID.TID 0000.0001)    20 @  5.000000000000000E+04              /* I =  1: 20 */
(PID.TID 0000.0001)     ;
(PID.TID 0000.0001) delY = /* V spacing ( m - cartesian, degrees - spherical ) */
(PID.TID 0000.0001)    40 @  5.000000000000000E+04              /* J =  1: 40 */
(PID.TID 0000.0001)     ;
(PID.TID 0000.0001) xgOrigin = /* X-axis origin of West  edge (cartesian: m, lat-lon: deg) */
(PID.TID 0000.0001)                 0.000000000000000E+00
(PID.TID 0000.0001)     ;
(PID.TID 0000.0001) ygOrigin = /* Y-axis origin of South edge (cartesian: m, lat-lon: deg) */
(PID.TID 0000.0001)                 0.000000000000000E+00
(PID.TID 0000.0001)     ;
(PID.TID 0000.0001) rSphere =  /* Radius ( ignored - cartesian, m - spherical ) */
(PID.TID 0000.0001)                 6.370000000000000E+06
(PID.TID 0000.0001)     ;
(PID.TID 0000.0001) deepAtmosphere = /* Deep/Shallow Atmosphere flag (True/False) */
(PID.TID 0000.0001)                   F
(PID.TID 0000.0001)     ;
(PID.TID 0000.0001) xC =  /* xC(:,1,:,1) : P-point X coord ( deg. or m if cartesian) */
(PID.TID 0000.0001)                 2.500000000000000E+04,      /* I =  1 */
(PID.TID 0000.0001)                 7.500000000000000E+04,      /* I =  2 */
(PID.TID 0000.0001)                 1.250000000000000E+05,      /* I =  3 */
(PID.TID 0000.0001)                 1.750000000000000E+05,      /* I =  4 */
(PID.TID 0000.0001)                 2.250000000000000E+05,      /* I =  5 */
(PID.TID 0000.0001)                 2.750000000000000E+05,      /* I =  6 */
(PID.TID 0000.0001)                 3.250000000000000E+05,      /* I =  7 */
(PID.TID 0000.0001)                 3.750000000000000E+05,      /* I =  8 */
(PID.TID 0000.0001)                 4.250000000000000E+05,      /* I =  9 */
(PID.TID 0000.0001)                 4.750000000000000E+05,      /* I = 10 */
(PID.TID 0000.0001)                 5.250000000000000E+05,      /* I = 11 */
(PID.TID 0000.0001)                 5.750000000000000E+05,      /* I = 12 */
(PID.TID 0000.0001)                 6.250000000000000E+05,      /* I = 13 */
(PID.TID 0000.0001)                 6.750000000000000E+05,      /* I = 14 */
(PID.TID 0000.0001)                 7.250000000000000E+05,      /* I = 15 */
(PID.TID 0000.0001)                 7.750000000000000E+05,      /* I = 16 */
(PID.TID 0000.0001)                 8.250000000000000E+05,      /* I = 17 */
(PID.TID 0000.0001)                 8.750000000000000E+05,      /* I = 18 */
(PID.TID 0000.0001)                 9.250000000000000E+05,      /* I = 19 */
(PID.TID 0000.0001)                 9.750000000000000E+05       /* I = 20 */
(PID.TID 0000.0001)     ;
(PID.TID 0000.0001) yC =  /* yC(1,:,1,:) : P-point Y coord ( deg. or m if cartesian) */
(PID.TID 0000.0001)                 2.500000000000000E+04,      /* J =  1 */
(PID.TID 0000.0001)                 7.500000000000000E+04,      /* J =  2 */
(PID.TID 0000.0001)                 1.250000000000000E+05,      /* J =  3 */
(PID.TID 0000.0001)                 1.750000000000000E+05,      /* J =  4 */
(PID.TID 0000.0001)                 2.250000000000000E+05,      /* J =  5 */
(PID.TID 0000.0001)                 2.750000000000000E+05,      /* J =  6 */
(PID.TID 0000.0001)                 3.250000000000000E+05,      /* J =  7 */
(PID.TID 0000.0001)                 3.750000000000000E+05,      /* J =  8 */
(PID.TID 0000.0001)                 4.250000000000000E+05,      /* J =  9 */
(PID.TID 0000.0001)                 4.750000000000000E+05,      /* J = 10 */
(PID.TID 0000.0001)                 5.250000000000000E+05,      /* J = 11 */
(PID.TID 0000.0001)                 5.750000000000000E+05,      /* J = 12 */
(PID.TID 0000.0001)                 6.250000000000000E+05,      /* J = 13 */
(PID.TID 0000.0001)                 6.750000000000000E+05,      /* J = 14 */
(PID.TID 0000.0001)                 7.250000000000000E+05,      /* J = 15 */
(PID.TID 0000.0001)                 7.750000000000000E+05,      /* J = 16 */
(PID.TID 0000.0001)                 8.250000000000000E+05,      /* J = 17 */
(PID.TID 0000.0001)                 8.750000000000000E+05,      /* J = 18 */
(PID.TID 0000.0001)                 9.250000000000000E+05,      /* J = 19 */
(PID.TID 0000.0001)                 9.750000000000000E+05,      /* J = 20 */
(PID.TID 0000.0001)                 1.025000000000000E+06,      /* J = 21 */
(PID.TID 0000.0001)                 1.075000000000000E+06,      /* J = 22 */
(PID.TID 0000.0001)                 1.125000000000000E+06,      /* J = 23 */
(PID.TID 0000.0001)                 1.175000000000000E+06,      /* J = 24 */
(PID.TID 0000.0001)                 1.225000000000000E+06,      /* J = 25 */
(PID.TID 0000.0001)                 1.275000000000000E+06,      /* J = 26 */
(PID.TID 0000.0001)                 1.325000000000000E+06,      /* J = 27 */
(PID.TID 0000.0001)                 1.375000000000000E+06,      /* J = 28 */
(PID.TID 0000.0001)                 1.425000000000000E+06,      /* J = 29 */
(PID.TID 0000.0001)                 1.475000000000000E+06,      /* J = 30 */
(PID.TID 0000.0001)                 1.525000000000000E+06,      /* J = 31 */
(PID.TID 0000.0001)                 1.575000000000000E+06,      /* J = 32 */
(PID.TID 0000.0001)                 1.625000000000000E+06,      /* J = 33 */
(PID.TID 0000.0001)                 1.675000000000000E+06,      /* J = 34 */
(PID.TID 0000.0001)                 1.725000000000000E+06,      /* J = 35 */
(PID.TID 0000.0001)                 1.775000000000000E+06,      /* J = 36 */
(PID.TID 0000.0001)                 1.825000000000000E+06,      /* J = 37 */
(PID.TID 0000.0001)                 1.875000000000000E+06,      /* J = 38 */
(PID.TID 0000.0001)                 1.925000000000000E+06,      /* J = 39 */
(PID.TID 0000.0001)                 1.975000000000000E+06       /* J = 40 */
(PID.TID 0000.0001)     ;
(PID.TID 0000.0001) rcoord = /* P-point R coordinate (  units of r ) */
(PID.TID 0000.0001)                -2.743582745000000E+00,      /* K =  1 */
(PID.TID 0000.0001)                -8.584475979999999E+00,      /* K =  2 */
(PID.TID 0000.0001)                -1.517824247500000E+01,      /* K =  3 */
(PID.TID 0000.0001)                -2.262146692500000E+01,      /* K =  4 */
(PID.TID 0000.0001)                -3.102292398500000E+01,      /* K =  5 */
(PID.TID 0000.0001)                -4.050502893500000E+01,      /* K =  6 */
(PID.TID 0000.0001)                -5.120542234000000E+01,      /* K =  7 */
(PID.TID 0000.0001)                -6.327868330000000E+01,      /* K =  8 */
(PID.TID 0000.0001)                -7.689815600500000E+01,      /* K =  9 */
(PID.TID 0000.0001)                -9.225785940500000E+01,      /* K = 10 */
(PID.TID 0000.0001)                -1.095744283750000E+02,      /* K = 11 */
(PID.TID 0000.0001)                -1.290890045700000E+02,      /* K = 12 */
(PID.TID 0000.0001)                -1.510689536100000E+02,      /* K = 13 */
(PID.TID 0000.0001)                -1.758092298900000E+02,      /* K = 14 */
(PID.TID 0000.0001)                -2.036331391700000E+02,      /* K = 15 */
(PID.TID 0000.0001)                -2.348921623400000E+02,      /* K = 16 */
(PID.TID 0000.0001)                -2.699644052900000E+02,      /* K = 17 */
(PID.TID 0000.0001)                -3.092511413000000E+02,      /* K = 18 */
(PID.TID 0000.0001)                -3.531708366200000E+02,      /* K = 19 */
(PID.TID 0000.0001)                -4.021500362000000E+02,      /* K = 20 */
(PID.TID 0000.0001)                -4.566105898800000E+02,      /* K = 21 */
(PID.TID 0000.0001)                -5.169529875350000E+02,      /* K = 22 */
(PID.TID 0000.0001)                -5.835360982150000E+02,      /* K = 23 */
(PID.TID 0000.0001)                -6.566543851950000E+02,      /* K = 24 */
(PID.TID 0000.0001)                -7.365146035700001E+02,      /* K = 25 */
(PID.TID 0000.0001)                -8.232148569700000E+02,      /* K = 26 */
(PID.TID 0000.0001)                -9.167293626650001E+02,      /* K = 27 */
(PID.TID 0000.0001)                -1.016902012060000E+03,      /* K = 28 */
(PID.TID 0000.0001)                -1.123450667405000E+03,      /* K = 29 */
(PID.TID 0000.0001)                -1.235982277240000E+03,      /* K = 30 */
(PID.TID 0000.0001)                -1.354016855605000E+03,      /* K = 31 */
(PID.TID 0000.0001)                -1.477016800060000E+03,      /* K = 32 */
(PID.TID 0000.0001)                -1.604417389785000E+03,      /* K = 33 */
(PID.TID 0000.0001)                -1.735654705765000E+03,      /* K = 34 */
(PID.TID 0000.0001)                -1.870188352385000E+03,      /* K = 35 */
(PID.TID 0000.0001)                -2.007517761670000E+03,      /* K = 36 */
(PID.TID 0000.0001)                -2.147192101810000E+03,      /* K = 37 */
(PID.TID 0000.0001)                -2.288814655970000E+03,      /* K = 38 */
(PID.TID 0000.0001)                -2.432042943310000E+03,      /* K = 39 */
(PID.TID 0000.0001)                -2.576585909870000E+03,      /* K = 40 */
(PID.TID 0000.0001)                -2.722199358305000E+03,      /* K = 41 */
(PID.TID 0000.0001)                -2.868680530770000E+03,      /* K = 42 */
(PID.TID 0000.0001)                -3.015862494070000E+03,      /* K = 43 */
(PID.TID 0000.0001)                -3.163608745255000E+03,      /* K = 44 */
(PID.TID 0000.0001)                -3.311808276750000E+03,      /* K = 45 */
(PID.TID 0000.0001)                -3.460371212595000E+03,      /* K = 46 */
(PID.TID 0000.0001)                -3.609225043305000E+03,      /* K = 47 */
(PID.TID 0000.0001)                -3.758311436025000E+03,      /* K = 48 */
(PID.TID 0000.0001)                -3.907583569210000E+03       /* K = 49 */
(PID.TID 0000.0001)     ;
(PID.TID 0000.0001) rF =   /* W-Interf. R coordinate (  units of r ) */
(PID.TID 0000.0001)                 0.000000000000000E+00,      /* K =  1 */
(PID.TID 0000.0001)                -5.487165490000000E+00,      /* K =  2 */
(PID.TID 0000.0001)                -1.168178647000000E+01,      /* K =  3 */
(PID.TID 0000.0001)                -1.867469848000000E+01,      /* K =  4 */
(PID.TID 0000.0001)                -2.656823537000000E+01,      /* K =  5 */
(PID.TID 0000.0001)                -3.547761260000000E+01,      /* K =  6 */
(PID.TID 0000.0001)                -4.553244527000000E+01,      /* K =  7 */
(PID.TID 0000.0001)                -5.687839941000000E+01,      /* K =  8 */
(PID.TID 0000.0001)                -6.967896718999999E+01,      /* K =  9 */
(PID.TID 0000.0001)                -8.411734482000000E+01,      /* K = 10 */
(PID.TID 0000.0001)                -1.003983739900000E+02,      /* K = 11 */
(PID.TID 0000.0001)                -1.187504827600000E+02,      /* K = 12 */
(PID.TID 0000.0001)                -1.394275263800000E+02,      /* K = 13 */
(PID.TID 0000.0001)                -1.627103808400000E+02,      /* K = 14 */
(PID.TID 0000.0001)                -1.889080789400000E+02,      /* K = 15 */
(PID.TID 0000.0001)                -2.183581994000000E+02,      /* K = 16 */
(PID.TID 0000.0001)                -2.514261252800000E+02,      /* K = 17 */
(PID.TID 0000.0001)                -2.885026853000000E+02,      /* K = 18 */
(PID.TID 0000.0001)                -3.299995973000000E+02,      /* K = 19 */
(PID.TID 0000.0001)                -3.763420759400000E+02,      /* K = 20 */
(PID.TID 0000.0001)                -4.279579964600000E+02,      /* K = 21 */
(PID.TID 0000.0001)                -4.852631833000000E+02,      /* K = 22 */
(PID.TID 0000.0001)                -5.486427917700000E+02,      /* K = 23 */
(PID.TID 0000.0001)                -6.184294046600000E+02,      /* K = 24 */
(PID.TID 0000.0001)                -6.948793657300000E+02,      /* K = 25 */
(PID.TID 0000.0001)                -7.781498414100000E+02,      /* K = 26 */
(PID.TID 0000.0001)                -8.682798725300000E+02,      /* K = 27 */
(PID.TID 0000.0001)                -9.651788528000001E+02,      /* K = 28 */
(PID.TID 0000.0001)                -1.068625171320000E+03,      /* K = 29 */
(PID.TID 0000.0001)                -1.178276163490000E+03,      /* K = 30 */
(PID.TID 0000.0001)                -1.293688390990000E+03,      /* K = 31 */
(PID.TID 0000.0001)                -1.414345320220000E+03,      /* K = 32 */
(PID.TID 0000.0001)                -1.539688279900000E+03,      /* K = 33 */
(PID.TID 0000.0001)                -1.669146499670000E+03,      /* K = 34 */
(PID.TID 0000.0001)                -1.802162911860000E+03,      /* K = 35 */
(PID.TID 0000.0001)                -1.938213792910000E+03,      /* K = 36 */
(PID.TID 0000.0001)                -2.076821730430000E+03,      /* K = 37 */
(PID.TID 0000.0001)                -2.217562473190000E+03,      /* K = 38 */
(PID.TID 0000.0001)                -2.360066838750000E+03,      /* K = 39 */
(PID.TID 0000.0001)                -2.504019047870000E+03,      /* K = 40 */
(PID.TID 0000.0001)                -2.649152771870000E+03,      /* K = 41 */
(PID.TID 0000.0001)                -2.795245944740000E+03,      /* K = 42 */
(PID.TID 0000.0001)                -2.942115116800000E+03,      /* K = 43 */
(PID.TID 0000.0001)                -3.089609871340000E+03,      /* K = 44 */
(PID.TID 0000.0001)                -3.237607619170000E+03,      /* K = 45 */
(PID.TID 0000.0001)                -3.386008934330000E+03,      /* K = 46 */
(PID.TID 0000.0001)                -3.534733490860000E+03,      /* K = 47 */
(PID.TID 0000.0001)                -3.683716595750000E+03,      /* K = 48 */
(PID.TID 0000.0001)                -3.832906276300000E+03,      /* K = 49 */
(PID.TID 0000.0001)                -3.982260862120000E+03       /* K = 50 */
(PID.TID 0000.0001)     ;
(PID.TID 0000.0001) deepFacC = /* deep-model grid factor @ cell-Center (-) */
(PID.TID 0000.0001)    49 @  1.000000000000000E+00              /* K =  1: 49 */
(PID.TID 0000.0001)     ;
(PID.TID 0000.0001) deepFacF = /* deep-model grid factor @ W-Interface (-) */
(PID.TID 0000.0001)    50 @  1.000000000000000E+00              /* K =  1: 50 */
(PID.TID 0000.0001)     ;
(PID.TID 0000.0001) rVel2wUnit = /* convert units: rVel -> wSpeed (=1 if z-coord)*/
(PID.TID 0000.0001)    50 @  1.000000000000000E+00              /* K =  1: 50 */
(PID.TID 0000.0001)     ;
(PID.TID 0000.0001) wUnit2rVel = /* convert units: wSpeed -> rVel (=1 if z-coord)*/
(PID.TID 0000.0001)    50 @  1.000000000000000E+00              /* K =  1: 50 */
(PID.TID 0000.0001)     ;
(PID.TID 0000.0001) dBdrRef = /* Vertical grad. of reference buoyancy [(m/s/r)^2] */
(PID.TID 0000.0001)    49 @  0.000000000000000E+00              /* K =  1: 49 */
(PID.TID 0000.0001)     ;
(PID.TID 0000.0001) rotateGrid = /* use rotated grid ( True/False ) */
(PID.TID 0000.0001)                   F
(PID.TID 0000.0001)     ;
(PID.TID 0000.0001) phiEuler = /* Euler angle, rotation about original z-coordinate [rad] */
(PID.TID 0000.0001)                 0.000000000000000E+00
(PID.TID 0000.0001)     ;
(PID.TID 0000.0001) thetaEuler = /* Euler angle, rotation about new x-coordinate [rad] */
(PID.TID 0000.0001)                 0.000000000000000E+00
(PID.TID 0000.0001)     ;
(PID.TID 0000.0001) psiEuler = /* Euler angle, rotation about new z-coordinate [rad] */
(PID.TID 0000.0001)                 0.000000000000000E+00
(PID.TID 0000.0001)     ;
(PID.TID 0000.0001) dxF =  /* dxF(:,1,:,1) ( units: m ) */
(PID.TID 0000.0001)    20 @  5.000000000000000E+04              /* I =  1: 20 */
(PID.TID 0000.0001)     ;
(PID.TID 0000.0001) dxF =  /* dxF(1,:,1,:) ( units: m ) */
(PID.TID 0000.0001)    40 @  5.000000000000000E+04              /* J =  1: 40 */
(PID.TID 0000.0001)     ;
(PID.TID 0000.0001) dyF =  /* dyF(:,1,:,1) ( units: m ) */
(PID.TID 0000.0001)    20 @  5.000000000000000E+04              /* I =  1: 20 */
(PID.TID 0000.0001)     ;
(PID.TID 0000.0001) dyF =  /* dyF(1,:,1,:) ( units: m ) */
(PID.TID 0000.0001)    40 @  5.000000000000000E+04              /* J =  1: 40 */
(PID.TID 0000.0001)     ;
(PID.TID 0000.0001) dxG =  /* dxG(:,1,:,1) ( units: m ) */
(PID.TID 0000.0001)    20 @  5.000000000000000E+04              /* I =  1: 20 */
(PID.TID 0000.0001)     ;
(PID.TID 0000.0001) dxG =  /* dxG(1,:,1,:) ( units: m ) */
(PID.TID 0000.0001)    40 @  5.000000000000000E+04              /* J =  1: 40 */
(PID.TID 0000.0001)     ;
(PID.TID 0000.0001) dyG =  /* dyG(:,1,:,1) ( units: m ) */
(PID.TID 0000.0001)    20 @  5.000000000000000E+04              /* I =  1: 20 */
(PID.TID 0000.0001)     ;
(PID.TID 0000.0001) dyG =  /* dyG(1,:,1,:) ( units: m ) */
(PID.TID 0000.0001)    40 @  5.000000000000000E+04              /* J =  1: 40 */
(PID.TID 0000.0001)     ;
(PID.TID 0000.0001) dxC =  /* dxC(:,1,:,1) ( units: m ) */
(PID.TID 0000.0001)    20 @  5.000000000000000E+04              /* I =  1: 20 */
(PID.TID 0000.0001)     ;
(PID.TID 0000.0001) dxC =  /* dxC(1,:,1,:) ( units: m ) */
(PID.TID 0000.0001)    40 @  5.000000000000000E+04              /* J =  1: 40 */
(PID.TID 0000.0001)     ;
(PID.TID 0000.0001) dyC =  /* dyC(:,1,:,1) ( units: m ) */
(PID.TID 0000.0001)    20 @  5.000000000000000E+04              /* I =  1: 20 */
(PID.TID 0000.0001)     ;
(PID.TID 0000.0001) dyC =  /* dyC(1,:,1,:) ( units: m ) */
(PID.TID 0000.0001)    40 @  5.000000000000000E+04              /* J =  1: 40 */
(PID.TID 0000.0001)     ;
(PID.TID 0000.0001) dxV =  /* dxV(:,1,:,1) ( units: m ) */
(PID.TID 0000.0001)    20 @  5.000000000000000E+04              /* I =  1: 20 */
(PID.TID 0000.0001)     ;
(PID.TID 0000.0001) dxV =  /* dxV(1,:,1,:) ( units: m ) */
(PID.TID 0000.0001)    40 @  5.000000000000000E+04              /* J =  1: 40 */
(PID.TID 0000.0001)     ;
(PID.TID 0000.0001) dyU =  /* dyU(:,1,:,1) ( units: m ) */
(PID.TID 0000.0001)    20 @  5.000000000000000E+04              /* I =  1: 20 */
(PID.TID 0000.0001)     ;
(PID.TID 0000.0001) dyU =  /* dyU(1,:,1,:) ( units: m ) */
(PID.TID 0000.0001)    40 @  5.000000000000000E+04              /* J =  1: 40 */
(PID.TID 0000.0001)     ;
(PID.TID 0000.0001) rA  =  /* rA (:,1,:,1) ( units: m^2 ) */
(PID.TID 0000.0001)    20 @  2.500000000000000E+09              /* I =  1: 20 */
(PID.TID 0000.0001)     ;
(PID.TID 0000.0001) rA  =  /* rA (1,:,1,:) ( units: m^2 ) */
(PID.TID 0000.0001)    40 @  2.500000000000000E+09              /* J =  1: 40 */
(PID.TID 0000.0001)     ;
(PID.TID 0000.0001) rAw =  /* rAw(:,1,:,1) ( units: m^2 ) */
(PID.TID 0000.0001)    20 @  2.500000000000000E+09              /* I =  1: 20 */
(PID.TID 0000.0001)     ;
(PID.TID 0000.0001) rAw =  /* rAw(1,:,1,:) ( units: m^2 ) */
(PID.TID 0000.0001)    40 @  2.500000000000000E+09              /* J =  1: 40 */
(PID.TID 0000.0001)     ;
(PID.TID 0000.0001) rAs =  /* rAs(:,1,:,1) ( units: m^2 ) */
(PID.TID 0000.0001)    20 @  2.500000000000000E+09              /* I =  1: 20 */
(PID.TID 0000.0001)     ;
(PID.TID 0000.0001) rAs =  /* rAs(1,:,1,:) ( units: m^2 ) */
(PID.TID 0000.0001)    40 @  2.500000000000000E+09              /* J =  1: 40 */
(PID.TID 0000.0001)     ;
(PID.TID 0000.0001) globalArea = /* Integrated horizontal Area (m^2) */
(PID.TID 0000.0001)                 1.950000000000000E+12
(PID.TID 0000.0001)     ;
(PID.TID 0000.0001) // =======================================================
(PID.TID 0000.0001) // End of Model config. summary
(PID.TID 0000.0001) // =======================================================
(PID.TID 0000.0001) 
(PID.TID 0000.0001) == Packages configuration : Check & print summary ==
(PID.TID 0000.0001) 
(PID.TID 0000.0001) GMREDI_CHECK: #define GMREDI
(PID.TID 0000.0001) GM_AdvForm =     /* if FALSE => use SkewFlux Form */
(PID.TID 0000.0001)                   T
(PID.TID 0000.0001)     ;
(PID.TID 0000.0001) GM_InMomAsStress = /* if TRUE => apply as Eddy Stress */
(PID.TID 0000.0001)                   F
(PID.TID 0000.0001)     ;
(PID.TID 0000.0001) GM_AdvSeparate = /* Calc Bolus & Euler Adv. separately */
(PID.TID 0000.0001)                   F
(PID.TID 0000.0001)     ;
(PID.TID 0000.0001) GM_ExtraDiag =   /* Tensor Extra Diag (line 1&2) non 0 */
(PID.TID 0000.0001)                   T
(PID.TID 0000.0001)     ;
(PID.TID 0000.0001) GM_isopycK =    /* Background Isopyc. Diffusivity [m^2/s] */
(PID.TID 0000.0001)                 1.000000000000000E+03
(PID.TID 0000.0001)     ;
(PID.TID 0000.0001) GM_skewflx*K =  /* Background GM_SkewFlx Diffusivity [m^2/s] */
(PID.TID 0000.0001)                 0.000000000000000E+00
(PID.TID 0000.0001)     ;
(PID.TID 0000.0001) GM_advec*K =    /* Backg. GM-Advec(=Bolus) Diffusivity [m^2/s]*/
(PID.TID 0000.0001)                 1.000000000000000E+03
(PID.TID 0000.0001)     ;
(PID.TID 0000.0001) GM_Kmin_horiz = /* Minimum Horizontal Diffusivity [m^2/s] */
(PID.TID 0000.0001)                 0.000000000000000E+00
(PID.TID 0000.0001)     ;
(PID.TID 0000.0001) GM_Visbeck_alpha = /* Visbeck alpha coeff. [-] */
(PID.TID 0000.0001)                 0.000000000000000E+00
(PID.TID 0000.0001)     ;
(PID.TID 0000.0001) GM_Small_Number =  /* epsilon used in slope calc */
(PID.TID 0000.0001)                 9.999999999999999E-21
(PID.TID 0000.0001)     ;
(PID.TID 0000.0001) GM_slopeSqCutoff = /* Slope^2 cut-off value */
(PID.TID 0000.0001)                 1.000000000000000E+48
(PID.TID 0000.0001)     ;
(PID.TID 0000.0001) GM_taper_scheme =  /* Type of Tapering/Clipping scheme */
(PID.TID 0000.0001)               'dm95                                    '
(PID.TID 0000.0001)     ;
(PID.TID 0000.0001) GM_maxSlope =  /* Maximum Slope (Tapering/Clipping) */
(PID.TID 0000.0001)                 1.000000000000000E-02
(PID.TID 0000.0001)     ;
(PID.TID 0000.0001) GM_facTrL2dz = /* Minimum Trans.Layer Thick. (factor of dz) */
(PID.TID 0000.0001)                 1.000000000000000E+00
(PID.TID 0000.0001)     ;
(PID.TID 0000.0001) GM_facTrL2ML = /* Max.Trans.Layer Thick. (factor of MxL Depth)*/
(PID.TID 0000.0001)                 5.000000000000000E+00
(PID.TID 0000.0001)     ;
(PID.TID 0000.0001) GM_maxTransLay = /* Maximum Transition Layer Thickness [m] */
(PID.TID 0000.0001)                 5.000000000000000E+02
(PID.TID 0000.0001)     ;
(PID.TID 0000.0001) GM_UseBVP = /* if TRUE => use bvp a la Ferrari et al. (2010) */
(PID.TID 0000.0001)                   F
(PID.TID 0000.0001)     ;
(PID.TID 0000.0001) GM_BVP_ModeNumber = /* Vertical mode number for BVP wave speed */
(PID.TID 0000.0001)                       1
(PID.TID 0000.0001)     ;
(PID.TID 0000.0001) GM_BVP_cMin = /* Minimum wave speed for BVP [m/s] */
(PID.TID 0000.0001)                 1.000000000000000E-01
(PID.TID 0000.0001)     ;
(PID.TID 0000.0001) GM_useSubMeso = /* if TRUE => use Sub-Meso param. (B.Fox-Kemper) */
(PID.TID 0000.0001)                   F
(PID.TID 0000.0001)     ;
(PID.TID 0000.0001) subMeso_Ceff = /* efficiency coeff. of Mixed-Layer Eddies [-] */
(PID.TID 0000.0001)                 7.000000000000001E-02
(PID.TID 0000.0001)     ;
(PID.TID 0000.0001) subMeso_invTau = /* inverse of Sub-Meso mixing time-scale [/s] */
(PID.TID 0000.0001)                 2.000000000000000E-06
(PID.TID 0000.0001)     ;
(PID.TID 0000.0001) subMeso_LfMin = /* minimum length-scale "Lf" [m] */
(PID.TID 0000.0001)                 1.000000000000000E+03
(PID.TID 0000.0001)     ;
(PID.TID 0000.0001) subMeso_Lmax = /* maximum grid-scale length [m] */
(PID.TID 0000.0001)                 1.100000000000000E+05
(PID.TID 0000.0001)     ;
(PID.TID 0000.0001) GM_useLeithQG = /* if TRUE => add QG Leith viscosity to GMRedi tensor */
(PID.TID 0000.0001)                   F
(PID.TID 0000.0001)     ;
(PID.TID 0000.0001) LAYERS_CHECK: #define LAYERS
(PID.TID 0000.0001) NZZ = /* number of levels in the fine vertical grid */
(PID.TID 0000.0001)                     490
(PID.TID 0000.0001)     ;
(PID.TID 0000.0001) dZZf = /* fine vertical grid spacing for isopycnal interp */
(PID.TID 0000.0001)    10 @  5.487165490000000E-01,             /* K =  1: 10 */
(PID.TID 0000.0001)    10 @  6.194620980000000E-01,             /* K = 11: 20 */
(PID.TID 0000.0001)    10 @  6.992912010000001E-01,             /* K = 21: 30 */
(PID.TID 0000.0001)    10 @  7.893536890000000E-01,             /* K = 31: 40 */
(PID.TID 0000.0001)    10 @  8.909377230000001E-01,             /* K = 41: 50 */
(PID.TID 0000.0001)    10 @  1.005483267000000E+00,             /* K = 51: 60 */
(PID.TID 0000.0001)    10 @  1.134595414000000E+00,             /* K = 61: 70 */
(PID.TID 0000.0001)    10 @  1.280056778000000E+00,             /* K = 71: 80 */
(PID.TID 0000.0001)    10 @  1.443837763000000E+00,             /* K = 81: 90 */
(PID.TID 0000.0001)    10 @  1.628102917000000E+00,             /* K = 91:100 */
(PID.TID 0000.0001)    10 @  1.835210877000000E+00,             /* K =101:110 */
(PID.TID 0000.0001)    10 @  2.067704362000000E+00,             /* K =111:120 */
(PID.TID 0000.0001)    10 @  2.328285446000000E+00,             /* K =121:130 */
(PID.TID 0000.0001)    10 @  2.619769810000000E+00,             /* K =131:140 */
(PID.TID 0000.0001)    10 @  2.945012046000000E+00,             /* K =141:150 */
(PID.TID 0000.0001)    10 @  3.306792588000000E+00,             /* K =151:160 */
(PID.TID 0000.0001)    10 @  3.707656002000000E+00,             /* K =161:170 */
(PID.TID 0000.0001)    10 @  4.149691200000000E+00,             /* K =171:180 */
(PID.TID 0000.0001)    10 @  4.634247864000001E+00,             /* K =181:190 */
(PID.TID 0000.0001)    10 @  5.161592052000000E+00,             /* K =191:200 */
(PID.TID 0000.0001)    10 @  5.730518684000000E+00,             /* K =201:210 */
(PID.TID 0000.0001)    10 @  6.337960847000000E+00,             /* K =211:220 */
(PID.TID 0000.0001)    10 @  6.978661289000000E+00,             /* K =221:230 */
(PID.TID 0000.0001)    10 @  7.644996107000000E+00,             /* K =231:240 */
(PID.TID 0000.0001)    10 @  8.327047568000001E+00,             /* K =241:250 */
(PID.TID 0000.0001)    10 @  9.013003112000000E+00,             /* K =251:260 */
(PID.TID 0000.0001)    10 @  9.689898027000000E+00,             /* K =261:270 */
(PID.TID 0000.0001)    10 @  1.034463185200000E+01,             /* K =271:280 */
(PID.TID 0000.0001)    10 @  1.096509921700000E+01,             /* K =281:290 */
(PID.TID 0000.0001)    10 @  1.154122275000000E+01,             /* K =291:300 */
(PID.TID 0000.0001)    10 @  1.206569292300000E+01,             /* K =301:310 */
(PID.TID 0000.0001)    10 @  1.253429596800000E+01,             /* K =311:320 */
(PID.TID 0000.0001)    10 @  1.294582197700000E+01,             /* K =321:330 */
(PID.TID 0000.0001)    10 @  1.330164121900000E+01,             /* K =331:340 */
(PID.TID 0000.0001)    10 @  1.360508810500000E+01,             /* K =341:350 */
(PID.TID 0000.0001)    10 @  1.386079375200000E+01,             /* K =351:360 */
(PID.TID 0000.0001)    10 @  1.407407427600000E+01,             /* K =361:370 */
(PID.TID 0000.0001)    10 @  1.425043655600000E+01,             /* K =371:380 */
(PID.TID 0000.0001)    10 @  1.439522091200000E+01,             /* K =381:390 */
(PID.TID 0000.0001)    10 @  1.451337240000000E+01,             /* K =391:400 */
(PID.TID 0000.0001)    10 @  1.460931728700000E+01,             /* K =401:410 */
(PID.TID 0000.0001)    10 @  1.468691720600000E+01,             /* K =411:420 */
(PID.TID 0000.0001)    10 @  1.474947545400000E+01,             /* K =421:430 */
(PID.TID 0000.0001)    10 @  1.479977478300000E+01,             /* K =431:440 */
(PID.TID 0000.0001)    10 @  1.484013151600000E+01,             /* K =441:450 */
(PID.TID 0000.0001)    10 @  1.487245565300000E+01,             /* K =451:460 */
(PID.TID 0000.0001)    10 @  1.489831048900000E+01,             /* K =461:470 */
(PID.TID 0000.0001)    10 @  1.491896805500000E+01,             /* K =471:480 */
(PID.TID 0000.0001)    10 @  1.493545858200000E+01              /* K =481:490 */
(PID.TID 0000.0001)     ;
(PID.TID 0000.0001) layers_num(1) = /* averaging field: 1= theta, 2= salt, 3= prho */
(PID.TID 0000.0001)                       1
(PID.TID 0000.0001)     ;
(PID.TID 0000.0001) layers_name(1) = /* averaging field: TH = theta, SLT= salt, RHO= prho */
(PID.TID 0000.0001)               'TH'
(PID.TID 0000.0001)     ;
(PID.TID 0000.0001) layers_bolus(1) = /* include potential GM bolus velocity */
(PID.TID 0000.0001)                   T
(PID.TID 0000.0001)     ;
(PID.TID 0000.0001) layers_bounds(*,1) = /* boundaries of tracer-averaging bins */
(PID.TID 0000.0001)                -2.000000000000000E+00,      /* K =  1 */
(PID.TID 0000.0001)                -1.750000000000000E+00,      /* K =  2 */
(PID.TID 0000.0001)                -1.500000000000000E+00,      /* K =  3 */
(PID.TID 0000.0001)                -1.250000000000000E+00,      /* K =  4 */
(PID.TID 0000.0001)                -1.000000000000000E+00,      /* K =  5 */
(PID.TID 0000.0001)                -7.500000000000000E-01,      /* K =  6 */
(PID.TID 0000.0001)                -5.000000000000000E-01,      /* K =  7 */
(PID.TID 0000.0001)                -2.500000000000000E-01,      /* K =  8 */
(PID.TID 0000.0001)                 0.000000000000000E+00,      /* K =  9 */
(PID.TID 0000.0001)                 2.500000000000000E-01,      /* K = 10 */
(PID.TID 0000.0001)                 5.000000000000000E-01,      /* K = 11 */
(PID.TID 0000.0001)                 7.500000000000000E-01,      /* K = 12 */
(PID.TID 0000.0001)                 1.000000000000000E+00,      /* K = 13 */
(PID.TID 0000.0001)                 1.250000000000000E+00,      /* K = 14 */
(PID.TID 0000.0001)                 1.500000000000000E+00,      /* K = 15 */
(PID.TID 0000.0001)                 1.750000000000000E+00,      /* K = 16 */
(PID.TID 0000.0001)                 2.000000000000000E+00,      /* K = 17 */
(PID.TID 0000.0001)                 2.250000000000000E+00,      /* K = 18 */
(PID.TID 0000.0001)                 2.500000000000000E+00,      /* K = 19 */
(PID.TID 0000.0001)                 2.750000000000000E+00,      /* K = 20 */
(PID.TID 0000.0001)                 3.000000000000000E+00,      /* K = 21 */
(PID.TID 0000.0001)                 3.250000000000000E+00,      /* K = 22 */
(PID.TID 0000.0001)                 3.500000000000000E+00,      /* K = 23 */
(PID.TID 0000.0001)                 3.750000000000000E+00,      /* K = 24 */
(PID.TID 0000.0001)                 4.000000000000000E+00,      /* K = 25 */
(PID.TID 0000.0001)                 4.250000000000000E+00,      /* K = 26 */
(PID.TID 0000.0001)                 4.500000000000000E+00,      /* K = 27 */
(PID.TID 0000.0001)                 5.000000000000000E+00,      /* K = 28 */
(PID.TID 0000.0001)                 5.500000000000000E+00,      /* K = 29 */
(PID.TID 0000.0001)                 6.000000000000000E+00,      /* K = 30 */
(PID.TID 0000.0001)                 6.500000000000000E+00,      /* K = 31 */
(PID.TID 0000.0001)                 7.000000000000000E+00,      /* K = 32 */
(PID.TID 0000.0001)                 7.500000000000000E+00,      /* K = 33 */
(PID.TID 0000.0001)                 8.000000000000000E+00,      /* K = 34 */
(PID.TID 0000.0001)                 8.500000000000000E+00,      /* K = 35 */
(PID.TID 0000.0001)                 9.000000000000000E+00,      /* K = 36 */
(PID.TID 0000.0001)                 9.500000000000000E+00,      /* K = 37 */
(PID.TID 0000.0001)                 1.000000000000000E+01       /* K = 38 */
(PID.TID 0000.0001)     ;
(PID.TID 0000.0001) LAYERS_CHECK: done
(PID.TID 0000.0001) GAD_CHECK: #define ALLOW_GENERIC_ADVDIFF
(PID.TID 0000.0001) // =======================================================
(PID.TID 0000.0001) // Check Model config. (CONFIG_CHECK):
(PID.TID 0000.0001) // CONFIG_CHECK : Normal End
(PID.TID 0000.0001) // =======================================================
(PID.TID 0000.0001) 
(PID.TID 0000.0001)  MDS_READ_FIELD: opening global file: temperature.50km.bin
(PID.TID 0000.0001) Start initial hydrostatic pressure computation
(PID.TID 0000.0001) Pressure is predetermined for buoyancyRelation OCEANIC
(PID.TID 0000.0001) 
(PID.TID 0000.0001)  MDS_READ_FIELD: opening global file: zonal_wind.50km.bin
(PID.TID 0000.0001)  MDS_READ_FIELD: opening global file: SST_relax.50km.bin
(PID.TID 0000.0001)  write diagnostics summary to file ioUnit:      6
Iter.Nb:         0 ; Time(s):  0.0000000000000E+00
------------------------------------------------------------------------
2D/3D diagnostics: Number of lists:     5
------------------------------------------------------------------------
listId=    1 ; file name: Diags/2D_diags
 nFlds, nActive,       freq     &     phase        , nLev               
    3  |    3  |  31104000.000000         0.000000 |   1
 levels:   1
 diag# | name   |   ipt  |  iMate | kLev|   count |   mate.C|           
    88 |TRELAX  |      1 |      0 |   1 |       0 |
    76 |MXLDEPTH|      2 |      0 |   1 |       0 |
    23 |ETAN    |      3 |      0 |   1 |       0 |
------------------------------------------------------------------------
listId=    2 ; file name: Diags/state
 nFlds, nActive,       freq     &     phase        , nLev               
    8  |   10  |  31104000.000000         0.000000 |  49
 levels:   1   2   3   4   5   6   7   8   9  10  11  12  13  14  15  16  17  18  19  20  21  22  23  24  25
 levels:  26  27  28  29  30  31  32  33  34  35  36  37  38  39  40  41  42  43  44  45  46  47  48  49
 diag# | name   |   ipt  |  iMate | kLev|   count |   mate.C|           
    26 |THETA   |      4 |      0 |  49 |       0 |
    31 |VVEL    |     53 |    102 |  49 |       0 |       0 |
    30 |UVEL    |    102 |     53 |  49 |       0 |       0 |
    32 |WVEL    |    151 |      0 |  49 |       0 |
   154 |momVort3|    200 |      0 |  49 |       0 |
   153 |momHDiv |    249 |      0 |  49 |       0 |
    78 |CONVADJ |    298 |      0 |  49 |       0 |
    49 |PsiVEL  |   -347 |    396 |  49 |       0 |       0 |
    45 |UVELMASS|    347 |    396 |  49 |       0 |       0 |
    46 |VVELMASS|    396 |    347 |  49 |       0 |       0 |
------------------------------------------------------------------------
listId=    3 ; file name: Diags/heat_3D
 nFlds, nActive,       freq     &     phase        , nLev               
    7  |    7  |  31104000.000000         0.000000 |  49
 levels:   1   2   3   4   5   6   7   8   9  10  11  12  13  14  15  16  17  18  19  20  21  22  23  24  25
 levels:  26  27  28  29  30  31  32  33  34  35  36  37  38  39  40  41  42  43  44  45  46  47  48  49
 diag# | name   |   ipt  |  iMate | kLev|   count |   mate.C|           
   110 |ADVx_TH |    445 |    494 |  49 |       0 |       0 |
   111 |ADVy_TH |    494 |    445 |  49 |       0 |       0 |
   109 |ADVr_TH |    543 |      0 |  49 |       0 |
   113 |DFxE_TH |    592 |    641 |  49 |       0 |       0 |
   114 |DFyE_TH |    641 |    592 |  49 |       0 |       0 |
   115 |DFrI_TH |    690 |      0 |  49 |       0 |
   112 |DFrE_TH |    739 |      0 |  49 |       0 |
------------------------------------------------------------------------
listId=    4 ; file name: Diags/layDiag
 nFlds, nActive,       freq     &     phase        , nLev               
    3  |    3  |  31104000.000000         0.000000 |  37
 levels:   1   2   3   4   5   6   7   8   9  10  11  12  13  14  15  16  17  18  19  20  21  22  23  24  25
 levels:  26  27  28  29  30  31  32  33  34  35  36  37
 diag# | name   |   ipt  |  iMate | kLev|   count |   mate.C|           
   216 |LaVH1TH |    788 |      0 |  37 |       0 |
   218 |LaHs1TH |    825 |      0 |  37 |       0 |
   222 |LaVa1TH |    862 |      0 |  37 |       0 |
------------------------------------------------------------------------
listId=    5 ; file name: Diags/GM_diags
 nFlds, nActive,       freq     &     phase        , nLev               
    2  |    2  |  31104000.000000         0.000000 |  49
 levels:   1   2   3   4   5   6   7   8   9  10  11  12  13  14  15  16  17  18  19  20  21  22  23  24  25
 levels:  26  27  28  29  30  31  32  33  34  35  36  37  38  39  40  41  42  43  44  45  46  47  48  49
 diag# | name   |   ipt  |  iMate | kLev|   count |   mate.C|           
   206 |GM_PsiX |    899 |    948 |  49 |       0 |       0 |
   207 |GM_PsiY |    948 |    899 |  49 |       0 |       0 |
------------------------------------------------------------------------
Global & Regional Statistics diagnostics: Number of lists:     1
------------------------------------------------------------------------
listId=   1 ; file name: dynStDiag
 nFlds, nActive,       freq     &     phase        |                    
    2  |    2  |    864000.000000         0.000000 |
 Regions:   0
 diag# | name   |   ipt  |  iMate |    Volume   |   mate-Vol. |         
    26 |THETA   |      1 |      0 | 0.00000E+00 |
    88 |TRELAX  |     50 |      0 | 0.00000E+00 |
------------------------------------------------------------------------
(PID.TID 0000.0001) // =======================================================
(PID.TID 0000.0001) // Model current state
(PID.TID 0000.0001) // =======================================================
(PID.TID 0000.0001) 
(PID.TID 0000.0001) // =======================================================
(PID.TID 0000.0001) // Begin MONITOR dynamic field statistics
(PID.TID 0000.0001) // =======================================================
(PID.TID 0000.0001) %MON time_tsnumber                =                     0
(PID.TID 0000.0001) %MON time_secondsf                =   0.0000000000000E+00
(PID.TID 0000.0001) %MON dynstat_eta_max              =   0.0000000000000E+00
(PID.TID 0000.0001) %MON dynstat_eta_min              =   0.0000000000000E+00
(PID.TID 0000.0001) %MON dynstat_eta_mean             =   0.0000000000000E+00
(PID.TID 0000.0001) %MON dynstat_eta_sd               =   0.0000000000000E+00
(PID.TID 0000.0001) %MON dynstat_eta_del2             =   0.0000000000000E+00
(PID.TID 0000.0001) %MON dynstat_uvel_max             =   0.0000000000000E+00
(PID.TID 0000.0001) %MON dynstat_uvel_min             =   0.0000000000000E+00
(PID.TID 0000.0001) %MON dynstat_uvel_mean            =   0.0000000000000E+00
(PID.TID 0000.0001) %MON dynstat_uvel_sd              =   0.0000000000000E+00
(PID.TID 0000.0001) %MON dynstat_uvel_del2            =   0.0000000000000E+00
(PID.TID 0000.0001) %MON dynstat_vvel_max             =   0.0000000000000E+00
(PID.TID 0000.0001) %MON dynstat_vvel_min             =   0.0000000000000E+00
(PID.TID 0000.0001) %MON dynstat_vvel_mean            =   0.0000000000000E+00
(PID.TID 0000.0001) %MON dynstat_vvel_sd              =   0.0000000000000E+00
(PID.TID 0000.0001) %MON dynstat_vvel_del2            =   0.0000000000000E+00
(PID.TID 0000.0001) %MON dynstat_wvel_max             =  -0.0000000000000E+00
(PID.TID 0000.0001) %MON dynstat_wvel_min             =  -0.0000000000000E+00
(PID.TID 0000.0001) %MON dynstat_wvel_mean            =   0.0000000000000E+00
(PID.TID 0000.0001) %MON dynstat_wvel_sd              =   0.0000000000000E+00
(PID.TID 0000.0001) %MON dynstat_wvel_del2            =   0.0000000000000E+00
(PID.TID 0000.0001) %MON dynstat_theta_max            =   9.7851324081421E+00
(PID.TID 0000.0001) %MON dynstat_theta_min            =  -1.9999748468399E+00
(PID.TID 0000.0001) %MON dynstat_theta_mean           =  -1.1433321743403E+00
(PID.TID 0000.0001) %MON dynstat_theta_sd             =   1.6452688733873E+00
(PID.TID 0000.0001) %MON dynstat_theta_del2           =   9.1492014254610E-10
(PID.TID 0000.0001) %MON dynstat_salt_max             =   3.0000000000000E+01
(PID.TID 0000.0001) %MON dynstat_salt_min             =   3.0000000000000E+01
(PID.TID 0000.0001) %MON dynstat_salt_mean            =   2.9999999999999E+01
(PID.TID 0000.0001) %MON dynstat_salt_sd              =   1.4885870314174E-12
(PID.TID 0000.0001) %MON dynstat_salt_del2            =   0.0000000000000E+00
(PID.TID 0000.0001) %MON trAdv_CFL_u_max              =   0.0000000000000E+00
(PID.TID 0000.0001) %MON trAdv_CFL_v_max              =   0.0000000000000E+00
(PID.TID 0000.0001) %MON trAdv_CFL_w_max              =   0.0000000000000E+00
(PID.TID 0000.0001) %MON advcfl_uvel_max              =   0.0000000000000E+00
(PID.TID 0000.0001) %MON advcfl_vvel_max              =   0.0000000000000E+00
(PID.TID 0000.0001) %MON advcfl_wvel_max              =   0.0000000000000E+00
(PID.TID 0000.0001) %MON advcfl_W_hf_max              =   0.0000000000000E+00
(PID.TID 0000.0001) %MON pe_b_mean                    =   0.0000000000000E+00
(PID.TID 0000.0001) %MON ke_max                       =   0.0000000000000E+00
(PID.TID 0000.0001) %MON ke_mean                      =   0.0000000000000E+00
(PID.TID 0000.0001) %MON ke_vol                       =   6.9609783601763E+15
(PID.TID 0000.0001) %MON vort_r_min                   =   0.0000000000000E+00
(PID.TID 0000.0001) %MON vort_r_max                   =   0.0000000000000E+00
(PID.TID 0000.0001) %MON vort_a_mean                  =  -1.2346576697050E-04
(PID.TID 0000.0001) %MON vort_a_sd                    =   7.4915019332019E-06
(PID.TID 0000.0001) %MON vort_p_mean                  =  -1.3321486297860E-04
(PID.TID 0000.0001) %MON vort_p_sd                    =   6.7450228621535E-05
(PID.TID 0000.0001) %MON surfExpan_theta_mean         =   0.0000000000000E+00
(PID.TID 0000.0001) %MON surfExpan_salt_mean          =   0.0000000000000E+00
(PID.TID 0000.0001) // =======================================================
(PID.TID 0000.0001) // End MONITOR dynamic field statistics
(PID.TID 0000.0001) // =======================================================
 RBCS_FIELDS_LOAD, it=         0 : Reading new data, i0,i1=    1    1 (prev=    1    0 )
(PID.TID 0000.0001)  MDS_READ_FIELD: opening global file: temperature.50km.bin
(PID.TID 0000.0001)  MDS_READ_FIELD: opening global file: temperature.50km.bin
(PID.TID 0000.0001) SOLVE_FOR_PRESSURE: putPmEinXvector =    F
 cg2d: Sum(rhs),rhsMax =  -1.42108547152020E-14  2.57371342002553E-01
(PID.TID 0000.0001)      cg2d_init_res =   5.62439091252449E+00
(PID.TID 0000.0001)      cg2d_iters(min,last) =      -1      40
(PID.TID 0000.0001)      cg2d_last_res =   7.29835394030746E-08
(PID.TID 0000.0001) // =======================================================
(PID.TID 0000.0001) // Begin MONITOR dynamic field statistics
(PID.TID 0000.0001) // =======================================================
(PID.TID 0000.0001) %MON time_tsnumber                =                     1
(PID.TID 0000.0001) %MON time_secondsf                =   1.0000000000000E+03
(PID.TID 0000.0001) %MON dynstat_eta_max              =   8.8992151873175E-02
(PID.TID 0000.0001) %MON dynstat_eta_min              =  -8.9055807474656E-02
(PID.TID 0000.0001) %MON dynstat_eta_mean             =   2.8521173805718E-18
(PID.TID 0000.0001) %MON dynstat_eta_sd               =   2.9419819603444E-02
(PID.TID 0000.0001) %MON dynstat_eta_del2             =   6.3692298767498E-05
(PID.TID 0000.0001) %MON dynstat_uvel_max             =   3.2608531876808E-02
(PID.TID 0000.0001) %MON dynstat_uvel_min             =  -9.3738136324498E-04
(PID.TID 0000.0001) %MON dynstat_uvel_mean            =   3.5253160565367E-05
(PID.TID 0000.0001) %MON dynstat_uvel_sd              =   9.3321383911889E-04
(PID.TID 0000.0001) %MON dynstat_uvel_del2            =   4.1126734234240E-07
(PID.TID 0000.0001) %MON dynstat_vvel_max             =   6.4884307581860E-03
(PID.TID 0000.0001) %MON dynstat_vvel_min             =  -3.9491733915909E-03
(PID.TID 0000.0001) %MON dynstat_vvel_mean            =   4.2010990652613E-03
(PID.TID 0000.0001) %MON dynstat_vvel_sd              =   1.6941403818455E-03
(PID.TID 0000.0001) %MON dynstat_vvel_del2            =   6.4458289032777E-07
(PID.TID 0000.0001) %MON dynstat_wvel_max             =   1.0783091248338E-04
(PID.TID 0000.0001) %MON dynstat_wvel_min             =  -1.0788579225803E-04
(PID.TID 0000.0001) %MON dynstat_wvel_mean            =   6.6758120450071E-21
(PID.TID 0000.0001) %MON dynstat_wvel_sd              =   2.1839447718075E-05
(PID.TID 0000.0001) %MON dynstat_wvel_del2            =   3.6408235881018E-08
(PID.TID 0000.0001) %MON dynstat_theta_max            =   9.7843428148509E+00
(PID.TID 0000.0001) %MON dynstat_theta_min            =  -1.9999748411906E+00
(PID.TID 0000.0001) %MON dynstat_theta_mean           =  -1.1433564659919E+00
(PID.TID 0000.0001) %MON dynstat_theta_sd             =   1.6451913166871E+00
(PID.TID 0000.0001) %MON dynstat_theta_del2           =   3.0109106703038E-07
(PID.TID 0000.0001) %MON dynstat_salt_max             =   3.0000000000000E+01
(PID.TID 0000.0001) %MON dynstat_salt_min             =   3.0000000000000E+01
(PID.TID 0000.0001) %MON dynstat_salt_mean            =   2.9999999999999E+01
(PID.TID 0000.0001) %MON dynstat_salt_sd              =   1.4885870314174E-12
(PID.TID 0000.0001) %MON dynstat_salt_del2            =   0.0000000000000E+00
(PID.TID 0000.0001) %MON trAdv_CFL_u_max              =   6.5217063753615E-04
(PID.TID 0000.0001) %MON trAdv_CFL_v_max              =   9.6772222759708E-03
(PID.TID 0000.0001) %MON trAdv_CFL_w_max              =   1.9947824950955E-02
(PID.TID 0000.0001) %MON advcfl_uvel_max              =   6.5217063753615E-04
(PID.TID 0000.0001) %MON advcfl_vvel_max              =   1.2976861516372E-04
(PID.TID 0000.0001) %MON advcfl_wvel_max              =   3.2459676179607E-02
(PID.TID 0000.0001) %MON advcfl_W_hf_max              =   1.6309664066481E-02
(PID.TID 0000.0001) %MON pe_b_mean                    =   1.1892779044128E-06
(PID.TID 0000.0001) %MON ke_max                       =   5.3172306764057E-04
(PID.TID 0000.0001) %MON ke_mean                      =   1.0392245380554E-05
(PID.TID 0000.0001) %MON ke_vol                       =   6.9609783601763E+15
(PID.TID 0000.0001) %MON vort_r_min                   =  -1.3296994257390E-07
(PID.TID 0000.0001) %MON vort_r_max                   =   1.3296994257390E-07
(PID.TID 0000.0001) %MON vort_a_mean                  =  -1.2346576697050E-04
(PID.TID 0000.0001) %MON vort_a_sd                    =   7.4915889497085E-06
(PID.TID 0000.0001) %MON vort_p_mean                  =  -1.3321486297860E-04
(PID.TID 0000.0001) %MON vort_p_sd                    =   6.7450265036232E-05
(PID.TID 0000.0001) %MON surfExpan_theta_mean         =   8.6914294963985E-05
(PID.TID 0000.0001) %MON surfExpan_salt_mean          =  -1.2226593800080E-19
(PID.TID 0000.0001) // =======================================================
(PID.TID 0000.0001) // End MONITOR dynamic field statistics
(PID.TID 0000.0001) // =======================================================
 cg2d: Sum(rhs),rhsMax =   2.84217094304040E-14  3.69698768926520E-01
(PID.TID 0000.0001)      cg2d_init_res =   2.80342188040670E+00
(PID.TID 0000.0001)      cg2d_iters(min,last) =      -1      41
(PID.TID 0000.0001)      cg2d_last_res =   6.23092722770873E-08
(PID.TID 0000.0001) // =======================================================
(PID.TID 0000.0001) // Begin MONITOR dynamic field statistics
(PID.TID 0000.0001) // =======================================================
(PID.TID 0000.0001) %MON time_tsnumber                =                     2
(PID.TID 0000.0001) %MON time_secondsf                =   2.0000000000000E+03
(PID.TID 0000.0001) %MON dynstat_eta_max              =   1.8528109607963E-01
(PID.TID 0000.0001) %MON dynstat_eta_min              =  -1.8573484539377E-01
(PID.TID 0000.0001) %MON dynstat_eta_mean             =  -8.5563521417153E-18
(PID.TID 0000.0001) %MON dynstat_eta_sd               =   7.5458118621812E-02
(PID.TID 0000.0001) %MON dynstat_eta_del2             =   6.3854273535809E-05
(PID.TID 0000.0001) %MON dynstat_uvel_max             =   6.2901755099105E-02
(PID.TID 0000.0001) %MON dynstat_uvel_min             =  -2.4242714435950E-03
(PID.TID 0000.0001) %MON dynstat_uvel_mean            =  -6.6905904312160E-04
(PID.TID 0000.0001) %MON dynstat_uvel_sd              =   1.8850817224332E-03
(PID.TID 0000.0001) %MON dynstat_uvel_del2            =   9.3537541809092E-07
(PID.TID 0000.0001) %MON dynstat_vvel_max             =   1.2725371726949E-02
(PID.TID 0000.0001) %MON dynstat_vvel_min             =  -8.7050195624037E-03
(PID.TID 0000.0001) %MON dynstat_vvel_mean            =   7.4387422423817E-03
(PID.TID 0000.0001) %MON dynstat_vvel_sd              =   3.6075740021320E-03
(PID.TID 0000.0001) %MON dynstat_vvel_del2            =   1.1296102859112E-06
(PID.TID 0000.0001) %MON dynstat_wvel_max             =   1.5128102170340E-04
(PID.TID 0000.0001) %MON dynstat_wvel_min             =  -1.5210792944908E-04
(PID.TID 0000.0001) %MON dynstat_wvel_mean            =  -1.2238988749180E-20
(PID.TID 0000.0001) %MON dynstat_wvel_sd              =   3.5438996651281E-05
(PID.TID 0000.0001) %MON dynstat_wvel_del2            =   6.4565069963159E-08
(PID.TID 0000.0001) %MON dynstat_theta_max            =   9.7832755217404E+00
(PID.TID 0000.0001) %MON dynstat_theta_min            =  -1.9999748351082E+00
(PID.TID 0000.0001) %MON dynstat_theta_mean           =  -1.1433995078327E+00
(PID.TID 0000.0001) %MON dynstat_theta_sd             =   1.6450538733238E+00
(PID.TID 0000.0001) %MON dynstat_theta_del2           =   6.4278531228433E-07
(PID.TID 0000.0001) %MON dynstat_salt_max             =   3.0000000000000E+01
(PID.TID 0000.0001) %MON dynstat_salt_min             =   3.0000000000000E+01
(PID.TID 0000.0001) %MON dynstat_salt_mean            =   2.9999999999999E+01
(PID.TID 0000.0001) %MON dynstat_salt_sd              =   1.4885870314174E-12
(PID.TID 0000.0001) %MON dynstat_salt_del2            =   0.0000000000000E+00
(PID.TID 0000.0001) %MON trAdv_CFL_u_max              =   1.2579759023706E-03
(PID.TID 0000.0001) %MON trAdv_CFL_v_max              =   9.6873813674209E-03
(PID.TID 0000.0001) %MON trAdv_CFL_w_max              =   2.2494635214646E-02
(PID.TID 0000.0001) %MON advcfl_uvel_max              =   1.2580351019821E-03
(PID.TID 0000.0001) %MON advcfl_vvel_max              =   2.5450743453897E-04
(PID.TID 0000.0001) %MON advcfl_wvel_max              =   3.5244143425853E-02
(PID.TID 0000.0001) %MON advcfl_W_hf_max              =   1.7787313625960E-02
(PID.TID 0000.0001) %MON pe_b_mean                    =   7.8237557746772E-06
(PID.TID 0000.0001) %MON ke_max                       =   1.9863875380874E-03
(PID.TID 0000.0001) %MON ke_mean                      =   3.5151800526175E-05
(PID.TID 0000.0001) %MON ke_vol                       =   6.9609783601763E+15
(PID.TID 0000.0001) %MON vort_r_min                   =  -2.8860531228738E-07
(PID.TID 0000.0001) %MON vort_r_max                   =   2.8374071635930E-07
(PID.TID 0000.0001) %MON vort_a_mean                  =  -1.2346576697050E-04
(PID.TID 0000.0001) %MON vort_a_sd                    =   7.4908038076038E-06
(PID.TID 0000.0001) %MON vort_p_mean                  =  -1.3321486297860E-04
(PID.TID 0000.0001) %MON vort_p_sd                    =   6.7450012910644E-05
(PID.TID 0000.0001) %MON surfExpan_theta_mean         =   1.5386570612504E-04
(PID.TID 0000.0001) %MON surfExpan_salt_mean          =   1.2226593800080E-19
(PID.TID 0000.0001) // =======================================================
(PID.TID 0000.0001) // End MONITOR dynamic field statistics
(PID.TID 0000.0001) // =======================================================
 cg2d: Sum(rhs),rhsMax =   0.00000000000000E+00  4.33933261065325E-01
 cg2d: Sum(rhs),rhsMax =  -4.26325641456060E-14  4.93129002305424E-01
(PID.TID 0000.0001)      cg2d_init_res =   2.56131272926529E+00
(PID.TID 0000.0001)      cg2d_iters(min,last) =      -1      38
(PID.TID 0000.0001)      cg2d_last_res =   8.48909708106600E-08
(PID.TID 0000.0001) // =======================================================
(PID.TID 0000.0001) // Begin MONITOR dynamic field statistics
(PID.TID 0000.0001) // =======================================================
(PID.TID 0000.0001) %MON time_tsnumber                =                     4
(PID.TID 0000.0001) %MON time_secondsf                =   4.0000000000000E+03
(PID.TID 0000.0001) %MON dynstat_eta_max              =   3.6867259970520E-01
(PID.TID 0000.0001) %MON dynstat_eta_min              =  -3.6934159533454E-01
(PID.TID 0000.0001) %MON dynstat_eta_mean             =   4.5633878089148E-17
(PID.TID 0000.0001) %MON dynstat_eta_sd               =   1.9686013168241E-01
(PID.TID 0000.0001) %MON dynstat_eta_del2             =   4.4836366665561E-05
(PID.TID 0000.0001) %MON dynstat_uvel_max             =   1.1480335337497E-01
(PID.TID 0000.0001) %MON dynstat_uvel_min             =  -7.9321837289390E-03
(PID.TID 0000.0001) %MON dynstat_uvel_mean            =  -2.8444833645697E-03
(PID.TID 0000.0001) %MON dynstat_uvel_sd              =   3.9191171555874E-03
(PID.TID 0000.0001) %MON dynstat_uvel_del2            =   2.0507761063556E-06
(PID.TID 0000.0001) %MON dynstat_vvel_max             =   2.0616105113924E-02
(PID.TID 0000.0001) %MON dynstat_vvel_min             =  -1.7979672347088E-02
(PID.TID 0000.0001) %MON dynstat_vvel_mean            =   1.0598999290405E-02
(PID.TID 0000.0001) %MON dynstat_vvel_sd              =   6.7548773501389E-03
(PID.TID 0000.0001) %MON dynstat_vvel_del2            =   1.7682599992646E-06
(PID.TID 0000.0001) %MON dynstat_wvel_max             =   2.2496525236965E-04
(PID.TID 0000.0001) %MON dynstat_wvel_min             =  -2.2568623233613E-04
(PID.TID 0000.0001) %MON dynstat_wvel_mean            =  -5.3406496360057E-20
(PID.TID 0000.0001) %MON dynstat_wvel_sd              =   5.3483817435653E-05
(PID.TID 0000.0001) %MON dynstat_wvel_del2            =   1.2589051703374E-07
(PID.TID 0000.0001) %MON dynstat_theta_max            =   9.7809618009513E+00
(PID.TID 0000.0001) %MON dynstat_theta_min            =  -1.9999748218983E+00
(PID.TID 0000.0001) %MON dynstat_theta_mean           =  -1.1435161862975E+00
(PID.TID 0000.0001) %MON dynstat_theta_sd             =   1.6446806361991E+00
(PID.TID 0000.0001) %MON dynstat_theta_del2           =   1.7354760579112E-06
(PID.TID 0000.0001) %MON dynstat_salt_max             =   3.0000000000000E+01
(PID.TID 0000.0001) %MON dynstat_salt_min             =   3.0000000000000E+01
(PID.TID 0000.0001) %MON dynstat_salt_mean            =   2.9999999999999E+01
(PID.TID 0000.0001) %MON dynstat_salt_sd              =   1.4885870314174E-12
(PID.TID 0000.0001) %MON dynstat_salt_del2            =   0.0000000000000E+00
(PID.TID 0000.0001) %MON trAdv_CFL_u_max              =   2.2960437215881E-03
(PID.TID 0000.0001) %MON trAdv_CFL_v_max              =   9.0032710329573E-03
(PID.TID 0000.0001) %MON trAdv_CFL_w_max              =   2.6603398370132E-02
(PID.TID 0000.0001) %MON advcfl_uvel_max              =   2.2960670674993E-03
(PID.TID 0000.0001) %MON advcfl_vvel_max              =   4.1232210227847E-04
(PID.TID 0000.0001) %MON advcfl_wvel_max              =   3.5430767861563E-02
(PID.TID 0000.0001) %MON advcfl_W_hf_max              =   1.7956172011791E-02
(PID.TID 0000.0001) %MON pe_b_mean                    =   5.3249910475787E-05
(PID.TID 0000.0001) %MON ke_max                       =   6.7632730323004E-03
(PID.TID 0000.0001) %MON ke_mean                      =   8.8180090618770E-05
(PID.TID 0000.0001) %MON ke_vol                       =   6.9609783601763E+15
(PID.TID 0000.0001) %MON vort_r_min                   =  -5.5834824413467E-07
(PID.TID 0000.0001) %MON vort_r_max                   =   5.3688457783286E-07
(PID.TID 0000.0001) %MON vort_a_mean                  =  -1.2346576697050E-04
(PID.TID 0000.0001) %MON vort_a_sd                    =   7.4877763521597E-06
(PID.TID 0000.0001) %MON vort_p_mean                  =  -1.3321486297860E-04
(PID.TID 0000.0001) %MON vort_p_sd                    =   6.7449292820332E-05
(PID.TID 0000.0001) %MON surfExpan_theta_mean         =   2.1914215578180E-04
(PID.TID 0000.0001) %MON surfExpan_salt_mean          =  -2.4453187600160E-19
(PID.TID 0000.0001) // =======================================================
(PID.TID 0000.0001) // End MONITOR dynamic field statistics
(PID.TID 0000.0001) // =======================================================
 cg2d: Sum(rhs),rhsMax =  -9.94759830064140E-14  5.49645954188072E-01
(PID.TID 0000.0001)      cg2d_init_res =   2.30048370046043E+00
(PID.TID 0000.0001)      cg2d_iters(min,last) =      -1      37
(PID.TID 0000.0001)      cg2d_last_res =   6.66142724063740E-08
(PID.TID 0000.0001) // =======================================================
(PID.TID 0000.0001) // Begin MONITOR dynamic field statistics
(PID.TID 0000.0001) // =======================================================
(PID.TID 0000.0001) %MON time_tsnumber                =                     5
(PID.TID 0000.0001) %MON time_secondsf                =   5.0000000000000E+03
(PID.TID 0000.0001) %MON dynstat_eta_max              =   4.5596521902889E-01
(PID.TID 0000.0001) %MON dynstat_eta_min              =  -4.5603242081211E-01
(PID.TID 0000.0001) %MON dynstat_eta_mean             =   4.5633878089148E-17
(PID.TID 0000.0001) %MON dynstat_eta_sd               =   2.6120763357439E-01
(PID.TID 0000.0001) %MON dynstat_eta_del2             =   3.8204913299984E-05
(PID.TID 0000.0001) %MON dynstat_uvel_max             =   1.3684781403430E-01
(PID.TID 0000.0001) %MON dynstat_uvel_min             =  -1.1288342254318E-02
(PID.TID 0000.0001) %MON dynstat_uvel_mean            =  -4.0610258210096E-03
(PID.TID 0000.0001) %MON dynstat_uvel_sd              =   5.0310410123839E-03
(PID.TID 0000.0001) %MON dynstat_uvel_del2            =   2.6180859239936E-06
(PID.TID 0000.0001) %MON dynstat_vvel_max             =   2.9477771634223E-02
(PID.TID 0000.0001) %MON dynstat_vvel_min             =  -2.2219336900797E-02
(PID.TID 0000.0001) %MON dynstat_vvel_mean            =   1.0551563682000E-02
(PID.TID 0000.0001) %MON dynstat_vvel_sd              =   7.7220605518197E-03
(PID.TID 0000.0001) %MON dynstat_vvel_del2            =   1.8395019969771E-06
(PID.TID 0000.0001) %MON dynstat_wvel_max             =   2.5543735803342E-04
(PID.TID 0000.0001) %MON dynstat_wvel_min             =  -2.5547991409240E-04
(PID.TID 0000.0001) %MON dynstat_wvel_mean            =  -2.8928518861698E-20
(PID.TID 0000.0001) %MON dynstat_wvel_sd              =   5.7917725503446E-05
(PID.TID 0000.0001) %MON dynstat_wvel_del2            =   1.5196067856993E-07
(PID.TID 0000.0001) %MON dynstat_theta_max            =   9.7798567827694E+00
(PID.TID 0000.0001) %MON dynstat_theta_min            =  -1.9999748148471E+00
(PID.TID 0000.0001) %MON dynstat_theta_mean           =  -1.1435771856658E+00
(PID.TID 0000.0001) %MON dynstat_theta_sd             =   1.6444850665152E+00
(PID.TID 0000.0001) %MON dynstat_theta_del2           =   2.5044340887164E-06
(PID.TID 0000.0001) %MON dynstat_salt_max             =   3.0000000000000E+01
(PID.TID 0000.0001) %MON dynstat_salt_min             =   3.0000000000000E+01
(PID.TID 0000.0001) %MON dynstat_salt_mean            =   2.9999999999999E+01
(PID.TID 0000.0001) %MON dynstat_salt_sd              =   1.4885870314174E-12
(PID.TID 0000.0001) %MON dynstat_salt_del2            =   0.0000000000000E+00
(PID.TID 0000.0001) %MON trAdv_CFL_u_max              =   2.7369808820212E-03
(PID.TID 0000.0001) %MON trAdv_CFL_v_max              =   1.0056288326534E-02
(PID.TID 0000.0001) %MON trAdv_CFL_w_max              =   2.6391491253024E-02
(PID.TID 0000.0001) %MON advcfl_uvel_max              =   2.7369562806860E-03
(PID.TID 0000.0001) %MON advcfl_vvel_max              =   5.8955543268446E-04
(PID.TID 0000.0001) %MON advcfl_wvel_max              =   3.3243125569953E-02
(PID.TID 0000.0001) %MON advcfl_W_hf_max              =   1.6932341692899E-02
(PID.TID 0000.0001) %MON pe_b_mean                    =   9.3750818655398E-05
(PID.TID 0000.0001) %MON ke_max                       =   9.7431186338396E-03
(PID.TID 0000.0001) %MON ke_mean                      =   1.0345891310679E-04
(PID.TID 0000.0001) %MON ke_vol                       =   6.9609783601763E+15
(PID.TID 0000.0001) %MON vort_r_min                   =  -6.4334499045269E-07
(PID.TID 0000.0001) %MON vort_r_max                   =   6.1508840757742E-07
(PID.TID 0000.0001) %MON vort_a_mean                  =  -1.2346576697050E-04
(PID.TID 0000.0001) %MON vort_a_sd                    =   7.4859814901322E-06
(PID.TID 0000.0001) %MON vort_p_mean                  =  -1.3321486297860E-04
(PID.TID 0000.0001) %MON vort_p_sd                    =   6.7448890874806E-05
(PID.TID 0000.0001) %MON surfExpan_theta_mean         =   2.1811518146794E-04
(PID.TID 0000.0001) %MON surfExpan_salt_mean          =  -2.4453187600160E-19
(PID.TID 0000.0001) // =======================================================
(PID.TID 0000.0001) // End MONITOR dynamic field statistics
(PID.TID 0000.0001) // =======================================================
 cg2d: Sum(rhs),rhsMax =   7.10542735760100E-14  6.01040217330782E-01
(PID.TID 0000.0001)      cg2d_init_res =   1.90393859965101E+00
(PID.TID 0000.0001)      cg2d_iters(min,last) =      -1      35
(PID.TID 0000.0001)      cg2d_last_res =   9.27301141359536E-08
(PID.TID 0000.0001) // =======================================================
(PID.TID 0000.0001) // Begin MONITOR dynamic field statistics
(PID.TID 0000.0001) // =======================================================
(PID.TID 0000.0001) %MON time_tsnumber                =                     6
(PID.TID 0000.0001) %MON time_secondsf                =   6.0000000000000E+03
(PID.TID 0000.0001) %MON dynstat_eta_max              =   5.3548858360089E-01
(PID.TID 0000.0001) %MON dynstat_eta_min              =  -5.3414234638586E-01
(PID.TID 0000.0001) %MON dynstat_eta_mean             =   4.5633878089148E-17
(PID.TID 0000.0001) %MON dynstat_eta_sd               =   3.1978187557610E-01
(PID.TID 0000.0001) %MON dynstat_eta_del2             =   3.7943861872288E-05
(PID.TID 0000.0001) %MON dynstat_uvel_max             =   1.5660529530293E-01
(PID.TID 0000.0001) %MON dynstat_uvel_min             =  -1.4734742424474E-02
(PID.TID 0000.0001) %MON dynstat_uvel_mean            =  -5.2025571134690E-03
(PID.TID 0000.0001) %MON dynstat_uvel_sd              =   6.1817156820042E-03
(PID.TID 0000.0001) %MON dynstat_uvel_del2            =   3.1729629801389E-06
(PID.TID 0000.0001) %MON dynstat_vvel_max             =   3.8712830388639E-02
(PID.TID 0000.0001) %MON dynstat_vvel_min             =  -2.6157989633090E-02
(PID.TID 0000.0001) %MON dynstat_vvel_mean            =   9.5204778614074E-03
(PID.TID 0000.0001) %MON dynstat_vvel_sd              =   8.3574014852594E-03
(PID.TID 0000.0001) %MON dynstat_vvel_del2            =   1.7721304223102E-06
(PID.TID 0000.0001) %MON dynstat_wvel_max             =   2.8045287676432E-04
(PID.TID 0000.0001) %MON dynstat_wvel_min             =  -2.7936173447374E-04
(PID.TID 0000.0001) %MON dynstat_wvel_mean            =   7.7884473858417E-20
(PID.TID 0000.0001) %MON dynstat_wvel_sd              =   5.9417602495780E-05
(PID.TID 0000.0001) %MON dynstat_wvel_del2            =   1.7489311363699E-07
(PID.TID 0000.0001) %MON dynstat_theta_max            =   9.7788544776413E+00
(PID.TID 0000.0001) %MON dynstat_theta_min            =  -1.9999748075795E+00
(PID.TID 0000.0001) %MON dynstat_theta_mean           =  -1.1436321825593E+00
(PID.TID 0000.0001) %MON dynstat_theta_sd             =   1.6443084283792E+00
(PID.TID 0000.0001) %MON dynstat_theta_del2           =   3.3763848663248E-06
(PID.TID 0000.0001) %MON dynstat_salt_max             =   3.0000000000000E+01
(PID.TID 0000.0001) %MON dynstat_salt_min             =   3.0000000000000E+01
(PID.TID 0000.0001) %MON dynstat_salt_mean            =   2.9999999999999E+01
(PID.TID 0000.0001) %MON dynstat_salt_sd              =   1.4885870314174E-12
(PID.TID 0000.0001) %MON dynstat_salt_del2            =   0.0000000000000E+00
(PID.TID 0000.0001) %MON trAdv_CFL_u_max              =   3.1321778405990E-03
(PID.TID 0000.0001) %MON trAdv_CFL_v_max              =   9.6453718039867E-03
(PID.TID 0000.0001) %MON trAdv_CFL_w_max              =   2.3997927876900E-02
(PID.TID 0000.0001) %MON advcfl_uvel_max              =   3.1321059060585E-03
(PID.TID 0000.0001) %MON advcfl_vvel_max              =   7.7425660777278E-04
(PID.TID 0000.0001) %MON advcfl_wvel_max              =   2.9529424451836E-02
(PID.TID 0000.0001) %MON advcfl_W_hf_max              =   1.5173730635431E-02
(PID.TID 0000.0001) %MON pe_b_mean                    =   1.4051122829176E-04
(PID.TID 0000.0001) %MON ke_max                       =   1.2953633299368E-02
(PID.TID 0000.0001) %MON ke_mean                      =   1.0983741220387E-04
(PID.TID 0000.0001) %MON ke_vol                       =   6.9609783601763E+15
(PID.TID 0000.0001) %MON vort_r_min                   =  -6.8642245923880E-07
(PID.TID 0000.0001) %MON vort_r_max                   =   6.5648493779164E-07
(PID.TID 0000.0001) %MON vort_a_mean                  =  -1.2346576697050E-04
(PID.TID 0000.0001) %MON vort_a_sd                    =   7.4842604840966E-06
(PID.TID 0000.0001) %MON vort_p_mean                  =  -1.3321486297860E-04
(PID.TID 0000.0001) %MON vort_p_sd                    =   6.7448510278781E-05
(PID.TID 0000.0001) %MON surfExpan_theta_mean         =   1.9676148352285E-04
(PID.TID 0000.0001) %MON surfExpan_salt_mean          =   0.0000000000000E+00
(PID.TID 0000.0001) // =======================================================
(PID.TID 0000.0001) // End MONITOR dynamic field statistics
(PID.TID 0000.0001) // =======================================================
 cg2d: Sum(rhs),rhsMax =  -1.42108547152020E-14  6.43898368234327E-01
(PID.TID 0000.0001)      cg2d_init_res =   1.42748371113257E+00
(PID.TID 0000.0001)      cg2d_iters(min,last) =      -1      37
(PID.TID 0000.0001)      cg2d_last_res =   6.91569468592187E-08
(PID.TID 0000.0001) // =======================================================
(PID.TID 0000.0001) // Begin MONITOR dynamic field statistics
(PID.TID 0000.0001) // =======================================================
(PID.TID 0000.0001) %MON time_tsnumber                =                     7
(PID.TID 0000.0001) %MON time_secondsf                =   7.0000000000000E+03
(PID.TID 0000.0001) %MON dynstat_eta_max              =   6.0100862119781E-01
(PID.TID 0000.0001) %MON dynstat_eta_min              =  -5.9777713545255E-01
(PID.TID 0000.0001) %MON dynstat_eta_mean             =  -9.1267756178296E-17
(PID.TID 0000.0001) %MON dynstat_eta_sd               =   3.6718282999139E-01
(PID.TID 0000.0001) %MON dynstat_eta_del2             =   4.1641773376982E-05
(PID.TID 0000.0001) %MON dynstat_uvel_max             =   1.7430511192228E-01
(PID.TID 0000.0001) %MON dynstat_uvel_min             =  -1.7965293274612E-02
(PID.TID 0000.0001) %MON dynstat_uvel_mean            =  -6.1603349833498E-03
(PID.TID 0000.0001) %MON dynstat_uvel_sd              =   7.3391805599443E-03
(PID.TID 0000.0001) %MON dynstat_uvel_del2            =   3.6888836031064E-06
(PID.TID 0000.0001) %MON dynstat_vvel_max             =   4.8290334386515E-02
(PID.TID 0000.0001) %MON dynstat_vvel_min             =  -2.9831163495597E-02
(PID.TID 0000.0001) %MON dynstat_vvel_mean            =   7.6711415445326E-03
(PID.TID 0000.0001) %MON dynstat_vvel_sd              =   8.8245186160054E-03
(PID.TID 0000.0001) %MON dynstat_vvel_del2            =   1.6561407707144E-06
(PID.TID 0000.0001) %MON dynstat_wvel_max             =   2.9880875673809E-04
(PID.TID 0000.0001) %MON dynstat_wvel_min             =  -2.9618447362391E-04
(PID.TID 0000.0001) %MON dynstat_wvel_mean            =  -4.8955954996719E-20
(PID.TID 0000.0001) %MON dynstat_wvel_sd              =   5.8921149901136E-05
(PID.TID 0000.0001) %MON dynstat_wvel_del2            =   1.9486611914323E-07
(PID.TID 0000.0001) %MON dynstat_theta_max            =   9.7780121649221E+00
(PID.TID 0000.0001) %MON dynstat_theta_min            =  -1.9999748001698E+00
(PID.TID 0000.0001) %MON dynstat_theta_mean           =  -1.1436764420440E+00
(PID.TID 0000.0001) %MON dynstat_theta_sd             =   1.6441659969244E+00
(PID.TID 0000.0001) %MON dynstat_theta_del2           =   4.3208135981212E-06
(PID.TID 0000.0001) %MON dynstat_salt_max             =   3.0000000000000E+01
(PID.TID 0000.0001) %MON dynstat_salt_min             =   3.0000000000000E+01
(PID.TID 0000.0001) %MON dynstat_salt_mean            =   2.9999999999999E+01
(PID.TID 0000.0001) %MON dynstat_salt_sd              =   1.4885870314174E-12
(PID.TID 0000.0001) %MON dynstat_salt_del2            =   0.0000000000000E+00
(PID.TID 0000.0001) %MON trAdv_CFL_u_max              =   3.4862155402053E-03
(PID.TID 0000.0001) %MON trAdv_CFL_v_max              =   8.8722208587249E-03
(PID.TID 0000.0001) %MON trAdv_CFL_w_max              =   2.0515180016612E-02
(PID.TID 0000.0001) %MON advcfl_uvel_max              =   3.4861022384456E-03
(PID.TID 0000.0001) %MON advcfl_vvel_max              =   9.6580668773030E-04
(PID.TID 0000.0001) %MON advcfl_wvel_max              =   2.4233577117265E-02
(PID.TID 0000.0001) %MON advcfl_W_hf_max              =   1.2593227983061E-02
(PID.TID 0000.0001) %MON pe_b_mean                    =   1.8525420257677E-04
(PID.TID 0000.0001) %MON ke_max                       =   1.6328138914723E-02
(PID.TID 0000.0001) %MON ke_mean                      =   1.1125538252976E-04
(PID.TID 0000.0001) %MON ke_vol                       =   6.9609783601763E+15
(PID.TID 0000.0001) %MON vort_r_min                   =  -6.8912645304444E-07
(PID.TID 0000.0001) %MON vort_r_max                   =   6.6277870809380E-07
(PID.TID 0000.0001) %MON vort_a_mean                  =  -1.2346576697050E-04
(PID.TID 0000.0001) %MON vort_a_sd                    =   7.4827902168674E-06
(PID.TID 0000.0001) %MON vort_p_mean                  =  -1.3321486297860E-04
(PID.TID 0000.0001) %MON vort_p_sd                    =   6.7448179611317E-05
(PID.TID 0000.0001) %MON surfExpan_theta_mean         =   1.5851193179364E-04
(PID.TID 0000.0001) %MON surfExpan_salt_mean          =   3.6679781400240E-19
(PID.TID 0000.0001) // =======================================================
(PID.TID 0000.0001) // End MONITOR dynamic field statistics
(PID.TID 0000.0001) // =======================================================
 cg2d: Sum(rhs),rhsMax =   5.68434188608080E-14  6.74702987617029E-01
(PID.TID 0000.0001)      cg2d_init_res =   9.24284507367643E-01
(PID.TID 0000.0001)      cg2d_iters(min,last) =      -1      37
(PID.TID 0000.0001)      cg2d_last_res =   6.12653147860663E-08
(PID.TID 0000.0001) // =======================================================
(PID.TID 0000.0001) // Begin MONITOR dynamic field statistics
(PID.TID 0000.0001) // =======================================================
(PID.TID 0000.0001) %MON time_tsnumber                =                     8
(PID.TID 0000.0001) %MON time_secondsf                =   8.0000000000000E+03
(PID.TID 0000.0001) %MON dynstat_eta_max              =   6.4743680969642E-01
(PID.TID 0000.0001) %MON dynstat_eta_min              =  -6.4230345350957E-01
(PID.TID 0000.0001) %MON dynstat_eta_mean             =  -6.8450817133722E-17
(PID.TID 0000.0001) %MON dynstat_eta_sd               =   3.9955487961408E-01
(PID.TID 0000.0001) %MON dynstat_eta_del2             =   4.5098374388514E-05
(PID.TID 0000.0001) %MON dynstat_uvel_max             =   1.9015891111471E-01
(PID.TID 0000.0001) %MON dynstat_uvel_min             =  -2.0635928041363E-02
(PID.TID 0000.0001) %MON dynstat_uvel_mean            =  -6.8478484329874E-03
(PID.TID 0000.0001) %MON dynstat_uvel_sd              =   8.4798412226220E-03
(PID.TID 0000.0001) %MON dynstat_uvel_del2            =   4.1390606284355E-06
(PID.TID 0000.0001) %MON dynstat_vvel_max             =   5.8394431937069E-02
(PID.TID 0000.0001) %MON dynstat_vvel_min             =  -3.3117479912847E-02
(PID.TID 0000.0001) %MON dynstat_vvel_mean            =   5.2352238758528E-03
(PID.TID 0000.0001) %MON dynstat_vvel_sd              =   9.2754905558575E-03
(PID.TID 0000.0001) %MON dynstat_vvel_del2            =   1.6297421184823E-06
(PID.TID 0000.0001) %MON dynstat_wvel_max             =   3.1029247721617E-04
(PID.TID 0000.0001) %MON dynstat_wvel_min             =  -3.0653237519158E-04
(PID.TID 0000.0001) %MON dynstat_wvel_mean            =  -8.9010827266762E-21
(PID.TID 0000.0001) %MON dynstat_wvel_sd              =   5.7683378387987E-05
(PID.TID 0000.0001) %MON dynstat_wvel_del2            =   2.1182883706529E-07
(PID.TID 0000.0001) %MON dynstat_theta_max            =   9.7773916566897E+00
(PID.TID 0000.0001) %MON dynstat_theta_min            =  -1.9999747926937E+00
(PID.TID 0000.0001) %MON dynstat_theta_mean           =  -1.1437065738376E+00
(PID.TID 0000.0001) %MON dynstat_theta_sd             =   1.6440687843603E+00
(PID.TID 0000.0001) %MON dynstat_theta_del2           =   5.3210991532154E-06
(PID.TID 0000.0001) %MON dynstat_salt_max             =   3.0000000000000E+01
(PID.TID 0000.0001) %MON dynstat_salt_min             =   3.0000000000000E+01
(PID.TID 0000.0001) %MON dynstat_salt_mean            =   2.9999999999999E+01
(PID.TID 0000.0001) %MON dynstat_salt_sd              =   1.4885870314174E-12
(PID.TID 0000.0001) %MON dynstat_salt_del2            =   0.0000000000000E+00
(PID.TID 0000.0001) %MON trAdv_CFL_u_max              =   3.8031184320671E-03
(PID.TID 0000.0001) %MON trAdv_CFL_v_max              =   8.1714183310705E-03
(PID.TID 0000.0001) %MON trAdv_CFL_w_max              =   1.6321531656919E-02
(PID.TID 0000.0001) %MON advcfl_uvel_max              =   3.8031782222943E-03
(PID.TID 0000.0001) %MON advcfl_vvel_max              =   1.1678886387414E-03
(PID.TID 0000.0001) %MON advcfl_wvel_max              =   1.7250366525728E-02
(PID.TID 0000.0001) %MON advcfl_W_hf_max              =   9.1508591603448E-03
(PID.TID 0000.0001) %MON pe_b_mean                    =   2.1935938368252E-04
(PID.TID 0000.0001) %MON ke_max                       =   1.9776173492626E-02
(PID.TID 0000.0001) %MON ke_mean                      =   1.1313371943857E-04
(PID.TID 0000.0001) %MON ke_vol                       =   6.9609783601763E+15
(PID.TID 0000.0001) %MON vort_r_min                   =  -6.9127668153591E-07
(PID.TID 0000.0001) %MON vort_r_max                   =   6.3843891134601E-07
(PID.TID 0000.0001) %MON vort_a_mean                  =  -1.2346576697050E-04
(PID.TID 0000.0001) %MON vort_a_sd                    =   7.4817119723588E-06
(PID.TID 0000.0001) %MON vort_p_mean                  =  -1.3321486297860E-04
(PID.TID 0000.0001) %MON vort_p_sd                    =   6.7447921566854E-05
(PID.TID 0000.0001) %MON surfExpan_theta_mean         =   1.0816065000699E-04
(PID.TID 0000.0001) %MON surfExpan_salt_mean          =   1.2226593800080E-19
(PID.TID 0000.0001) // =======================================================
(PID.TID 0000.0001) // End MONITOR dynamic field statistics
(PID.TID 0000.0001) // =======================================================
 cg2d: Sum(rhs),rhsMax =   5.68434188608080E-14  6.90730256944104E-01
 cg2d: Sum(rhs),rhsMax =   0.00000000000000E+00  6.90848347196558E-01
(PID.TID 0000.0001)      cg2d_init_res =   9.08512093229385E-02
(PID.TID 0000.0001)      cg2d_iters(min,last) =      -1      35
(PID.TID 0000.0001)      cg2d_last_res =   7.46793320651906E-08
(PID.TID 0000.0001) // =======================================================
(PID.TID 0000.0001) // Begin MONITOR dynamic field statistics
(PID.TID 0000.0001) // =======================================================
(PID.TID 0000.0001) %MON time_tsnumber                =                    10
(PID.TID 0000.0001) %MON time_secondsf                =   1.0000000000000E+04
(PID.TID 0000.0001) %MON dynstat_eta_max              =   6.7016686313413E-01
(PID.TID 0000.0001) %MON dynstat_eta_min              =  -6.6309098073115E-01
(PID.TID 0000.0001) %MON dynstat_eta_mean             =  -1.5971857331202E-16
(PID.TID 0000.0001) %MON dynstat_eta_sd               =   4.1320550870572E-01
(PID.TID 0000.0001) %MON dynstat_eta_del2             =   4.4938307182827E-05
(PID.TID 0000.0001) %MON dynstat_uvel_max             =   2.1676240397297E-01
(PID.TID 0000.0001) %MON dynstat_uvel_min             =  -2.3782607551690E-02
(PID.TID 0000.0001) %MON dynstat_uvel_mean            =  -7.2264219527896E-03
(PID.TID 0000.0001) %MON dynstat_uvel_sd              =   1.0683577259278E-02
(PID.TID 0000.0001) %MON dynstat_uvel_del2            =   4.7701419725642E-06
(PID.TID 0000.0001) %MON dynstat_vvel_max             =   8.1064820003333E-02
(PID.TID 0000.0001) %MON dynstat_vvel_min             =  -4.1684198159942E-02
(PID.TID 0000.0001) %MON dynstat_vvel_mean            =  -2.7049983318425E-04
(PID.TID 0000.0001) %MON dynstat_vvel_sd              =   1.0359853169413E-02
(PID.TID 0000.0001) %MON dynstat_vvel_del2            =   2.2054995321656E-06
(PID.TID 0000.0001) %MON dynstat_wvel_max             =   3.1653077163738E-04
(PID.TID 0000.0001) %MON dynstat_wvel_min             =  -3.0936617521329E-04
(PID.TID 0000.0001) %MON dynstat_wvel_mean            =   0.0000000000000E+00
(PID.TID 0000.0001) %MON dynstat_wvel_sd              =   5.6810613166478E-05
(PID.TID 0000.0001) %MON dynstat_wvel_del2            =   2.3555935183614E-07
(PID.TID 0000.0001) %MON dynstat_theta_max            =   9.7769881436940E+00
(PID.TID 0000.0001) %MON dynstat_theta_min            =  -1.9999747795231E+00
(PID.TID 0000.0001) %MON dynstat_theta_mean           =  -1.1437190220426E+00
(PID.TID 0000.0001) %MON dynstat_theta_sd             =   1.6440279539586E+00
(PID.TID 0000.0001) %MON dynstat_theta_del2           =   7.4360633961081E-06
(PID.TID 0000.0001) %MON dynstat_salt_max             =   3.0000000000000E+01
(PID.TID 0000.0001) %MON dynstat_salt_min             =   3.0000000000000E+01
(PID.TID 0000.0001) %MON dynstat_salt_mean            =   2.9999999999999E+01
(PID.TID 0000.0001) %MON dynstat_salt_sd              =   1.4885870314174E-12
(PID.TID 0000.0001) %MON dynstat_salt_del2            =   0.0000000000000E+00
(PID.TID 0000.0001) %MON trAdv_CFL_u_max              =   4.3352209888629E-03
(PID.TID 0000.0001) %MON trAdv_CFL_v_max              =   7.1047231029419E-03
(PID.TID 0000.0001) %MON trAdv_CFL_w_max              =   7.1493762386189E-03
(PID.TID 0000.0001) %MON advcfl_uvel_max              =   4.3352480794594E-03
(PID.TID 0000.0001) %MON advcfl_vvel_max              =   1.6212964000667E-03
(PID.TID 0000.0001) %MON advcfl_wvel_max              =   4.5705341103785E-03
(PID.TID 0000.0001) %MON advcfl_W_hf_max              =   4.8542481084747E-03
(PID.TID 0000.0001) %MON pe_b_mean                    =   2.3460407148907E-04
(PID.TID 0000.0001) %MON ke_max                       =   2.6730995077549E-02
(PID.TID 0000.0001) %MON ke_mean                      =   1.3343190729594E-04
(PID.TID 0000.0001) %MON ke_vol                       =   6.9609783601763E+15
(PID.TID 0000.0001) %MON vort_r_min                   =  -8.8228621608783E-07
(PID.TID 0000.0001) %MON vort_r_max                   =   5.2633546681203E-07
(PID.TID 0000.0001) %MON vort_a_mean                  =  -1.2346576697050E-04
(PID.TID 0000.0001) %MON vort_a_sd                    =   7.4810390290680E-06
(PID.TID 0000.0001) %MON vort_p_mean                  =  -1.3321486297860E-04
(PID.TID 0000.0001) %MON vort_p_sd                    =   6.7447687284019E-05
(PID.TID 0000.0001) %MON surfExpan_theta_mean         =  -5.5877010049083E-06
(PID.TID 0000.0001) %MON surfExpan_salt_mean          =   1.3372836968838E-20
(PID.TID 0000.0001) // =======================================================
(PID.TID 0000.0001) // End MONITOR dynamic field statistics
(PID.TID 0000.0001) // =======================================================
(PID.TID 0000.0001) DIAGSTATS_CLOSE_IO: close file: dynStDiag.0000000000.txt , unit=     9
(PID.TID 0000.0001) %CHECKPOINT        10 ckptA
(PID.TID 0000.0001)   Seconds in section "ALL                    [THE_MODEL_MAIN]":
(PID.TID 0000.0001)           User time:   3.3070750930346549
(PID.TID 0000.0001)         System time:  0.11782099632546306
(PID.TID 0000.0001)     Wall clock time:   3.5383710861206055
(PID.TID 0000.0001)          No. starts:           1
(PID.TID 0000.0001)           No. stops:           1
(PID.TID 0000.0001)   Seconds in section "INITIALISE_FIXED       [THE_MODEL_MAIN]":
(PID.TID 0000.0001)           User time:   6.6993002779781818E-002
(PID.TID 0000.0001)         System time:   1.5445000957697630E-002
(PID.TID 0000.0001)     Wall clock time:  0.13219904899597168
(PID.TID 0000.0001)          No. starts:           1
(PID.TID 0000.0001)           No. stops:           1
(PID.TID 0000.0001)   Seconds in section "THE_MAIN_LOOP          [THE_MODEL_MAIN]":
(PID.TID 0000.0001)           User time:   3.2400509417057037
(PID.TID 0000.0001)         System time:  0.10235999710857868
(PID.TID 0000.0001)     Wall clock time:   3.4061329364776611
(PID.TID 0000.0001)          No. starts:           1
(PID.TID 0000.0001)           No. stops:           1
(PID.TID 0000.0001)   Seconds in section "INITIALISE_VARIA    [THE_MAIN_LOOP]":
(PID.TID 0000.0001)           User time:   6.7404009401798248E-002
(PID.TID 0000.0001)         System time:   2.5236999616026878E-002
(PID.TID 0000.0001)     Wall clock time:  0.11301112174987793
(PID.TID 0000.0001)          No. starts:           1
(PID.TID 0000.0001)           No. stops:           1
(PID.TID 0000.0001)   Seconds in section "MAIN LOOP           [THE_MAIN_LOOP]":
(PID.TID 0000.0001)           User time:   3.1726279854774475
(PID.TID 0000.0001)         System time:   7.7117998152971268E-002
(PID.TID 0000.0001)     Wall clock time:   3.2931010723114014
(PID.TID 0000.0001)          No. starts:           1
(PID.TID 0000.0001)           No. stops:           1
(PID.TID 0000.0001)   Seconds in section "MAIN_DO_LOOP        [THE_MAIN_LOOP]":
(PID.TID 0000.0001)           User time:   3.1725590974092484
(PID.TID 0000.0001)         System time:   7.7114995568990707E-002
(PID.TID 0000.0001)     Wall clock time:   3.2930300235748291
(PID.TID 0000.0001)          No. starts:          10
(PID.TID 0000.0001)           No. stops:          10
(PID.TID 0000.0001)   Seconds in section "FORWARD_STEP        [MAIN_DO_LOOP]":
(PID.TID 0000.0001)           User time:   3.1724329292774200
(PID.TID 0000.0001)         System time:   7.7111996710300446E-002
(PID.TID 0000.0001)     Wall clock time:   3.2929012775421143
(PID.TID 0000.0001)          No. starts:          10
(PID.TID 0000.0001)           No. stops:          10
(PID.TID 0000.0001)   Seconds in section "DO_STATEVARS_DIAGS  [FORWARD_STEP]":
(PID.TID 0000.0001)           User time:   4.0851280093193054E-002
(PID.TID 0000.0001)         System time:   7.9270005226135254E-003
(PID.TID 0000.0001)     Wall clock time:   4.8958539962768555E-002
(PID.TID 0000.0001)          No. starts:          30
(PID.TID 0000.0001)           No. stops:          30
(PID.TID 0000.0001)   Seconds in section "LOAD_FIELDS_DRIVER  [FORWARD_STEP]":
(PID.TID 0000.0001)           User time:   2.2900193929672241E-002
(PID.TID 0000.0001)         System time:   3.3240057528018951E-003
(PID.TID 0000.0001)     Wall clock time:   2.6691913604736328E-002
(PID.TID 0000.0001)          No. starts:          10
(PID.TID 0000.0001)           No. stops:          10
(PID.TID 0000.0001)   Seconds in section "EXTERNAL_FLDS_LOAD [LOAD_FLDS_DRIVER]":
(PID.TID 0000.0001)           User time:   6.4164400100708008E-005
(PID.TID 0000.0001)         System time:   1.0021030902862549E-006
(PID.TID 0000.0001)     Wall clock time:   6.6757202148437500E-005
(PID.TID 0000.0001)          No. starts:          10
(PID.TID 0000.0001)           No. stops:          10
(PID.TID 0000.0001)   Seconds in section "RBCS_FIELDS_LOAD      [I/O]":
(PID.TID 0000.0001)           User time:   2.2634699940681458E-002
(PID.TID 0000.0001)         System time:   3.3200047910213470E-003
(PID.TID 0000.0001)     Wall clock time:   2.6426076889038086E-002
(PID.TID 0000.0001)          No. starts:          10
(PID.TID 0000.0001)           No. stops:          10
(PID.TID 0000.0001)   Seconds in section "DO_ATMOSPHERIC_PHYS [FORWARD_STEP]":
(PID.TID 0000.0001)           User time:   6.3866376876831055E-005
(PID.TID 0000.0001)         System time:   2.0004808902740479E-006
(PID.TID 0000.0001)     Wall clock time:   6.7949295043945312E-005
(PID.TID 0000.0001)          No. starts:          10
(PID.TID 0000.0001)           No. stops:          10
(PID.TID 0000.0001)   Seconds in section "DO_OCEANIC_PHYS     [FORWARD_STEP]":
(PID.TID 0000.0001)           User time:  0.56216990947723389
(PID.TID 0000.0001)         System time:   5.6030042469501495E-003
(PID.TID 0000.0001)     Wall clock time:  0.56923413276672363
(PID.TID 0000.0001)          No. starts:          10
(PID.TID 0000.0001)           No. stops:          10
(PID.TID 0000.0001)   Seconds in section "DYNAMICS            [FORWARD_STEP]":
(PID.TID 0000.0001)           User time:  0.81340718269348145
(PID.TID 0000.0001)         System time:   1.0417997837066650E-002
(PID.TID 0000.0001)     Wall clock time:  0.82616424560546875
(PID.TID 0000.0001)          No. starts:          10
(PID.TID 0000.0001)           No. stops:          10
(PID.TID 0000.0001)   Seconds in section "SOLVE_FOR_PRESSURE  [FORWARD_STEP]":
(PID.TID 0000.0001)           User time:   5.2090048789978027E-002
(PID.TID 0000.0001)         System time:   4.0759965777397156E-003
(PID.TID 0000.0001)     Wall clock time:   5.6329965591430664E-002
(PID.TID 0000.0001)          No. starts:          10
(PID.TID 0000.0001)           No. stops:          10
(PID.TID 0000.0001)   Seconds in section "MOM_CORRECTION_STEP [FORWARD_STEP]":
(PID.TID 0000.0001)           User time:   2.9357284307479858E-002
(PID.TID 0000.0001)         System time:   4.0510036051273346E-003
(PID.TID 0000.0001)     Wall clock time:   3.3506393432617188E-002
(PID.TID 0000.0001)          No. starts:          10
(PID.TID 0000.0001)           No. stops:          10
(PID.TID 0000.0001)   Seconds in section "INTEGR_CONTINUITY   [FORWARD_STEP]":
(PID.TID 0000.0001)           User time:   3.3199727535247803E-002
(PID.TID 0000.0001)         System time:   1.9930005073547363E-003
(PID.TID 0000.0001)     Wall clock time:   3.5295009613037109E-002
(PID.TID 0000.0001)          No. starts:          10
(PID.TID 0000.0001)           No. stops:          10
(PID.TID 0000.0001)   Seconds in section "BLOCKING_EXCHANGES  [FORWARD_STEP]":
(PID.TID 0000.0001)           User time:   3.1274110078811646E-002
(PID.TID 0000.0001)         System time:   1.0429993271827698E-003
(PID.TID 0000.0001)     Wall clock time:   3.2412528991699219E-002
(PID.TID 0000.0001)          No. starts:          20
(PID.TID 0000.0001)           No. stops:          20
(PID.TID 0000.0001)   Seconds in section "THERMODYNAMICS      [FORWARD_STEP]":
(PID.TID 0000.0001)           User time:  0.89248925447463989
(PID.TID 0000.0001)         System time:   2.5825001299381256E-002
(PID.TID 0000.0001)     Wall clock time:  0.92090821266174316
(PID.TID 0000.0001)          No. starts:          10
(PID.TID 0000.0001)           No. stops:          10
(PID.TID 0000.0001)   Seconds in section "TRC_CORRECTION_STEP [FORWARD_STEP]":
(PID.TID 0000.0001)           User time:   6.6876411437988281E-005
(PID.TID 0000.0001)         System time:   1.9967555999755859E-006
(PID.TID 0000.0001)     Wall clock time:   6.7949295043945312E-005
(PID.TID 0000.0001)          No. starts:          10
(PID.TID 0000.0001)           No. stops:          10
(PID.TID 0000.0001)   Seconds in section "MONITOR             [FORWARD_STEP]":
(PID.TID 0000.0001)           User time:  0.14470613002777100
(PID.TID 0000.0001)         System time:   1.9080005586147308E-003
(PID.TID 0000.0001)     Wall clock time:  0.14700961112976074
(PID.TID 0000.0001)          No. starts:          10
(PID.TID 0000.0001)           No. stops:          10
(PID.TID 0000.0001)   Seconds in section "DO_THE_MODEL_IO     [FORWARD_STEP]":
(PID.TID 0000.0001)           User time:  0.54288491606712341
(PID.TID 0000.0001)         System time:   6.8700015544891357E-003
(PID.TID 0000.0001)     Wall clock time:  0.56959581375122070
(PID.TID 0000.0001)          No. starts:          10
(PID.TID 0000.0001)           No. stops:          10
(PID.TID 0000.0001)   Seconds in section "DO_WRITE_PICKUP     [FORWARD_STEP]":
(PID.TID 0000.0001)           User time:   5.6396722793579102E-003
(PID.TID 0000.0001)         System time:   4.0399990975856781E-003
(PID.TID 0000.0001)     Wall clock time:   2.5406360626220703E-002
(PID.TID 0000.0001)          No. starts:          10
(PID.TID 0000.0001)           No. stops:          10
(PID.TID 0000.0001) // ======================================================
(PID.TID 0000.0001) // Tile <-> Tile communication statistics
(PID.TID 0000.0001) // ======================================================
(PID.TID 0000.0001) // o Tile number: 000001
(PID.TID 0000.0001) //         No. X exchanges =              0
(PID.TID 0000.0001) //            Max. X spins =              0
(PID.TID 0000.0001) //            Min. X spins =     1000000000
(PID.TID 0000.0001) //          Total. X spins =              0
(PID.TID 0000.0001) //            Avg. X spins =       0.00E+00
(PID.TID 0000.0001) //         No. Y exchanges =              0
(PID.TID 0000.0001) //            Max. Y spins =              0
(PID.TID 0000.0001) //            Min. Y spins =     1000000000
(PID.TID 0000.0001) //          Total. Y spins =              0
(PID.TID 0000.0001) //            Avg. Y spins =       0.00E+00
(PID.TID 0000.0001) // o Tile number: 000002
(PID.TID 0000.0001) //         No. X exchanges =              0
(PID.TID 0000.0001) //            Max. X spins =              0
(PID.TID 0000.0001) //            Min. X spins =     1000000000
(PID.TID 0000.0001) //          Total. X spins =              0
(PID.TID 0000.0001) //            Avg. X spins =       0.00E+00
(PID.TID 0000.0001) //         No. Y exchanges =              0
(PID.TID 0000.0001) //            Max. Y spins =              0
(PID.TID 0000.0001) //            Min. Y spins =     1000000000
(PID.TID 0000.0001) //          Total. Y spins =              0
(PID.TID 0000.0001) //            Avg. Y spins =       0.00E+00
(PID.TID 0000.0001) // o Tile number: 000003
(PID.TID 0000.0001) //         No. X exchanges =              0
(PID.TID 0000.0001) //            Max. X spins =              0
(PID.TID 0000.0001) //            Min. X spins =     1000000000
(PID.TID 0000.0001) //          Total. X spins =              0
(PID.TID 0000.0001) //            Avg. X spins =       0.00E+00
(PID.TID 0000.0001) //         No. Y exchanges =              0
(PID.TID 0000.0001) //            Max. Y spins =              0
(PID.TID 0000.0001) //            Min. Y spins =     1000000000
(PID.TID 0000.0001) //          Total. Y spins =              0
(PID.TID 0000.0001) //            Avg. Y spins =       0.00E+00
(PID.TID 0000.0001) // o Tile number: 000004
(PID.TID 0000.0001) //         No. X exchanges =              0
(PID.TID 0000.0001) //            Max. X spins =              0
(PID.TID 0000.0001) //            Min. X spins =     1000000000
(PID.TID 0000.0001) //          Total. X spins =              0
(PID.TID 0000.0001) //            Avg. X spins =       0.00E+00
(PID.TID 0000.0001) //         No. Y exchanges =              0
(PID.TID 0000.0001) //            Max. Y spins =              0
(PID.TID 0000.0001) //            Min. Y spins =     1000000000
(PID.TID 0000.0001) //          Total. Y spins =              0
(PID.TID 0000.0001) //            Avg. Y spins =       0.00E+00
(PID.TID 0000.0001) // o Thread number: 000001
(PID.TID 0000.0001) //            No. barriers =           3990
(PID.TID 0000.0001) //      Max. barrier spins =              1
(PID.TID 0000.0001) //      Min. barrier spins =              1
(PID.TID 0000.0001) //     Total barrier spins =           3990
(PID.TID 0000.0001) //      Avg. barrier spins =       1.00E+00
PROGRAM MAIN: Execution ended Normally
