(PID.TID 0000.0001) 
(PID.TID 0000.0001) // ======================================================
(PID.TID 0000.0001) //                      MITgcm UV
(PID.TID 0000.0001) //                      =========
(PID.TID 0000.0001) // ======================================================
(PID.TID 0000.0001) // execution environment starting up...
(PID.TID 0000.0001) 
(PID.TID 0000.0001) // MITgcmUV version:  checkpoint69b
(PID.TID 0000.0001) // Build user:        jm_c
(PID.TID 0000.0001) // Build host:        villon
(PID.TID 0000.0001) // Build date:        Mon Dec  2 16:13:04 EST 2024
(PID.TID 0000.0001) 
(PID.TID 0000.0001) // =======================================================
(PID.TID 0000.0001) // Execution Environment parameter file "eedata"
(PID.TID 0000.0001) // =======================================================
(PID.TID 0000.0001) ># Example "eedata" file
(PID.TID 0000.0001) ># Lines beginning "#" are comments
(PID.TID 0000.0001) ># nTx - No. threads per process in X
(PID.TID 0000.0001) ># nTy - No. threads per process in Y
(PID.TID 0000.0001) > &EEPARMS
(PID.TID 0000.0001) > /
(PID.TID 0000.0001) ># Note: Some systems use & as the namelist terminator (as shown here).
(PID.TID 0000.0001) >#       Other systems use a / character.
(PID.TID 0000.0001) 
(PID.TID 0000.0001) // =======================================================
(PID.TID 0000.0001) // Computational Grid Specification ( see files "SIZE.h" )
(PID.TID 0000.0001) //                                  ( and "eedata"       )
(PID.TID 0000.0001) // =======================================================
(PID.TID 0000.0001)      nPx =    1 ; /* No. processes in X */
(PID.TID 0000.0001)      nPy =    1 ; /* No. processes in Y */
(PID.TID 0000.0001)      nSx =    4 ; /* No. tiles in X per process */
(PID.TID 0000.0001)      nSy =    1 ; /* No. tiles in Y per process */
(PID.TID 0000.0001)      sNx =   13 ; /* Tile size in X */
(PID.TID 0000.0001)      sNy =    1 ; /* Tile size in Y */
(PID.TID 0000.0001)      OLx =    2 ; /* Tile overlap distance in X */
(PID.TID 0000.0001)      OLy =    2 ; /* Tile overlap distance in Y */
(PID.TID 0000.0001)      nTx =    1 ; /* No. threads in X per process */
(PID.TID 0000.0001)      nTy =    1 ; /* No. threads in Y per process */
(PID.TID 0000.0001)       Nr =   50 ; /* No. levels in the vertical   */
(PID.TID 0000.0001)       Nx =   52 ; /* Total domain size in X ( = nPx*nSx*sNx ) */
(PID.TID 0000.0001)       Ny =    1 ; /* Total domain size in Y ( = nPy*nSy*sNy ) */
(PID.TID 0000.0001)   nTiles =    4 ; /* Total no. tiles per process ( = nSx*nSy ) */
(PID.TID 0000.0001)   nProcs =    1 ; /* Total no. processes ( = nPx*nPy ) */
(PID.TID 0000.0001) nThreads =    1 ; /* Total no. threads per process ( = nTx*nTy ) */
(PID.TID 0000.0001) usingMPI =    F ; /* Flag used to control whether MPI is in use */
(PID.TID 0000.0001)                   /*  note: To execute a program with MPI calls */
(PID.TID 0000.0001)                   /*  it must be launched appropriately e.g     */
(PID.TID 0000.0001)                   /*  "mpirun -np 64 ......"                    */
(PID.TID 0000.0001) useCoupler=   F ; /* Flag used to control communications with   */
(PID.TID 0000.0001)                   /*  other model components, through a coupler */
(PID.TID 0000.0001) useNest2W_parent =    F ;/* Control 2-W Nesting comm */
(PID.TID 0000.0001) useNest2W_child  =    F ;/* Control 2-W Nesting comm */
(PID.TID 0000.0001) debugMode =    F ; /* print debug msg. (sequence of S/R calls)  */
(PID.TID 0000.0001) printMapIncludesZeros=    F ; /* print zeros in Std.Output maps */
(PID.TID 0000.0001) maxLengthPrt1D=   65 /* maxLength of 1D array printed to StdOut */
(PID.TID 0000.0001) 
(PID.TID 0000.0001) // ======================================================
(PID.TID 0000.0001) // Mapping of tiles to threads
(PID.TID 0000.0001) // ======================================================
(PID.TID 0000.0001) // -o- Thread   1, tiles (   1:   4,   1:   1)
(PID.TID 0000.0001) 
(PID.TID 0000.0001) // ======================================================
(PID.TID 0000.0001) // Tile <-> Tile connectvity table
(PID.TID 0000.0001) // ======================================================
(PID.TID 0000.0001) // Tile number: 000001 (process no. = 000000)
(PID.TID 0000.0001) //        WEST: Tile = 000004, Process = 000000, Comm = put
(PID.TID 0000.0001) //                bi = 000004, bj = 000001
(PID.TID 0000.0001) //        EAST: Tile = 000002, Process = 000000, Comm = put
(PID.TID 0000.0001) //                bi = 000002, bj = 000001
(PID.TID 0000.0001) //       SOUTH: Tile = 000001, Process = 000000, Comm = put
(PID.TID 0000.0001) //                bi = 000001, bj = 000001
(PID.TID 0000.0001) //       NORTH: Tile = 000001, Process = 000000, Comm = put
(PID.TID 0000.0001) //                bi = 000001, bj = 000001
(PID.TID 0000.0001) // Tile number: 000002 (process no. = 000000)
(PID.TID 0000.0001) //        WEST: Tile = 000001, Process = 000000, Comm = put
(PID.TID 0000.0001) //                bi = 000001, bj = 000001
(PID.TID 0000.0001) //        EAST: Tile = 000003, Process = 000000, Comm = put
(PID.TID 0000.0001) //                bi = 000003, bj = 000001
(PID.TID 0000.0001) //       SOUTH: Tile = 000002, Process = 000000, Comm = put
(PID.TID 0000.0001) //                bi = 000002, bj = 000001
(PID.TID 0000.0001) //       NORTH: Tile = 000002, Process = 000000, Comm = put
(PID.TID 0000.0001) //                bi = 000002, bj = 000001
(PID.TID 0000.0001) // Tile number: 000003 (process no. = 000000)
(PID.TID 0000.0001) //        WEST: Tile = 000002, Process = 000000, Comm = put
(PID.TID 0000.0001) //                bi = 000002, bj = 000001
(PID.TID 0000.0001) //        EAST: Tile = 000004, Process = 000000, Comm = put
(PID.TID 0000.0001) //                bi = 000004, bj = 000001
(PID.TID 0000.0001) //       SOUTH: Tile = 000003, Process = 000000, Comm = put
(PID.TID 0000.0001) //                bi = 000003, bj = 000001
(PID.TID 0000.0001) //       NORTH: Tile = 000003, Process = 000000, Comm = put
(PID.TID 0000.0001) //                bi = 000003, bj = 000001
(PID.TID 0000.0001) // Tile number: 000004 (process no. = 000000)
(PID.TID 0000.0001) //        WEST: Tile = 000003, Process = 000000, Comm = put
(PID.TID 0000.0001) //                bi = 000003, bj = 000001
(PID.TID 0000.0001) //        EAST: Tile = 000001, Process = 000000, Comm = put
(PID.TID 0000.0001) //                bi = 000001, bj = 000001
(PID.TID 0000.0001) //       SOUTH: Tile = 000004, Process = 000000, Comm = put
(PID.TID 0000.0001) //                bi = 000004, bj = 000001
(PID.TID 0000.0001) //       NORTH: Tile = 000004, Process = 000000, Comm = put
(PID.TID 0000.0001) //                bi = 000004, bj = 000001
(PID.TID 0000.0001) 
(PID.TID 0000.0001)  INI_PARMS: opening model parameter file "data"
(PID.TID 0000.0001)  OPEN_COPY_DATA_FILE: opening file data
(PID.TID 0000.0001) // =======================================================
(PID.TID 0000.0001) // Parameter file "data"
(PID.TID 0000.0001) // =======================================================
(PID.TID 0000.0001) ># ====================
(PID.TID 0000.0001) ># | Model parameters |
(PID.TID 0000.0001) ># ====================
(PID.TID 0000.0001) >#
(PID.TID 0000.0001) ># Continuous equation parameters
(PID.TID 0000.0001) > &PARM01
(PID.TID 0000.0001) > Tref= 50*10.,
(PID.TID 0000.0001) > sRef= 50*35.,
(PID.TID 0000.0001) > viscAr=1.E-6,
(PID.TID 0000.0001) > viscAh=1.E-6,
(PID.TID 0000.0001) > no_slip_sides=.FALSE.,
(PID.TID 0000.0001) > no_slip_bottom=.FALSE.,
(PID.TID 0000.0001) > f0=0.0,
(PID.TID 0000.0001) > beta=0.E-11,
(PID.TID 0000.0001) > eosType='LINEAR',
(PID.TID 0000.0001) > tAlpha=0.E-4,
(PID.TID 0000.0001) > sBeta =0.E-4,
(PID.TID 0000.0001) > gravity=10.,
(PID.TID 0000.0001) > implicitFreeSurface=.TRUE.,
(PID.TID 0000.0001) > exactConserv=.TRUE.
(PID.TID 0000.0001) > implicSurfPress=0.5,
(PID.TID 0000.0001) > implicDiv2DFlow=0.5,
(PID.TID 0000.0001) > nonHydrostatic=.TRUE.,
(PID.TID 0000.0001) > selectNHfreeSurf=1,
(PID.TID 0000.0001) > saltStepping=.FALSE.,
(PID.TID 0000.0001) > tempStepping=.FALSE.,
(PID.TID 0000.0001) > hFacMin=0.2,
(PID.TID 0000.0001) > readBinaryPrec=64,
(PID.TID 0000.0001) > writeBinaryPrec=64,
(PID.TID 0000.0001) > /
(PID.TID 0000.0001) >
(PID.TID 0000.0001) ># Elliptic solver parameters
(PID.TID 0000.0001) > &PARM02
(PID.TID 0000.0001) > cg2dMaxIters=100,
(PID.TID 0000.0001) > cg3dMaxIters=200,
(PID.TID 0000.0001) >#cg2dTargetResidual=1.E-13,
(PID.TID 0000.0001) >#cg3dTargetResidual=1.E-11,
(PID.TID 0000.0001) > cg2dTargetResWunit=6.0E-14,
(PID.TID 0000.0001) > cg3dTargetResWunit=1.5E-17,
(PID.TID 0000.0001) > /
(PID.TID 0000.0001) >
(PID.TID 0000.0001) ># Time stepping parameters
(PID.TID 0000.0001) > &PARM03
(PID.TID 0000.0001) > nIter0=0,
(PID.TID 0000.0001) >#endTime=20.,
(PID.TID 0000.0001) > nTimeSteps=12,
(PID.TID 0000.0001) > deltaT=5.e-3,
(PID.TID 0000.0001) > alph_AB=0.5,
(PID.TID 0000.0001) > beta_AB=0.281105,
(PID.TID 0000.0001) > momDissip_In_AB=.FALSE.,
(PID.TID 0000.0001) > pChkptFreq=0.0,
(PID.TID 0000.0001) > chkptFreq=0.0,
(PID.TID 0000.0001) > dumpFreq=5.0,
(PID.TID 0000.0001) > monitorFreq=0.2,
(PID.TID 0000.0001) > monitorSelect=1,
(PID.TID 0000.0001) > monitorFreq=0.005,
(PID.TID 0000.0001) > /
(PID.TID 0000.0001) >
(PID.TID 0000.0001) ># Gridding parameters
(PID.TID 0000.0001) > &PARM04
(PID.TID 0000.0001) > usingCartesianGrid=.TRUE.,
(PID.TID 0000.0001) > delX=52*0.2,
(PID.TID 0000.0001) > delY= 1*0.2,
(PID.TID 0000.0001) > delR=50*0.2,
(PID.TID 0000.0001) > /
(PID.TID 0000.0001) >
(PID.TID 0000.0001) ># Input datasets
(PID.TID 0000.0001) > &PARM05
(PID.TID 0000.0001) > pSurfInitFile='Eta_ini.bin',
(PID.TID 0000.0001) > bathyFile  ='topo_flat.bin',
(PID.TID 0000.0001) > /
(PID.TID 0000.0001) 
(PID.TID 0000.0001)  INI_PARMS ; starts to read PARM01
(PID.TID 0000.0001)  INI_PARMS ; read PARM01 : OK
(PID.TID 0000.0001)  INI_PARMS ; starts to read PARM02
(PID.TID 0000.0001)  INI_PARMS ; read PARM02 : OK
(PID.TID 0000.0001)  INI_PARMS ; starts to read PARM03
(PID.TID 0000.0001)  INI_PARMS ; read PARM03 : OK
(PID.TID 0000.0001)  INI_PARMS ; starts to read PARM04
(PID.TID 0000.0001)  INI_PARMS ; read PARM04 : OK
(PID.TID 0000.0001)  INI_PARMS ; starts to read PARM05
(PID.TID 0000.0001)  INI_PARMS ; read PARM05 : OK
(PID.TID 0000.0001)  INI_PARMS: finished reading file "data"
(PID.TID 0000.0001)  PACKAGES_BOOT: opening data.pkg
(PID.TID 0000.0001)  OPEN_COPY_DATA_FILE: opening file data.pkg
(PID.TID 0000.0001) // =======================================================
(PID.TID 0000.0001) // Parameter file "data.pkg"
(PID.TID 0000.0001) // =======================================================
(PID.TID 0000.0001) ># Packages
(PID.TID 0000.0001) > &PACKAGES
(PID.TID 0000.0001) > useDiagnostics=.TRUE.,
(PID.TID 0000.0001) > /
(PID.TID 0000.0001) 
(PID.TID 0000.0001)  PACKAGES_BOOT: finished reading data.pkg
(PID.TID 0000.0001)  PACKAGES_BOOT: On/Off package Summary
 --------  pkgs with a standard "usePKG" On/Off switch in "data.pkg":  --------
 pkg/diagnostics          compiled   and   used ( useDiagnostics           = T )
 -------- pkgs without standard "usePKG" On/Off switch in "data.pkg":  --------
 pkg/generic_advdiff      compiled but not used ( useGAD                   = F )
 pkg/mom_common           compiled   and   used ( momStepping              = T )
 pkg/mom_vecinv           compiled but not used ( +vectorInvariantMomentum = F )
 pkg/mom_fluxform         compiled   and   used ( & not vectorInvariantMom = T )
 pkg/monitor              compiled   and   used ( monitorFreq > 0.         = T )
 pkg/debug                compiled but not used ( debugMode                = F )
 pkg/rw                   compiled   and   used
 pkg/mdsio                compiled   and   used
(PID.TID 0000.0001)  PACKAGES_BOOT: End of package Summary
(PID.TID 0000.0001) 
(PID.TID 0000.0001)  DIAGNOSTICS_READPARMS: opening data.diagnostics
(PID.TID 0000.0001)  OPEN_COPY_DATA_FILE: opening file data.diagnostics
(PID.TID 0000.0001) // =======================================================
(PID.TID 0000.0001) // Parameter file "data.diagnostics"
(PID.TID 0000.0001) // =======================================================
(PID.TID 0000.0001) ># Diagnostic Package Choices
(PID.TID 0000.0001) >#--------------------
(PID.TID 0000.0001) >#  dumpAtLast (logical): always write output at the end of simulation (default=F)
(PID.TID 0000.0001) >#  diag_mnc   (logical): write to NetCDF files (default=useMNC)
(PID.TID 0000.0001) >#--for each output-stream:
(PID.TID 0000.0001) >#  fileName(n) : prefix of the output file name (max 80c long) for outp.stream n
(PID.TID 0000.0001) >#  frequency(n):< 0 : write snap-shot output every |frequency| seconds
(PID.TID 0000.0001) >#               > 0 : write time-average output every frequency seconds
(PID.TID 0000.0001) >#  timePhase(n)     : write at time = timePhase + multiple of |frequency|
(PID.TID 0000.0001) >#    averagingFreq  : frequency (in s) for periodic averaging interval
(PID.TID 0000.0001) >#    averagingPhase : phase     (in s) for periodic averaging interval
(PID.TID 0000.0001) >#    repeatCycle    : number of averaging intervals in 1 cycle
(PID.TID 0000.0001) >#  levels(:,n) : list of levels to write to file (Notes: declared as REAL)
(PID.TID 0000.0001) >#                when this entry is missing, select all common levels of this list
(PID.TID 0000.0001) >#  fields(:,n) : list of selected diagnostics fields (8.c) in outp.stream n
(PID.TID 0000.0001) >#                (see "available_diagnostics.log" file for the full list of diags)
(PID.TID 0000.0001) >#  missing_value(n) : missing value for real-type fields in output file "n"
(PID.TID 0000.0001) >#  fileFlags(n)     : specific code (8c string) for output file "n"
(PID.TID 0000.0001) >#--------------------
(PID.TID 0000.0001) > &DIAGNOSTICS_LIST
(PID.TID 0000.0001) ># diag_mnc     = .FALSE.,
(PID.TID 0000.0001) >#--
(PID.TID 0000.0001) >  fields(1:3,1)  = 'ETAN    ','ETANSQ  ','DETADT2 ',
(PID.TID 0000.0001) >   fileName(1) = 'surfDiag',
(PID.TID 0000.0001) >  frequency(1) = -0.25,
(PID.TID 0000.0001) >  timePhase(1) = 0.,
(PID.TID 0000.0001) > /
(PID.TID 0000.0001) >
(PID.TID 0000.0001) >#--------------------
(PID.TID 0000.0001) ># Parameter for Diagnostics of per level statistics:
(PID.TID 0000.0001) >#--------------------
(PID.TID 0000.0001) >#  diagSt_mnc (logical): write stat-diags to NetCDF files (default=diag_mnc)
(PID.TID 0000.0001) >#  diagSt_regMaskFile : file containing the region-mask to read-in
(PID.TID 0000.0001) >#  nSetRegMskFile   : number of region-mask sets within the region-mask file
(PID.TID 0000.0001) >#  set_regMask(i)   : region-mask set-index that identifies the region "i"
(PID.TID 0000.0001) >#  val_regMask(i)   : region "i" identifier value in the region mask
(PID.TID 0000.0001) >#--for each output-stream:
(PID.TID 0000.0001) >#  stat_fName(n) : prefix of the output file name (max 80c long) for outp.stream n
(PID.TID 0000.0001) >#  stat_freq(n):< 0 : write snap-shot output every |stat_freq| seconds
(PID.TID 0000.0001) >#               > 0 : write time-average output every stat_freq seconds
(PID.TID 0000.0001) >#  stat_phase(n)    : write at time = stat_phase + multiple of |stat_freq|
(PID.TID 0000.0001) >#  stat_region(:,n) : list of "regions" (default: 1 region only=global)
(PID.TID 0000.0001) >#  stat_fields(:,n) : list of selected diagnostics fields (8.c) in outp.stream n
(PID.TID 0000.0001) >#                (see "available_diagnostics.log" file for the full list of diags)
(PID.TID 0000.0001) >#--------------------
(PID.TID 0000.0001) > &DIAG_STATIS_PARMS
(PID.TID 0000.0001) > stat_fields(1:5,1)  = 'ETAN    ','ETANSQ  ','DETADT2 ',
(PID.TID 0000.0001) >                       'UVEL    ','WVEL    ',
(PID.TID 0000.0001) >  stat_fName(1) = 'dynStDiag',
(PID.TID 0000.0001) >   stat_freq(1) = -0.1,
(PID.TID 0000.0001) >  stat_phase(1) = 0.,
(PID.TID 0000.0001) > /
(PID.TID 0000.0001) >
(PID.TID 0000.0001) 
(PID.TID 0000.0001) S/R DIAGNOSTICS_READPARMS, read namelist "diagnostics_list": start
(PID.TID 0000.0001) S/R DIAGNOSTICS_READPARMS, read namelist "diagnostics_list": OK
(PID.TID 0000.0001) S/R DIAGNOSTICS_READPARMS, read namelist "DIAG_STATIS_PARMS": start
(PID.TID 0000.0001) S/R DIAGNOSTICS_READPARMS, read namelist "DIAG_STATIS_PARMS": OK
(PID.TID 0000.0001) -----------------------------------------------------
(PID.TID 0000.0001)  DIAGNOSTICS_READPARMS: global parameter summary:
(PID.TID 0000.0001)  diag_dBugLevel = /* level of printed debug messages */
(PID.TID 0000.0001)                       2
(PID.TID 0000.0001)     ;
(PID.TID 0000.0001)  dumpAtLast = /* always write time-ave diags at the end */
(PID.TID 0000.0001)                   F
(PID.TID 0000.0001)     ;
(PID.TID 0000.0001)  diag_mnc =   /* write NetCDF output files */
(PID.TID 0000.0001)                   F
(PID.TID 0000.0001)     ;
(PID.TID 0000.0001)  useMissingValue = /* put MissingValue where mask = 0 */
(PID.TID 0000.0001)                   F
(PID.TID 0000.0001)     ;
(PID.TID 0000.0001)  diagCG_maxIters = /* max number of iters in diag_cg2d */
(PID.TID 0000.0001)                     100
(PID.TID 0000.0001)     ;
(PID.TID 0000.0001)  diagCG_resTarget = /* residual target for diag_cg2d */
(PID.TID 0000.0001)                 1.000000000000000E-07
(PID.TID 0000.0001)     ;
(PID.TID 0000.0001)  diagCG_pcOffDFac = /* preconditioner off-diagonal factor */
(PID.TID 0000.0001)                 9.611687812379854E-01
(PID.TID 0000.0001)     ;
(PID.TID 0000.0001) -----------------------------------------------------
(PID.TID 0000.0001)  DIAGNOSTICS_READPARMS: active diagnostics summary:
(PID.TID 0000.0001) -----------------------------------------------------
(PID.TID 0000.0001) Creating Output Stream: surfDiag
(PID.TID 0000.0001) Output Frequency:         -0.250000 ; Phase:           0.000000
(PID.TID 0000.0001)  Averaging Freq.:          0.000000 , Phase:           0.000000 , Cycle:   1
(PID.TID 0000.0001)  missing value: -9.990000000000E+02
(PID.TID 0000.0001)  Levels:    will be set later
(PID.TID 0000.0001)  Fields:    ETAN     ETANSQ   DETADT2
(PID.TID 0000.0001) -----------------------------------------------------
(PID.TID 0000.0001)  DIAGNOSTICS_READPARMS: statistics diags. summary:
(PID.TID 0000.0001) Creating Stats. Output Stream: dynStDiag
(PID.TID 0000.0001) Output Frequency:         -0.100000 ; Phase:           0.000000
(PID.TID 0000.0001)  Regions:   0
(PID.TID 0000.0001)  Fields:    ETAN     ETANSQ   DETADT2  UVEL     WVEL
(PID.TID 0000.0001) -----------------------------------------------------
(PID.TID 0000.0001) 
(PID.TID 0000.0001) SET_PARMS: done
(PID.TID 0000.0001) Enter INI_VERTICAL_GRID: setInterFDr=    T ; setCenterDr=    F
(PID.TID 0000.0001) %MON XC_max                       =   1.0300000000000E+01
(PID.TID 0000.0001) %MON XC_min                       =   1.0000000000000E-01
(PID.TID 0000.0001) %MON XC_mean                      =   5.2000000000000E+00
(PID.TID 0000.0001) %MON XC_sd                        =   3.0016662039607E+00
(PID.TID 0000.0001) %MON XG_max                       =   1.0200000000000E+01
(PID.TID 0000.0001) %MON XG_min                       =   0.0000000000000E+00
(PID.TID 0000.0001) %MON XG_mean                      =   5.1000000000000E+00
(PID.TID 0000.0001) %MON XG_sd                        =   3.0016662039607E+00
(PID.TID 0000.0001) %MON DXC_max                      =   2.0000000000000E-01
(PID.TID 0000.0001) %MON DXC_min                      =   2.0000000000000E-01
(PID.TID 0000.0001) %MON DXC_mean                     =   2.0000000000000E-01
(PID.TID 0000.0001) %MON DXC_sd                       =   0.0000000000000E+00
(PID.TID 0000.0001) %MON DXF_max                      =   2.0000000000000E-01
(PID.TID 0000.0001) %MON DXF_min                      =   2.0000000000000E-01
(PID.TID 0000.0001) %MON DXF_mean                     =   2.0000000000000E-01
(PID.TID 0000.0001) %MON DXF_sd                       =   0.0000000000000E+00
(PID.TID 0000.0001) %MON DXG_max                      =   2.0000000000000E-01
(PID.TID 0000.0001) %MON DXG_min                      =   2.0000000000000E-01
(PID.TID 0000.0001) %MON DXG_mean                     =   2.0000000000000E-01
(PID.TID 0000.0001) %MON DXG_sd                       =   0.0000000000000E+00
(PID.TID 0000.0001) %MON DXV_max                      =   2.0000000000000E-01
(PID.TID 0000.0001) %MON DXV_min                      =   2.0000000000000E-01
(PID.TID 0000.0001) %MON DXV_mean                     =   2.0000000000000E-01
(PID.TID 0000.0001) %MON DXV_sd                       =   0.0000000000000E+00
(PID.TID 0000.0001) %MON YC_max                       =   1.0000000000000E-01
(PID.TID 0000.0001) %MON YC_min                       =   1.0000000000000E-01
(PID.TID 0000.0001) %MON YC_mean                      =   1.0000000000000E-01
(PID.TID 0000.0001) %MON YC_sd                        =   0.0000000000000E+00
(PID.TID 0000.0001) %MON YG_max                       =   0.0000000000000E+00
(PID.TID 0000.0001) %MON YG_min                       =   0.0000000000000E+00
(PID.TID 0000.0001) %MON YG_mean                      =   0.0000000000000E+00
(PID.TID 0000.0001) %MON YG_sd                        =   0.0000000000000E+00
(PID.TID 0000.0001) %MON DYC_max                      =   2.0000000000000E-01
(PID.TID 0000.0001) %MON DYC_min                      =   2.0000000000000E-01
(PID.TID 0000.0001) %MON DYC_mean                     =   2.0000000000000E-01
(PID.TID 0000.0001) %MON DYC_sd                       =   0.0000000000000E+00
(PID.TID 0000.0001) %MON DYF_max                      =   2.0000000000000E-01
(PID.TID 0000.0001) %MON DYF_min                      =   2.0000000000000E-01
(PID.TID 0000.0001) %MON DYF_mean                     =   2.0000000000000E-01
(PID.TID 0000.0001) %MON DYF_sd                       =   0.0000000000000E+00
(PID.TID 0000.0001) %MON DYG_max                      =   2.0000000000000E-01
(PID.TID 0000.0001) %MON DYG_min                      =   2.0000000000000E-01
(PID.TID 0000.0001) %MON DYG_mean                     =   2.0000000000000E-01
(PID.TID 0000.0001) %MON DYG_sd                       =   0.0000000000000E+00
(PID.TID 0000.0001) %MON DYU_max                      =   2.0000000000000E-01
(PID.TID 0000.0001) %MON DYU_min                      =   2.0000000000000E-01
(PID.TID 0000.0001) %MON DYU_mean                     =   2.0000000000000E-01
(PID.TID 0000.0001) %MON DYU_sd                       =   0.0000000000000E+00
(PID.TID 0000.0001) %MON RA_max                       =   4.0000000000000E-02
(PID.TID 0000.0001) %MON RA_min                       =   4.0000000000000E-02
(PID.TID 0000.0001) %MON RA_mean                      =   4.0000000000000E-02
(PID.TID 0000.0001) %MON RA_sd                        =   1.3877787807814E-17
(PID.TID 0000.0001) %MON RAW_max                      =   4.0000000000000E-02
(PID.TID 0000.0001) %MON RAW_min                      =   4.0000000000000E-02
(PID.TID 0000.0001) %MON RAW_mean                     =   4.0000000000000E-02
(PID.TID 0000.0001) %MON RAW_sd                       =   1.3877787807814E-17
(PID.TID 0000.0001) %MON RAS_max                      =   4.0000000000000E-02
(PID.TID 0000.0001) %MON RAS_min                      =   4.0000000000000E-02
(PID.TID 0000.0001) %MON RAS_mean                     =   4.0000000000000E-02
(PID.TID 0000.0001) %MON RAS_sd                       =   1.3877787807814E-17
(PID.TID 0000.0001) %MON RAZ_max                      =   4.0000000000000E-02
(PID.TID 0000.0001) %MON RAZ_min                      =   4.0000000000000E-02
(PID.TID 0000.0001) %MON RAZ_mean                     =   4.0000000000000E-02
(PID.TID 0000.0001) %MON RAZ_sd                       =   1.3877787807814E-17
(PID.TID 0000.0001) %MON AngleCS_max                  =   1.0000000000000E+00
(PID.TID 0000.0001) %MON AngleCS_min                  =   1.0000000000000E+00
(PID.TID 0000.0001) %MON AngleCS_mean                 =   1.0000000000000E+00
(PID.TID 0000.0001) %MON AngleCS_sd                   =   0.0000000000000E+00
(PID.TID 0000.0001) %MON AngleSN_max                  =   0.0000000000000E+00
(PID.TID 0000.0001) %MON AngleSN_min                  =   0.0000000000000E+00
(PID.TID 0000.0001) %MON AngleSN_mean                 =   0.0000000000000E+00
(PID.TID 0000.0001) %MON AngleSN_sd                   =   0.0000000000000E+00
(PID.TID 0000.0001)  MDS_READ_FIELD: opening global file: topo_flat.bin
(PID.TID 0000.0001) // =======================================================
(PID.TID 0000.0001) // Field Model R_low (ini_masks_etc)
(PID.TID 0000.0001) // CMIN =         -9.999999999999996E+00
(PID.TID 0000.0001) // CMAX =         -9.999999999999996E+00
(PID.TID 0000.0001) // CINT =          0.000000000000000E+00
(PID.TID 0000.0001) // SYMBOLS (CMIN->CMAX): -abcdefghijklmnopqrstuvwxyz+
(PID.TID 0000.0001) //                  0.0: .
(PID.TID 0000.0001) // RANGE I (Lo:Hi:Step):(    -1:    54:     1)
(PID.TID 0000.0001) // RANGE J (Lo:Hi:Step):(     3:    -1:    -1)
(PID.TID 0000.0001) // RANGE K (Lo:Hi:Step):(   1:   1:   1)
(PID.TID 0000.0001) // =======================================================
(PID.TID 0000.0001) // =======================================================
(PID.TID 0000.0001) // END OF FIELD                                          =
(PID.TID 0000.0001) // =======================================================
(PID.TID 0000.0001) 
(PID.TID 0000.0001) // =======================================================
(PID.TID 0000.0001) // Field Model Ro_surf (ini_masks_etc)
(PID.TID 0000.0001) // CMIN =          1.000000000000000E+32
(PID.TID 0000.0001) // CMAX =         -1.000000000000000E+32
(PID.TID 0000.0001) // CINT =          0.000000000000000E+00
(PID.TID 0000.0001) // SYMBOLS (CMIN->CMAX): -abcdefghijklmnopqrstuvwxyz+
(PID.TID 0000.0001) //                  0.0: .
(PID.TID 0000.0001) // RANGE I (Lo:Hi:Step):(    -1:    54:     1)
(PID.TID 0000.0001) // RANGE J (Lo:Hi:Step):(     3:    -1:    -1)
(PID.TID 0000.0001) // RANGE K (Lo:Hi:Step):(   1:   1:   1)
(PID.TID 0000.0001) // =======================================================
(PID.TID 0000.0001) // =======================================================
(PID.TID 0000.0001) // END OF FIELD                                          =
(PID.TID 0000.0001) // =======================================================
(PID.TID 0000.0001) 
(PID.TID 0000.0001) // =======================================================
(PID.TID 0000.0001) // Field hFacC at iteration          0
(PID.TID 0000.0001) // CMIN =          1.000000000000000E+00
(PID.TID 0000.0001) // CMAX =          1.000000000000000E+00
(PID.TID 0000.0001) // CINT =          0.000000000000000E+00
(PID.TID 0000.0001) // SYMBOLS (CMIN->CMAX): -abcdefghijklmnopqrstuvwxyz+
(PID.TID 0000.0001) //                  0.0: .
(PID.TID 0000.0001) // RANGE I (Lo:Hi:Step):(    -1:    54:     1)
(PID.TID 0000.0001) // RANGE J (Lo:Hi:Step):(     3:    -1:    -1)
(PID.TID 0000.0001) // RANGE K (Lo:Hi:Step):(   1:   1:   1)
(PID.TID 0000.0001) // =======================================================
(PID.TID 0000.0001) // =======================================================
(PID.TID 0000.0001) // END OF FIELD                                          =
(PID.TID 0000.0001) // =======================================================
(PID.TID 0000.0001) 
(PID.TID 0000.0001) // =======================================================
(PID.TID 0000.0001) // Field hFacW at iteration          0
(PID.TID 0000.0001) // CMIN =          1.000000000000000E+00
(PID.TID 0000.0001) // CMAX =          1.000000000000000E+00
(PID.TID 0000.0001) // CINT =          0.000000000000000E+00
(PID.TID 0000.0001) // SYMBOLS (CMIN->CMAX): -abcdefghijklmnopqrstuvwxyz+
(PID.TID 0000.0001) //                  0.0: .
(PID.TID 0000.0001) // RANGE I (Lo:Hi:Step):(    -1:    54:     1)
(PID.TID 0000.0001) // RANGE J (Lo:Hi:Step):(     3:    -1:    -1)
(PID.TID 0000.0001) // RANGE K (Lo:Hi:Step):(   1:   1:   1)
(PID.TID 0000.0001) // =======================================================
(PID.TID 0000.0001) // =======================================================
(PID.TID 0000.0001) // END OF FIELD                                          =
(PID.TID 0000.0001) // =======================================================
(PID.TID 0000.0001) 
(PID.TID 0000.0001) // =======================================================
(PID.TID 0000.0001) // Field hFacS at iteration          0
(PID.TID 0000.0001) // CMIN =          1.000000000000000E+00
(PID.TID 0000.0001) // CMAX =          1.000000000000000E+00
(PID.TID 0000.0001) // CINT =          0.000000000000000E+00
(PID.TID 0000.0001) // SYMBOLS (CMIN->CMAX): -abcdefghijklmnopqrstuvwxyz+
(PID.TID 0000.0001) //                  0.0: .
(PID.TID 0000.0001) // RANGE I (Lo:Hi:Step):(    -1:    54:     1)
(PID.TID 0000.0001) // RANGE J (Lo:Hi:Step):(     3:    -1:    -1)
(PID.TID 0000.0001) // RANGE K (Lo:Hi:Step):(   1:   1:   1)
(PID.TID 0000.0001) // =======================================================
(PID.TID 0000.0001) // =======================================================
(PID.TID 0000.0001) // END OF FIELD                                          =
(PID.TID 0000.0001) // =======================================================
(PID.TID 0000.0001) 
(PID.TID 0000.0001) GAD_INIT_FIXED: GAD_OlMinSize=  0  0  1
(PID.TID 0000.0001) 
(PID.TID 0000.0001) // ===================================
(PID.TID 0000.0001) // GAD parameters :
(PID.TID 0000.0001) // ===================================
(PID.TID 0000.0001) tempAdvScheme =   /* Temp. Horiz.Advection scheme selector */
(PID.TID 0000.0001)                       2
(PID.TID 0000.0001)     ;
(PID.TID 0000.0001) tempVertAdvScheme =   /* Temp. Vert. Advection scheme selector */
(PID.TID 0000.0001)                       2
(PID.TID 0000.0001)     ;
(PID.TID 0000.0001) tempMultiDimAdvec =   /* use Muti-Dim Advec method for Temp */
(PID.TID 0000.0001)                   F
(PID.TID 0000.0001)     ;
(PID.TID 0000.0001) tempSOM_Advection = /* use 2nd Order Moment Advection for Temp */
(PID.TID 0000.0001)                   F
(PID.TID 0000.0001)     ;
(PID.TID 0000.0001) AdamsBashforthGt = /* apply Adams-Bashforth extrapolation on Gt */
(PID.TID 0000.0001)                   F
(PID.TID 0000.0001)     ;
(PID.TID 0000.0001) AdamsBashforth_T = /* apply Adams-Bashforth extrapolation on Temp */
(PID.TID 0000.0001)                   F
(PID.TID 0000.0001)     ;
(PID.TID 0000.0001) saltAdvScheme =   /* Salt. Horiz.advection scheme selector */
(PID.TID 0000.0001)                       2
(PID.TID 0000.0001)     ;
(PID.TID 0000.0001) saltVertAdvScheme =   /* Salt. Vert. Advection scheme selector */
(PID.TID 0000.0001)                       2
(PID.TID 0000.0001)     ;
(PID.TID 0000.0001) saltMultiDimAdvec =   /* use Muti-Dim Advec method for Salt */
(PID.TID 0000.0001)                   F
(PID.TID 0000.0001)     ;
(PID.TID 0000.0001) saltSOM_Advection = /* use 2nd Order Moment Advection for Salt */
(PID.TID 0000.0001)                   F
(PID.TID 0000.0001)     ;
(PID.TID 0000.0001) AdamsBashforthGs = /* apply Adams-Bashforth extrapolation on Gs */
(PID.TID 0000.0001)                   F
(PID.TID 0000.0001)     ;
(PID.TID 0000.0001) AdamsBashforth_S = /* apply Adams-Bashforth extrapolation on Salt */
(PID.TID 0000.0001)                   F
(PID.TID 0000.0001)     ;
(PID.TID 0000.0001) // ===================================
(PID.TID 0000.0001) ------------------------------------------------------------
(PID.TID 0000.0001) DIAGNOSTICS_SET_LEVELS: done
(PID.TID 0000.0001)  Total Nb of available Diagnostics: ndiagt=   199
(PID.TID 0000.0001)  write list of available Diagnostics to file: available_diagnostics.log
(PID.TID 0000.0001) SETDIAG: Allocate  1 x  1 Levels for Diagnostic #    23 ETAN
(PID.TID 0000.0001) SETDIAG: Allocate  1 x  1 Levels for Diagnostic #    24 ETANSQ
(PID.TID 0000.0001) SETDIAG: Allocate  1 x  1 Levels for Diagnostic #    25 DETADT2
(PID.TID 0000.0001)   space allocated for all diagnostics:       3 levels
(PID.TID 0000.0001) DIAGNOSTICS_SET_POINTERS: Set levels for Outp.Stream: surfDiag
(PID.TID 0000.0001)  Levels:       1.
(PID.TID 0000.0001) DIAGNOSTICS_SET_POINTERS: done, use       3 levels (numDiags =     500 )
(PID.TID 0000.0001) ------------------------------------------------------------
(PID.TID 0000.0001) DIAGSTATS_SET_REGIONS: define no region
(PID.TID 0000.0001) ------------------------------------------------------------
(PID.TID 0000.0001) SETDIAG: Allocate  1 Levels for Stats-Diag #    23 ETAN
(PID.TID 0000.0001) SETDIAG: Allocate  1 Levels for Stats-Diag #    24 ETANSQ
(PID.TID 0000.0001) SETDIAG: Allocate  1 Levels for Stats-Diag #    25 DETADT2
(PID.TID 0000.0001) SETDIAG: Allocate 50 Levels for Stats-Diag #    30 UVEL
(PID.TID 0000.0001) SETDIAG: Allocate 50 Levels for Stats-Diag #    32 WVEL
(PID.TID 0000.0001)   space allocated for all stats-diags:     103 levels
(PID.TID 0000.0001) DIAGSTATS_SET_POINTERS: done, use     103 levels (diagSt_size=    1000 )
(PID.TID 0000.0001) ------------------------------------------------------------
(PID.TID 0000.0001) %MON fCori_max                    =   0.0000000000000E+00
(PID.TID 0000.0001) %MON fCori_min                    =   0.0000000000000E+00
(PID.TID 0000.0001) %MON fCori_mean                   =   0.0000000000000E+00
(PID.TID 0000.0001) %MON fCori_sd                     =   0.0000000000000E+00
(PID.TID 0000.0001) %MON fCoriG_max                   =   0.0000000000000E+00
(PID.TID 0000.0001) %MON fCoriG_min                   =   0.0000000000000E+00
(PID.TID 0000.0001) %MON fCoriG_mean                  =   0.0000000000000E+00
(PID.TID 0000.0001) %MON fCoriG_sd                    =   0.0000000000000E+00
(PID.TID 0000.0001) %MON fCoriCos_max                 =   0.0000000000000E+00
(PID.TID 0000.0001) %MON fCoriCos_min                 =   0.0000000000000E+00
(PID.TID 0000.0001) %MON fCoriCos_mean                =   0.0000000000000E+00
(PID.TID 0000.0001) %MON fCoriCos_sd                  =   0.0000000000000E+00
(PID.TID 0000.0001) INI_CG2D: CG2D normalisation factor =  4.0000000000000008E-01
(PID.TID 0000.0001) INI_CG2D: cg2dTolerance = 4.800000000000002E-12 (Area=2.0000000000E+00)
(PID.TID 0000.0001) 
(PID.TID 0000.0001) INI_CG3D: CG3D normalisation factor =  1.9999999999999996E+01
(PID.TID 0000.0001) INI_CG3D: cg3dTolerance = 6.000000000000002E-14 (Area=2.0000000000E+00)
(PID.TID 0000.0001) 
(PID.TID 0000.0001) // =======================================================
(PID.TID 0000.0001) // Model configuration
(PID.TID 0000.0001) // =======================================================
(PID.TID 0000.0001) //
(PID.TID 0000.0001) // "Physical" paramters ( PARM01 in namelist )
(PID.TID 0000.0001) //
(PID.TID 0000.0001) buoyancyRelation = /* Type of relation to get Buoyancy */
(PID.TID 0000.0001)               'OCEANIC'
(PID.TID 0000.0001)     ;
(PID.TID 0000.0001) fluidIsAir   =  /* fluid major constituent is Air */
(PID.TID 0000.0001)                   F
(PID.TID 0000.0001)     ;
(PID.TID 0000.0001) fluidIsWater =  /* fluid major constituent is Water */
(PID.TID 0000.0001)                   T
(PID.TID 0000.0001)     ;
(PID.TID 0000.0001) usingPCoords =  /* use p (or p*) vertical coordinate */
(PID.TID 0000.0001)                   F
(PID.TID 0000.0001)     ;
(PID.TID 0000.0001) usingZCoords =  /* use z (or z*) vertical coordinate */
(PID.TID 0000.0001)                   T
(PID.TID 0000.0001)     ;
(PID.TID 0000.0001) tRef =   /* Reference temperature profile ( oC or K ) */
(PID.TID 0000.0001)    50 @  1.000000000000000E+01              /* K =  1: 50 */
(PID.TID 0000.0001)     ;
(PID.TID 0000.0001) sRef =   /* Reference salinity profile ( g/kg ) */
(PID.TID 0000.0001)    50 @  3.500000000000000E+01              /* K =  1: 50 */
(PID.TID 0000.0001)     ;
(PID.TID 0000.0001) rhoRef =   /* Density vertical profile from (Ref,sRef)( kg/m^3 ) */
(PID.TID 0000.0001)    50 @  9.998000000000000E+02              /* K =  1: 50 */
(PID.TID 0000.0001)     ;
(PID.TID 0000.0001) dBdrRef = /* Vertical grad. of reference buoyancy [(m/s/r)^2] */
(PID.TID 0000.0001)    50 @  0.000000000000000E+00              /* K =  1: 50 */
(PID.TID 0000.0001)     ;
(PID.TID 0000.0001) useStrainTensionVisc= /* Use StrainTension Form of Viscous Operator */
(PID.TID 0000.0001)                   F
(PID.TID 0000.0001)     ;
(PID.TID 0000.0001) useVariableVisc = /* Use variable horizontal viscosity */
(PID.TID 0000.0001)                   F
(PID.TID 0000.0001)     ;
(PID.TID 0000.0001) useHarmonicVisc = /* Use harmonic horizontal viscosity */
(PID.TID 0000.0001)                   T
(PID.TID 0000.0001)     ;
(PID.TID 0000.0001) useBiharmonicVisc= /* Use biharmonic horiz.  viscosity */
(PID.TID 0000.0001)                   F
(PID.TID 0000.0001)     ;
(PID.TID 0000.0001) useSmag3D = /* Use isotropic 3-D Smagorinsky viscosity */
(PID.TID 0000.0001)                   F
(PID.TID 0000.0001)     ;
(PID.TID 0000.0001) viscAh  =   /* Lateral harmonic viscosity ( m^2/s ) */
(PID.TID 0000.0001)                 1.000000000000000E-06
(PID.TID 0000.0001)     ;
(PID.TID 0000.0001) viscAhW =   /* Lateral harmonic viscosity in W eq. ( m^2/s ) */
(PID.TID 0000.0001)                 1.000000000000000E-06
(PID.TID 0000.0001)     ;
(PID.TID 0000.0001) viscA4  =   /* Lateral biharmonic viscosity ( m^4/s ) */
(PID.TID 0000.0001)                 0.000000000000000E+00
(PID.TID 0000.0001)     ;
(PID.TID 0000.0001) viscA4W =   /* Lateral biharmonic viscosity in W eq. ( m^2/s ) */
(PID.TID 0000.0001)                 0.000000000000000E+00
(PID.TID 0000.0001)     ;
(PID.TID 0000.0001) no_slip_sides =  /* Viscous BCs: No-slip sides */
(PID.TID 0000.0001)                   F
(PID.TID 0000.0001)     ;
(PID.TID 0000.0001) sideDragFactor = /* side-drag scaling factor (non-dim) */
(PID.TID 0000.0001)                 2.000000000000000E+00
(PID.TID 0000.0001)     ;
(PID.TID 0000.0001) viscArNr = /* vertical profile of vertical viscosity ( m^2/s )*/
(PID.TID 0000.0001)    50 @  1.000000000000000E-06              /* K =  1: 50 */
(PID.TID 0000.0001)     ;
(PID.TID 0000.0001) no_slip_bottom =  /* Viscous BCs: No-slip bottom */
(PID.TID 0000.0001)                   F
(PID.TID 0000.0001)     ;
(PID.TID 0000.0001) bottomVisc_pCell = /* Partial-cell in bottom Visc. BC */
(PID.TID 0000.0001)                   F
(PID.TID 0000.0001)     ;
(PID.TID 0000.0001) bottomDragLinear = /* linear bottom-drag coefficient ( m/s ) */
(PID.TID 0000.0001)                 0.000000000000000E+00
(PID.TID 0000.0001)     ;
(PID.TID 0000.0001) bottomDragQuadratic = /* quadratic bottom-drag coefficient (-) */
(PID.TID 0000.0001)                 0.000000000000000E+00
(PID.TID 0000.0001)     ;
(PID.TID 0000.0001) selectBotDragQuadr = /* select quadratic bottom drag options */
(PID.TID 0000.0001)                      -1
(PID.TID 0000.0001)     ;
(PID.TID 0000.0001) diffKhT =   /* Laplacian diffusion of heat laterally ( m^2/s ) */
(PID.TID 0000.0001)                 0.000000000000000E+00
(PID.TID 0000.0001)     ;
(PID.TID 0000.0001) diffK4T =   /* Biharmonic diffusion of heat laterally ( m^4/s ) */
(PID.TID 0000.0001)                 0.000000000000000E+00
(PID.TID 0000.0001)     ;
(PID.TID 0000.0001) diffKhS =   /* Laplacian diffusion of salt laterally ( m^2/s ) */
(PID.TID 0000.0001)                 0.000000000000000E+00
(PID.TID 0000.0001)     ;
(PID.TID 0000.0001) diffK4S =   /* Biharmonic diffusion of salt laterally ( m^4/s ) */
(PID.TID 0000.0001)                 0.000000000000000E+00
(PID.TID 0000.0001)     ;
(PID.TID 0000.0001) diffKrNrT = /* vertical profile of vertical diffusion of Temp ( m^2/s )*/
(PID.TID 0000.0001)    50 @  0.000000000000000E+00              /* K =  1: 50 */
(PID.TID 0000.0001)     ;
(PID.TID 0000.0001) diffKrNrS = /* vertical profile of vertical diffusion of Salt ( m^2/s )*/
(PID.TID 0000.0001)    50 @  0.000000000000000E+00              /* K =  1: 50 */
(PID.TID 0000.0001)     ;
(PID.TID 0000.0001) diffKrBL79surf = /* Surface diffusion for Bryan and Lewis 79 ( m^2/s ) */
(PID.TID 0000.0001)                 0.000000000000000E+00
(PID.TID 0000.0001)     ;
(PID.TID 0000.0001) diffKrBL79deep = /* Deep diffusion for Bryan and Lewis 1979 ( m^2/s ) */
(PID.TID 0000.0001)                 0.000000000000000E+00
(PID.TID 0000.0001)     ;
(PID.TID 0000.0001) diffKrBL79scl = /* Depth scale for Bryan and Lewis 1979 ( m ) */
(PID.TID 0000.0001)                 2.000000000000000E+02
(PID.TID 0000.0001)     ;
(PID.TID 0000.0001) diffKrBL79Ho = /* Turning depth for Bryan and Lewis 1979 ( m ) */
(PID.TID 0000.0001)                -2.000000000000000E+03
(PID.TID 0000.0001)     ;
(PID.TID 0000.0001) ivdc_kappa = /* Implicit Vertical Diffusivity for Convection ( m^2/s) */
(PID.TID 0000.0001)                 0.000000000000000E+00
(PID.TID 0000.0001)     ;
(PID.TID 0000.0001) hMixCriteria=  /* Criteria for mixed-layer diagnostic */
(PID.TID 0000.0001)                -8.000000000000000E-01
(PID.TID 0000.0001)     ;
(PID.TID 0000.0001) dRhoSmall =  /* Parameter for mixed-layer diagnostic */
(PID.TID 0000.0001)                 1.000000000000000E-06
(PID.TID 0000.0001)     ;
(PID.TID 0000.0001) hMixSmooth=  /* Smoothing parameter for mixed-layer diagnostic */
(PID.TID 0000.0001)                 0.000000000000000E+00
(PID.TID 0000.0001)     ;
(PID.TID 0000.0001) eosType =  /* Type of Equation of State */
(PID.TID 0000.0001)               'LINEAR'
(PID.TID 0000.0001)     ;
(PID.TID 0000.0001) tAlpha = /* Linear EOS thermal expansion coefficient ( 1/oC ) */
(PID.TID 0000.0001)                 0.000000000000000E+00
(PID.TID 0000.0001)     ;
(PID.TID 0000.0001) sBeta  = /* Linear EOS haline contraction coefficient ( 1/(g/kg) ) */
(PID.TID 0000.0001)                 0.000000000000000E+00
(PID.TID 0000.0001)     ;
(PID.TID 0000.0001) rhoNil    = /* Reference density for Linear EOS ( kg/m^3 ) */
(PID.TID 0000.0001)                 9.998000000000000E+02
(PID.TID 0000.0001)     ;
(PID.TID 0000.0001) selectP_inEOS_Zc = /* select pressure to use in EOS (0,1,2,3) */
(PID.TID 0000.0001)                       0
(PID.TID 0000.0001)     0= -g*rhoConst*z ; 1= pRef (from tRef,sRef); 2= Hyd P ; 3= Hyd+NH P
(PID.TID 0000.0001)     ;
(PID.TID 0000.0001) surf_pRef = /* Surface reference pressure ( Pa ) */
(PID.TID 0000.0001)                 1.013250000000000E+05
(PID.TID 0000.0001)     ;
(PID.TID 0000.0001) HeatCapacity_Cp =  /* Specific heat capacity ( J/kg/K ) */
(PID.TID 0000.0001)                 3.994000000000000E+03
(PID.TID 0000.0001)     ;
(PID.TID 0000.0001) celsius2K = /* 0 degree Celsius converted to Kelvin ( K ) */
(PID.TID 0000.0001)                 2.731500000000000E+02
(PID.TID 0000.0001)     ;
(PID.TID 0000.0001) rhoConst  = /* Reference density (Boussinesq)  ( kg/m^3 ) */
(PID.TID 0000.0001)                 9.998000000000000E+02
(PID.TID 0000.0001)     ;
(PID.TID 0000.0001) rhoFacC = /* normalized Reference density @ cell-Center (-) */
(PID.TID 0000.0001)    50 @  1.000000000000000E+00              /* K =  1: 50 */
(PID.TID 0000.0001)     ;
(PID.TID 0000.0001) rhoFacF = /* normalized Reference density @ W-Interface (-) */
(PID.TID 0000.0001)    51 @  1.000000000000000E+00              /* K =  1: 51 */
(PID.TID 0000.0001)     ;
(PID.TID 0000.0001) rhoConstFresh = /* Fresh-water reference density ( kg/m^3 ) */
(PID.TID 0000.0001)                 9.998000000000000E+02
(PID.TID 0000.0001)     ;
(PID.TID 0000.0001) gravity =   /* Gravitational acceleration ( m/s^2 ) */
(PID.TID 0000.0001)                 1.000000000000000E+01
(PID.TID 0000.0001)     ;
(PID.TID 0000.0001) gBaro =   /* Barotropic gravity ( m/s^2 ) */
(PID.TID 0000.0001)                 1.000000000000000E+01
(PID.TID 0000.0001)     ;
(PID.TID 0000.0001) gravFacC = /* gravity factor (vs surf.) @ cell-Center (-) */
(PID.TID 0000.0001)    50 @  1.000000000000000E+00              /* K =  1: 50 */
(PID.TID 0000.0001)     ;
(PID.TID 0000.0001) gravFacF = /* gravity factor (vs surf.) @ W-Interface (-) */
(PID.TID 0000.0001)    51 @  1.000000000000000E+00              /* K =  1: 51 */
(PID.TID 0000.0001)     ;
(PID.TID 0000.0001) rotationPeriod =   /* Rotation Period ( s ) */
(PID.TID 0000.0001)                 8.616400000000000E+04
(PID.TID 0000.0001)     ;
(PID.TID 0000.0001) omega =   /* Angular velocity ( rad/s ) */
(PID.TID 0000.0001)                 7.292123516990375E-05
(PID.TID 0000.0001)     ;
(PID.TID 0000.0001) f0 =   /* Reference coriolis parameter ( 1/s ) */
(PID.TID 0000.0001)                 0.000000000000000E+00
(PID.TID 0000.0001)     ;
(PID.TID 0000.0001) beta =   /* Beta ( 1/(m.s) ) */
(PID.TID 0000.0001)                 0.000000000000000E+00
(PID.TID 0000.0001)     ;
(PID.TID 0000.0001) fPrime =   /* Second coriolis parameter ( 1/s ) */
(PID.TID 0000.0001)                 0.000000000000000E+00
(PID.TID 0000.0001)     ;
(PID.TID 0000.0001) rigidLid =   /* Rigid lid on/off flag */
(PID.TID 0000.0001)                   F
(PID.TID 0000.0001)     ;
(PID.TID 0000.0001) implicitFreeSurface =   /* Implicit free surface on/off flag */
(PID.TID 0000.0001)                   T
(PID.TID 0000.0001)     ;
(PID.TID 0000.0001) freeSurfFac =   /* Implicit free surface factor */
(PID.TID 0000.0001)                 1.000000000000000E+00
(PID.TID 0000.0001)     ;
(PID.TID 0000.0001) implicSurfPress =  /* Surface Pressure implicit factor (0-1) */
(PID.TID 0000.0001)                 5.000000000000000E-01
(PID.TID 0000.0001)     ;
(PID.TID 0000.0001) implicDiv2DFlow =  /* Barot. Flow Div. implicit factor (0-1) */
(PID.TID 0000.0001)                 5.000000000000000E-01
(PID.TID 0000.0001)     ;
(PID.TID 0000.0001) uniformLin_PhiSurf = /* use uniform Bo_surf on/off flag */
(PID.TID 0000.0001)                   T
(PID.TID 0000.0001)     ;
(PID.TID 0000.0001) uniformFreeSurfLev = /* free-surface level-index is uniform */
(PID.TID 0000.0001)                   T
(PID.TID 0000.0001)     ;
(PID.TID 0000.0001) sIceLoadFac =  /* scale factor for sIceLoad (0-1) */
(PID.TID 0000.0001)                 1.000000000000000E+00
(PID.TID 0000.0001)     ;
(PID.TID 0000.0001) hFacMin =   /* minimum partial cell factor (hFac) */
(PID.TID 0000.0001)                 2.000000000000000E-01
(PID.TID 0000.0001)     ;
(PID.TID 0000.0001) hFacMinDr = /* minimum partial cell thickness ( m) */
(PID.TID 0000.0001)                 0.000000000000000E+00
(PID.TID 0000.0001)     ;
(PID.TID 0000.0001) exactConserv =  /* Exact Volume Conservation on/off flag */
(PID.TID 0000.0001)                   T
(PID.TID 0000.0001)     ;
(PID.TID 0000.0001) linFSConserveTr = /* Tracer correction for Lin Free Surface on/off flag */
(PID.TID 0000.0001)                   F
(PID.TID 0000.0001)     ;
(PID.TID 0000.0001) nonlinFreeSurf = /* Non-linear Free Surf. options (-1,0,1,2,3)*/
(PID.TID 0000.0001)                       0
(PID.TID 0000.0001)      -1,0= Off ; 1,2,3= On, 2=+rescale gU,gV, 3=+update cg2d solv.
(PID.TID 0000.0001)     ;
(PID.TID 0000.0001) hFacInf =   /* lower threshold for hFac (nonlinFreeSurf only)*/
(PID.TID 0000.0001)                 2.000000000000000E-01
(PID.TID 0000.0001)     ;
(PID.TID 0000.0001) hFacSup =   /* upper threshold for hFac (nonlinFreeSurf only)*/
(PID.TID 0000.0001)                 2.000000000000000E+00
(PID.TID 0000.0001)     ;
(PID.TID 0000.0001) select_rStar = /* r* Vertical coord. options (=0 r coord.; >0 uses r*)*/
(PID.TID 0000.0001)                       0
(PID.TID 0000.0001)     ;
(PID.TID 0000.0001) useRealFreshWaterFlux = /* Real Fresh Water Flux on/off flag*/
(PID.TID 0000.0001)                   F
(PID.TID 0000.0001)     ;
(PID.TID 0000.0001) temp_EvPrRn = /* Temp. of Evap/Prec/R (UNSET=use local T)(oC)*/
(PID.TID 0000.0001)                 1.234567000000000E+05
(PID.TID 0000.0001)     ;
(PID.TID 0000.0001) salt_EvPrRn = /* Salin. of Evap/Prec/R (UNSET=use local S)(g/kg)*/
(PID.TID 0000.0001)                 0.000000000000000E+00
(PID.TID 0000.0001)     ;
(PID.TID 0000.0001) selectAddFluid = /* option for mass source/sink of fluid (=0: off) */
(PID.TID 0000.0001)                       0
(PID.TID 0000.0001)     ;
(PID.TID 0000.0001) temp_addMass = /* Temp. of addMass array (UNSET=use local T)(oC)*/
(PID.TID 0000.0001)                 1.234567000000000E+05
(PID.TID 0000.0001)     ;
(PID.TID 0000.0001) salt_addMass = /* Salin. of addMass array (UNSET=use local S)(g/kg)*/
(PID.TID 0000.0001)                 0.000000000000000E+00
(PID.TID 0000.0001)     ;
(PID.TID 0000.0001) convertFW2Salt = /* convert F.W. Flux to Salt Flux (-1=use local S)(g/kg)*/
(PID.TID 0000.0001)                 3.500000000000000E+01
(PID.TID 0000.0001)     ;
(PID.TID 0000.0001) use3Dsolver = /* use 3-D pressure solver on/off flag */
(PID.TID 0000.0001)                   T
(PID.TID 0000.0001)     ;
(PID.TID 0000.0001) nonHydrostatic =  /* Non-Hydrostatic on/off flag */
(PID.TID 0000.0001)                   T
(PID.TID 0000.0001)     ;
(PID.TID 0000.0001) nh_Am2 = /* Non-Hydrostatic terms scaling factor */
(PID.TID 0000.0001)                 1.000000000000000E+00
(PID.TID 0000.0001)     ;
(PID.TID 0000.0001) implicitNHPress = /* Non-Hyd Pressure implicit factor (0-1)*/
(PID.TID 0000.0001)                 5.000000000000000E-01
(PID.TID 0000.0001)     ;
(PID.TID 0000.0001) selectNHfreeSurf = /* Non-Hyd (free-)Surface option */
(PID.TID 0000.0001)                       1
(PID.TID 0000.0001)     ;
(PID.TID 0000.0001) quasiHydrostatic = /* Quasi-Hydrostatic on/off flag */
(PID.TID 0000.0001)                   F
(PID.TID 0000.0001)     ;
(PID.TID 0000.0001) calc_wVelocity = /* vertical velocity calculation on/off flag */
(PID.TID 0000.0001)                   T
(PID.TID 0000.0001)     ;
(PID.TID 0000.0001) momStepping =  /* Momentum equation on/off flag */
(PID.TID 0000.0001)                   T
(PID.TID 0000.0001)     ;
(PID.TID 0000.0001) vectorInvariantMomentum= /* Vector-Invariant Momentum on/off */
(PID.TID 0000.0001)                   F
(PID.TID 0000.0001)     ;
(PID.TID 0000.0001) momAdvection =  /* Momentum advection on/off flag */
(PID.TID 0000.0001)                   T
(PID.TID 0000.0001)     ;
(PID.TID 0000.0001) momViscosity =  /* Momentum viscosity on/off flag */
(PID.TID 0000.0001)                   T
(PID.TID 0000.0001)     ;
(PID.TID 0000.0001) momImplVertAdv= /* Momentum implicit vert. advection on/off*/
(PID.TID 0000.0001)                   F
(PID.TID 0000.0001)     ;
(PID.TID 0000.0001) implicitViscosity = /* Implicit viscosity on/off flag */
(PID.TID 0000.0001)                   F
(PID.TID 0000.0001)     ;
(PID.TID 0000.0001) selectImplicitDrag= /* Implicit bot Drag options (0,1,2)*/
(PID.TID 0000.0001)                       0
(PID.TID 0000.0001)     0= Expl. ; 1= Impl. on provis. Vel ; 2= Fully Impl (with surf.P)
(PID.TID 0000.0001)     ;
(PID.TID 0000.0001) selectMetricTerms= /* Metric-Terms on/off flag (=0/1) */
(PID.TID 0000.0001)                       0
(PID.TID 0000.0001)     ;
(PID.TID 0000.0001) useNHMTerms = /* Non-Hydrostatic Metric-Terms on/off */
(PID.TID 0000.0001)                   F
(PID.TID 0000.0001)     ;
(PID.TID 0000.0001) selectCoriMap = /* Coriolis Map options (0,1,2,3)*/
(PID.TID 0000.0001)                       1
(PID.TID 0000.0001)     0= f-Plane ; 1= Beta-Plane ; 2= Spherical ; 3= read from file
(PID.TID 0000.0001)     ;
(PID.TID 0000.0001) select3dCoriScheme= /* 3-D Coriolis on/off flag (=0/1) */
(PID.TID 0000.0001)                       0
(PID.TID 0000.0001)     ;
(PID.TID 0000.0001) useCoriolis =  /* Coriolis on/off flag */
(PID.TID 0000.0001)                   T
(PID.TID 0000.0001)     ;
(PID.TID 0000.0001) useCDscheme =  /* CD scheme on/off flag */
(PID.TID 0000.0001)                   F
(PID.TID 0000.0001)     ;
(PID.TID 0000.0001) selectCoriScheme= /* Scheme selector for Coriolis-Term */
(PID.TID 0000.0001)                       0
(PID.TID 0000.0001)    = 0 : original discretization (simple averaging, no hFac)
(PID.TID 0000.0001)    = 1 : Wet-point averaging (Jamar & Ozer 1986)
(PID.TID 0000.0001)    = 2 : energy conserving scheme (no hFac weight)
(PID.TID 0000.0001)    = 3 : energy conserving scheme using Wet-point averaging
(PID.TID 0000.0001)     ;
(PID.TID 0000.0001) momForcing =  /* Momentum forcing on/off flag */
(PID.TID 0000.0001)                   T
(PID.TID 0000.0001)     ;
(PID.TID 0000.0001) momTidalForcing = /* Momentum Tidal forcing on/off flag */
(PID.TID 0000.0001)                   T
(PID.TID 0000.0001)     ;
(PID.TID 0000.0001) momPressureForcing =  /* Momentum pressure term on/off flag */
(PID.TID 0000.0001)                   T
(PID.TID 0000.0001)     ;
(PID.TID 0000.0001) implicitIntGravWave= /* Implicit Internal Gravity Wave flag */
(PID.TID 0000.0001)                   F
(PID.TID 0000.0001)     ;
(PID.TID 0000.0001) staggerTimeStep =    /* Stagger time stepping on/off flag */
(PID.TID 0000.0001)                   F
(PID.TID 0000.0001)     ;
(PID.TID 0000.0001) doResetHFactors = /* reset thickness factors @ each time-step */
(PID.TID 0000.0001)                   F
(PID.TID 0000.0001)     ;
(PID.TID 0000.0001) multiDimAdvection =  /* enable/disable Multi-Dim Advection */
(PID.TID 0000.0001)                   T
(PID.TID 0000.0001)     ;
(PID.TID 0000.0001) useMultiDimAdvec =   /* Multi-Dim Advection is/is-not used */
(PID.TID 0000.0001)                   F
(PID.TID 0000.0001)     ;
(PID.TID 0000.0001) implicitDiffusion = /* Implicit Diffusion on/off flag */
(PID.TID 0000.0001)                   F
(PID.TID 0000.0001)     ;
(PID.TID 0000.0001) tempStepping =  /* Temperature equation on/off flag */
(PID.TID 0000.0001)                   F
(PID.TID 0000.0001)     ;
(PID.TID 0000.0001) tempAdvection = /* Temperature advection on/off flag */
(PID.TID 0000.0001)                   F
(PID.TID 0000.0001)     ;
(PID.TID 0000.0001) tempImplVertAdv = /* Temp. implicit vert. advection on/off */
(PID.TID 0000.0001)                   F
(PID.TID 0000.0001)     ;
(PID.TID 0000.0001) tempForcing  =  /* Temperature forcing on/off flag */
(PID.TID 0000.0001)                   F
(PID.TID 0000.0001)     ;
(PID.TID 0000.0001) doThetaClimRelax = /* apply SST relaxation on/off flag */
(PID.TID 0000.0001)                   F
(PID.TID 0000.0001)     ;
(PID.TID 0000.0001) tempIsActiveTr = /* Temp. is a dynamically Active Tracer */
(PID.TID 0000.0001)                   F
(PID.TID 0000.0001)     ;
(PID.TID 0000.0001) saltStepping =  /* Salinity equation on/off flag */
(PID.TID 0000.0001)                   F
(PID.TID 0000.0001)     ;
(PID.TID 0000.0001) saltAdvection = /* Salinity advection on/off flag */
(PID.TID 0000.0001)                   F
(PID.TID 0000.0001)     ;
(PID.TID 0000.0001) saltImplVertAdv = /* Sali. implicit vert. advection on/off */
(PID.TID 0000.0001)                   F
(PID.TID 0000.0001)     ;
(PID.TID 0000.0001) saltForcing  =  /* Salinity forcing on/off flag */
(PID.TID 0000.0001)                   F
(PID.TID 0000.0001)     ;
(PID.TID 0000.0001) doSaltClimRelax = /* apply SSS relaxation on/off flag */
(PID.TID 0000.0001)                   F
(PID.TID 0000.0001)     ;
(PID.TID 0000.0001) saltIsActiveTr = /* Salt  is a dynamically Active Tracer */
(PID.TID 0000.0001)                   F
(PID.TID 0000.0001)     ;
(PID.TID 0000.0001)  readBinaryPrec = /* Precision used for reading binary files */
(PID.TID 0000.0001)                      64
(PID.TID 0000.0001)     ;
(PID.TID 0000.0001) writeBinaryPrec = /* Precision used for writing binary files */
(PID.TID 0000.0001)                      64
(PID.TID 0000.0001)     ;
(PID.TID 0000.0001)  rwSuffixType =   /* select format of mds file suffix */
(PID.TID 0000.0001)                       0
(PID.TID 0000.0001)    = 0 : myIter (I10.10) ;   = 1 : 100*myTime (100th sec) ;
(PID.TID 0000.0001)    = 2 : myTime (seconds);   = 3 : myTime/360 (10th of hr);
(PID.TID 0000.0001)    = 4 : myTime/3600 (hours)
(PID.TID 0000.0001)     ;
(PID.TID 0000.0001)  globalFiles = /* write "global" (=not per tile) files */
(PID.TID 0000.0001)                   F
(PID.TID 0000.0001)     ;
(PID.TID 0000.0001)  useSingleCpuIO = /* only master MPI process does I/O */
(PID.TID 0000.0001)                   F
(PID.TID 0000.0001)     ;
(PID.TID 0000.0001)  useSingleCpuInput = /* only master process reads input */
(PID.TID 0000.0001)                   F
(PID.TID 0000.0001)     ;
(PID.TID 0000.0001) /* debLev[*]  : level of debug & auxiliary message printing */
(PID.TID 0000.0001) debLevZero =  0 ; /* level of disabled aux. msg printing */
(PID.TID 0000.0001)    debLevA =  1 ; /* level of minimum  aux. msg printing */
(PID.TID 0000.0001)    debLevB =  2 ; /* level of low aux. print (report read-file opening)*/
(PID.TID 0000.0001)    debLevC =  3 ; /* level of moderate debug prt (most pkgs debug msg) */
(PID.TID 0000.0001)    debLevD =  4 ; /* level of enhanced debug prt (add DEBUG_STATS prt) */
(PID.TID 0000.0001)    debLevE =  5 ; /* level of extensive debug printing */
(PID.TID 0000.0001) debugLevel =  /* select debug printing level */
(PID.TID 0000.0001)                       2
(PID.TID 0000.0001)     ;
(PID.TID 0000.0001)  plotLevel =  /* select PLOT_FIELD printing level */
(PID.TID 0000.0001)                       2
(PID.TID 0000.0001)     ;
(PID.TID 0000.0001) //
(PID.TID 0000.0001) // Elliptic solver(s) paramters ( PARM02 in namelist )
(PID.TID 0000.0001) //
(PID.TID 0000.0001) cg2dMaxIters =   /* Upper limit on 2d con. grad iterations  */
(PID.TID 0000.0001)                     100
(PID.TID 0000.0001)     ;
(PID.TID 0000.0001) cg2dMinItersNSA =   /* Minimum number of iterations of 2d con. grad solver  */
(PID.TID 0000.0001)                       0
(PID.TID 0000.0001)     ;
(PID.TID 0000.0001) cg2dUseMinResSol= /* use cg2d last-iter(=0) / min-resid.(=1) solution */
(PID.TID 0000.0001)                       0
(PID.TID 0000.0001)     ;
(PID.TID 0000.0001) cg2dTargetResidual =   /* 2d con. grad target residual  */
(PID.TID 0000.0001)                 1.000000000000000E-07
(PID.TID 0000.0001)     ;
(PID.TID 0000.0001) cg2dTargetResWunit =   /* CG2d target residual [W units] */
(PID.TID 0000.0001)                 6.000000000000000E-14
(PID.TID 0000.0001)     ;
(PID.TID 0000.0001) cg2dPreCondFreq =   /* Freq. for updating cg2d preconditioner */
(PID.TID 0000.0001)                       1
(PID.TID 0000.0001)     ;
(PID.TID 0000.0001) useSRCGSolver =  /* use single reduction CG solver(s) */
(PID.TID 0000.0001)                   F
(PID.TID 0000.0001)     ;
(PID.TID 0000.0001) useNSACGSolver =  /* use not-self-adjoint CG solver */
(PID.TID 0000.0001)                   F
(PID.TID 0000.0001)     ;
(PID.TID 0000.0001) printResidualFreq = /* Freq. for printing CG residual */
(PID.TID 0000.0001)                       0
(PID.TID 0000.0001)     ;
(PID.TID 0000.0001) cg3dMaxIters =   /* Upper limit on CG3d iterations  */
(PID.TID 0000.0001)                     200
(PID.TID 0000.0001)     ;
(PID.TID 0000.0001) cg3dTargetResidual =   /* CG3d target residual [normalise RHS] */
(PID.TID 0000.0001)                 1.000000000000000E-07
(PID.TID 0000.0001)     ;
(PID.TID 0000.0001) cg3dTargetResWunit =   /* CG3d target residual [W units] */
(PID.TID 0000.0001)                 1.500000000000000E-17
(PID.TID 0000.0001)     ;
(PID.TID 0000.0001) //
(PID.TID 0000.0001) // Time stepping paramters ( PARM03 in namelist )
(PID.TID 0000.0001) //
(PID.TID 0000.0001) deltaTMom =   /* Momentum equation timestep ( s ) */
(PID.TID 0000.0001)                 5.000000000000000E-03
(PID.TID 0000.0001)     ;
(PID.TID 0000.0001) deltaTFreeSurf = /* FreeSurface equation timestep ( s ) */
(PID.TID 0000.0001)                 5.000000000000000E-03
(PID.TID 0000.0001)     ;
(PID.TID 0000.0001) dTtracerLev =  /* Tracer equation timestep ( s ) */
(PID.TID 0000.0001)    50 @  5.000000000000000E-03              /* K =  1: 50 */
(PID.TID 0000.0001)     ;
(PID.TID 0000.0001) deltaTClock  =   /* Model clock timestep ( s ) */
(PID.TID 0000.0001)                 5.000000000000000E-03
(PID.TID 0000.0001)     ;
(PID.TID 0000.0001) cAdjFreq =   /* Convective adjustment interval ( s ) */
(PID.TID 0000.0001)                 0.000000000000000E+00
(PID.TID 0000.0001)     ;
(PID.TID 0000.0001) momForcingOutAB = /* =1: take Momentum Forcing out of Adams-Bash. stepping */
(PID.TID 0000.0001)                       0
(PID.TID 0000.0001)     ;
(PID.TID 0000.0001) tracForcingOutAB = /* =1: take T,S,pTr Forcing out of Adams-Bash. stepping */
(PID.TID 0000.0001)                       0
(PID.TID 0000.0001)     ;
(PID.TID 0000.0001) momDissip_In_AB = /* put Dissipation Tendency in Adams-Bash. stepping */
(PID.TID 0000.0001)                   F
(PID.TID 0000.0001)     ;
(PID.TID 0000.0001) doAB_onGtGs = /* apply AB on Tendencies (rather than on T,S)*/
(PID.TID 0000.0001)                   T
(PID.TID 0000.0001)     ;
(PID.TID 0000.0001) abEps =   /* Adams-Bashforth-2 stabilizing weight */
(PID.TID 0000.0001)                 1.000000000000000E-02
(PID.TID 0000.0001)     ;
(PID.TID 0000.0001) alph_AB =   /* Adams-Bashforth-3 primary factor */
(PID.TID 0000.0001)                 5.000000000000000E-01
(PID.TID 0000.0001)     ;
(PID.TID 0000.0001) beta_AB =   /* Adams-Bashforth-3 secondary factor */
(PID.TID 0000.0001)                 2.811050000000000E-01
(PID.TID 0000.0001)     ;
(PID.TID 0000.0001) startFromPickupAB2= /* start from AB-2 pickup */
(PID.TID 0000.0001)                   F
(PID.TID 0000.0001)     ;
(PID.TID 0000.0001) applyExchUV_early = /* Apply EXCH to U,V earlier in time-step */
(PID.TID 0000.0001)                   F
(PID.TID 0000.0001)     ;
(PID.TID 0000.0001) pickupStrictlyMatch= /* stop if pickup do not strictly match */
(PID.TID 0000.0001)                   T
(PID.TID 0000.0001)     ;
(PID.TID 0000.0001) nIter0   =   /* Run starting timestep number */
(PID.TID 0000.0001)                       0
(PID.TID 0000.0001)     ;
(PID.TID 0000.0001) nTimeSteps = /* Number of timesteps */
(PID.TID 0000.0001)                      12
(PID.TID 0000.0001)     ;
(PID.TID 0000.0001) nEndIter =   /* Run ending timestep number */
(PID.TID 0000.0001)                      12
(PID.TID 0000.0001)     ;
(PID.TID 0000.0001) baseTime =   /* Model base time ( s ) */
(PID.TID 0000.0001)                 0.000000000000000E+00
(PID.TID 0000.0001)     ;
(PID.TID 0000.0001) startTime =  /* Run start time ( s ) */
(PID.TID 0000.0001)                 0.000000000000000E+00
(PID.TID 0000.0001)     ;
(PID.TID 0000.0001) endTime  =   /* Integration ending time ( s ) */
(PID.TID 0000.0001)                 6.000000000000000E-02
(PID.TID 0000.0001)     ;
(PID.TID 0000.0001) pChkPtFreq = /* Permanent restart/pickup file interval ( s ) */
(PID.TID 0000.0001)                 0.000000000000000E+00
(PID.TID 0000.0001)     ;
(PID.TID 0000.0001) chkPtFreq  = /* Rolling restart/pickup file interval ( s ) */
(PID.TID 0000.0001)                 0.000000000000000E+00
(PID.TID 0000.0001)     ;
(PID.TID 0000.0001) pickup_write_mdsio =   /* Model IO flag. */
(PID.TID 0000.0001)                   T
(PID.TID 0000.0001)     ;
(PID.TID 0000.0001) pickup_read_mdsio =   /* Model IO flag. */
(PID.TID 0000.0001)                   T
(PID.TID 0000.0001)     ;
(PID.TID 0000.0001) writePickupAtEnd =   /* Model IO flag. */
(PID.TID 0000.0001)                   T
(PID.TID 0000.0001)     ;
(PID.TID 0000.0001) dumpFreq =   /* Model state write out interval ( s ). */
(PID.TID 0000.0001)                 5.000000000000000E+00
(PID.TID 0000.0001)     ;
(PID.TID 0000.0001) dumpInitAndLast= /* write out Initial & Last iter. model state */
(PID.TID 0000.0001)                   T
(PID.TID 0000.0001)     ;
(PID.TID 0000.0001) snapshot_mdsio =   /* Model IO flag. */
(PID.TID 0000.0001)                   T
(PID.TID 0000.0001)     ;
(PID.TID 0000.0001) monitorFreq =   /* Monitor output interval ( s ). */
(PID.TID 0000.0001)                 5.000000000000000E-03
(PID.TID 0000.0001)     ;
(PID.TID 0000.0001) monitorSelect = /* select group of variables to monitor */
(PID.TID 0000.0001)                       1
(PID.TID 0000.0001)     ;
(PID.TID 0000.0001) monitor_stdio =   /* Model IO flag. */
(PID.TID 0000.0001)                   T
(PID.TID 0000.0001)     ;
(PID.TID 0000.0001) externForcingPeriod =   /* forcing period (s) */
(PID.TID 0000.0001)                 0.000000000000000E+00
(PID.TID 0000.0001)     ;
(PID.TID 0000.0001) externForcingCycle =   /* period of the cyle (s). */
(PID.TID 0000.0001)                 0.000000000000000E+00
(PID.TID 0000.0001)     ;
(PID.TID 0000.0001) tauThetaClimRelax =   /* relaxation time scale (s) */
(PID.TID 0000.0001)                 0.000000000000000E+00
(PID.TID 0000.0001)     ;
(PID.TID 0000.0001) tauSaltClimRelax =   /* relaxation time scale (s) */
(PID.TID 0000.0001)                 0.000000000000000E+00
(PID.TID 0000.0001)     ;
(PID.TID 0000.0001) latBandClimRelax =   /* max. Lat. where relaxation */
(PID.TID 0000.0001)                 6.000000000000001E-01
(PID.TID 0000.0001)     ;
(PID.TID 0000.0001) //
(PID.TID 0000.0001) // Gridding paramters ( PARM04 in namelist )
(PID.TID 0000.0001) //
(PID.TID 0000.0001) usingCartesianGrid = /* Cartesian coordinates flag ( True/False ) */
(PID.TID 0000.0001)                   T
(PID.TID 0000.0001)     ;
(PID.TID 0000.0001) usingCylindricalGrid = /* Cylindrical coordinates flag ( True/False ) */
(PID.TID 0000.0001)                   F
(PID.TID 0000.0001)     ;
(PID.TID 0000.0001) usingSphericalPolarGrid = /* Spherical coordinates flag ( True/False ) */
(PID.TID 0000.0001)                   F
(PID.TID 0000.0001)     ;
(PID.TID 0000.0001) usingCurvilinearGrid = /* Curvilinear coordinates flag ( True/False ) */
(PID.TID 0000.0001)                   F
(PID.TID 0000.0001)     ;
(PID.TID 0000.0001) useMin4hFacEdges = /* set hFacW,S as minimum of adjacent hFacC factor */
(PID.TID 0000.0001)                   F
(PID.TID 0000.0001)     ;
(PID.TID 0000.0001) interViscAr_pCell = /* account for partial-cell in interior vert. viscosity */
(PID.TID 0000.0001)                   F
(PID.TID 0000.0001)     ;
(PID.TID 0000.0001) interDiffKr_pCell = /* account for partial-cell in interior vert. diffusion */
(PID.TID 0000.0001)                   F
(PID.TID 0000.0001)     ;
(PID.TID 0000.0001) pCellMix_select = /* option to enhance mixing near surface & bottom */
(PID.TID 0000.0001)                       0
(PID.TID 0000.0001)     ;
(PID.TID 0000.0001) selectSigmaCoord = /* Hybrid-Sigma Vert. Coordinate option */
(PID.TID 0000.0001)                       0
(PID.TID 0000.0001)     ;
(PID.TID 0000.0001) rSigmaBnd = /* r/sigma transition ( units of r ==  m ) */
(PID.TID 0000.0001)                 1.234567000000000E+05
(PID.TID 0000.0001)     ;
(PID.TID 0000.0001) rkSign =   /* index orientation relative to vertical coordinate */
(PID.TID 0000.0001)                -1.000000000000000E+00
(PID.TID 0000.0001)     ;
(PID.TID 0000.0001) gravitySign = /* gravity orientation relative to vertical coordinate */
(PID.TID 0000.0001)                -1.000000000000000E+00
(PID.TID 0000.0001)     ;
(PID.TID 0000.0001) seaLev_Z =  /* reference height of sea-level [m] */
(PID.TID 0000.0001)                 0.000000000000000E+00
(PID.TID 0000.0001)     ;
(PID.TID 0000.0001) top_Pres =  /* reference pressure at the top [Pa] */
(PID.TID 0000.0001)                 0.000000000000000E+00
(PID.TID 0000.0001)     ;
(PID.TID 0000.0001) mass2rUnit = /* convert mass per unit area [kg/m2] to r-units [m] */
(PID.TID 0000.0001)                 1.000200040008002E-03
(PID.TID 0000.0001)     ;
(PID.TID 0000.0001) rUnit2mass = /* convert r-units [m] to mass per unit area [kg/m2] */
(PID.TID 0000.0001)                 9.998000000000000E+02
(PID.TID 0000.0001)     ;
(PID.TID 0000.0001) drC =   /* C spacing ( units of r ) */
(PID.TID 0000.0001)                 1.000000000000000E-01,      /* K =  1 */
(PID.TID 0000.0001)    49 @  2.000000000000000E-01,             /* K =  2: 50 */
(PID.TID 0000.0001)                 1.000000000000000E-01       /* K = 51 */
(PID.TID 0000.0001)     ;
(PID.TID 0000.0001) drF =   /* W spacing ( units of r ) */
(PID.TID 0000.0001)    50 @  2.000000000000000E-01              /* K =  1: 50 */
(PID.TID 0000.0001)     ;
(PID.TID 0000.0001) delX = /* U spacing ( m - cartesian, degrees - spherical ) */
(PID.TID 0000.0001)    52 @  2.000000000000000E-01              /* I =  1: 52 */
(PID.TID 0000.0001)     ;
(PID.TID 0000.0001) delY = /* V spacing ( m - cartesian, degrees - spherical ) */
(PID.TID 0000.0001)                 2.000000000000000E-01       /* J =  1 */
(PID.TID 0000.0001)     ;
(PID.TID 0000.0001) xgOrigin = /* X-axis origin of West  edge (cartesian: m, lat-lon: deg) */
(PID.TID 0000.0001)                 0.000000000000000E+00
(PID.TID 0000.0001)     ;
(PID.TID 0000.0001) ygOrigin = /* Y-axis origin of South edge (cartesian: m, lat-lon: deg) */
(PID.TID 0000.0001)                 0.000000000000000E+00
(PID.TID 0000.0001)     ;
(PID.TID 0000.0001) rSphere =  /* Radius ( ignored - cartesian, m - spherical ) */
(PID.TID 0000.0001)                 6.370000000000000E+06
(PID.TID 0000.0001)     ;
(PID.TID 0000.0001) deepAtmosphere = /* Deep/Shallow Atmosphere flag (True/False) */
(PID.TID 0000.0001)                   F
(PID.TID 0000.0001)     ;
(PID.TID 0000.0001) xC =  /* xC(:,1,:,1) : P-point X coord ( deg. or m if cartesian) */
(PID.TID 0000.0001)                 1.000000000000000E-01,      /* I =  1 */
(PID.TID 0000.0001)                 3.000000000000000E-01,      /* I =  2 */
(PID.TID 0000.0001)                 5.000000000000000E-01,      /* I =  3 */
(PID.TID 0000.0001)                 7.000000000000000E-01,      /* I =  4 */
(PID.TID 0000.0001)                 9.000000000000000E-01,      /* I =  5 */
(PID.TID 0000.0001)                 1.100000000000000E+00,      /* I =  6 */
(PID.TID 0000.0001)                 1.300000000000000E+00,      /* I =  7 */
(PID.TID 0000.0001)                 1.500000000000000E+00,      /* I =  8 */
(PID.TID 0000.0001)                 1.700000000000000E+00,      /* I =  9 */
(PID.TID 0000.0001)                 1.900000000000000E+00,      /* I = 10 */
(PID.TID 0000.0001)                 2.100000000000000E+00,      /* I = 11 */
(PID.TID 0000.0001)                 2.300000000000000E+00,      /* I = 12 */
(PID.TID 0000.0001)                 2.500000000000000E+00,      /* I = 13 */
(PID.TID 0000.0001)                 2.700000000000000E+00,      /* I = 14 */
(PID.TID 0000.0001)                 2.900000000000000E+00,      /* I = 15 */
(PID.TID 0000.0001)                 3.100000000000001E+00,      /* I = 16 */
(PID.TID 0000.0001)                 3.300000000000001E+00,      /* I = 17 */
(PID.TID 0000.0001)                 3.500000000000001E+00,      /* I = 18 */
(PID.TID 0000.0001)                 3.700000000000001E+00,      /* I = 19 */
(PID.TID 0000.0001)                 3.900000000000001E+00,      /* I = 20 */
(PID.TID 0000.0001)                 4.100000000000001E+00,      /* I = 21 */
(PID.TID 0000.0001)                 4.300000000000001E+00,      /* I = 22 */
(PID.TID 0000.0001)                 4.500000000000002E+00,      /* I = 23 */
(PID.TID 0000.0001)                 4.700000000000001E+00,      /* I = 24 */
(PID.TID 0000.0001)                 4.900000000000002E+00,      /* I = 25 */
(PID.TID 0000.0001)                 5.100000000000001E+00,      /* I = 26 */
(PID.TID 0000.0001)                 5.300000000000002E+00,      /* I = 27 */
(PID.TID 0000.0001)                 5.500000000000002E+00,      /* I = 28 */
(PID.TID 0000.0001)                 5.700000000000003E+00,      /* I = 29 */
(PID.TID 0000.0001)                 5.900000000000003E+00,      /* I = 30 */
(PID.TID 0000.0001)                 6.100000000000003E+00,      /* I = 31 */
(PID.TID 0000.0001)                 6.300000000000002E+00,      /* I = 32 */
(PID.TID 0000.0001)                 6.500000000000004E+00,      /* I = 33 */
(PID.TID 0000.0001)                 6.700000000000003E+00,      /* I = 34 */
(PID.TID 0000.0001)                 6.900000000000004E+00,      /* I = 35 */
(PID.TID 0000.0001)                 7.100000000000003E+00,      /* I = 36 */
(PID.TID 0000.0001)                 7.300000000000004E+00,      /* I = 37 */
(PID.TID 0000.0001)                 7.500000000000004E+00,      /* I = 38 */
(PID.TID 0000.0001)                 7.700000000000005E+00,      /* I = 39 */
(PID.TID 0000.0001)                 7.900000000000004E+00,      /* I = 40 */
(PID.TID 0000.0001)                 8.100000000000003E+00,      /* I = 41 */
(PID.TID 0000.0001)                 8.300000000000002E+00,      /* I = 42 */
(PID.TID 0000.0001)                 8.500000000000002E+00,      /* I = 43 */
(PID.TID 0000.0001)                 8.700000000000001E+00,      /* I = 44 */
(PID.TID 0000.0001)                 8.900000000000000E+00,      /* I = 45 */
(PID.TID 0000.0001)                 9.100000000000000E+00,      /* I = 46 */
(PID.TID 0000.0001)                 9.299999999999999E+00,      /* I = 47 */
(PID.TID 0000.0001)                 9.499999999999998E+00,      /* I = 48 */
(PID.TID 0000.0001)                 9.699999999999998E+00,      /* I = 49 */
(PID.TID 0000.0001)                 9.899999999999997E+00,      /* I = 50 */
(PID.TID 0000.0001)                 1.010000000000000E+01,      /* I = 51 */
(PID.TID 0000.0001)                 1.030000000000000E+01       /* I = 52 */
(PID.TID 0000.0001)     ;
(PID.TID 0000.0001) yC =  /* yC(1,:,1,:) : P-point Y coord ( deg. or m if cartesian) */
(PID.TID 0000.0001)                 1.000000000000000E-01       /* J =  1 */
(PID.TID 0000.0001)     ;
(PID.TID 0000.0001) rcoord = /* P-point R coordinate (  units of r ) */
(PID.TID 0000.0001)                -1.000000000000000E-01,      /* K =  1 */
(PID.TID 0000.0001)                -3.000000000000000E-01,      /* K =  2 */
(PID.TID 0000.0001)                -5.000000000000000E-01,      /* K =  3 */
(PID.TID 0000.0001)                -7.000000000000000E-01,      /* K =  4 */
(PID.TID 0000.0001)                -8.999999999999999E-01,      /* K =  5 */
(PID.TID 0000.0001)                -1.100000000000000E+00,      /* K =  6 */
(PID.TID 0000.0001)                -1.300000000000000E+00,      /* K =  7 */
(PID.TID 0000.0001)                -1.500000000000000E+00,      /* K =  8 */
(PID.TID 0000.0001)                -1.700000000000000E+00,      /* K =  9 */
(PID.TID 0000.0001)                -1.900000000000000E+00,      /* K = 10 */
(PID.TID 0000.0001)                -2.100000000000000E+00,      /* K = 11 */
(PID.TID 0000.0001)                -2.300000000000000E+00,      /* K = 12 */
(PID.TID 0000.0001)                -2.500000000000000E+00,      /* K = 13 */
(PID.TID 0000.0001)                -2.700000000000000E+00,      /* K = 14 */
(PID.TID 0000.0001)                -2.900000000000000E+00,      /* K = 15 */
(PID.TID 0000.0001)                -3.100000000000001E+00,      /* K = 16 */
(PID.TID 0000.0001)                -3.300000000000001E+00,      /* K = 17 */
(PID.TID 0000.0001)                -3.500000000000001E+00,      /* K = 18 */
(PID.TID 0000.0001)                -3.700000000000001E+00,      /* K = 19 */
(PID.TID 0000.0001)                -3.900000000000001E+00,      /* K = 20 */
(PID.TID 0000.0001)                -4.100000000000001E+00,      /* K = 21 */
(PID.TID 0000.0001)                -4.300000000000002E+00,      /* K = 22 */
(PID.TID 0000.0001)                -4.500000000000002E+00,      /* K = 23 */
(PID.TID 0000.0001)                -4.700000000000002E+00,      /* K = 24 */
(PID.TID 0000.0001)                -4.900000000000002E+00,      /* K = 25 */
(PID.TID 0000.0001)                -5.100000000000002E+00,      /* K = 26 */
(PID.TID 0000.0001)                -5.300000000000002E+00,      /* K = 27 */
(PID.TID 0000.0001)                -5.500000000000003E+00,      /* K = 28 */
(PID.TID 0000.0001)                -5.700000000000003E+00,      /* K = 29 */
(PID.TID 0000.0001)                -5.900000000000003E+00,      /* K = 30 */
(PID.TID 0000.0001)                -6.100000000000003E+00,      /* K = 31 */
(PID.TID 0000.0001)                -6.300000000000003E+00,      /* K = 32 */
(PID.TID 0000.0001)                -6.500000000000004E+00,      /* K = 33 */
(PID.TID 0000.0001)                -6.700000000000004E+00,      /* K = 34 */
(PID.TID 0000.0001)                -6.900000000000004E+00,      /* K = 35 */
(PID.TID 0000.0001)                -7.100000000000004E+00,      /* K = 36 */
(PID.TID 0000.0001)                -7.300000000000004E+00,      /* K = 37 */
(PID.TID 0000.0001)                -7.500000000000004E+00,      /* K = 38 */
(PID.TID 0000.0001)                -7.700000000000005E+00,      /* K = 39 */
(PID.TID 0000.0001)                -7.900000000000005E+00,      /* K = 40 */
(PID.TID 0000.0001)                -8.100000000000005E+00,      /* K = 41 */
(PID.TID 0000.0001)                -8.300000000000004E+00,      /* K = 42 */
(PID.TID 0000.0001)                -8.500000000000004E+00,      /* K = 43 */
(PID.TID 0000.0001)                -8.700000000000003E+00,      /* K = 44 */
(PID.TID 0000.0001)                -8.900000000000002E+00,      /* K = 45 */
(PID.TID 0000.0001)                -9.100000000000001E+00,      /* K = 46 */
(PID.TID 0000.0001)                -9.300000000000001E+00,      /* K = 47 */
(PID.TID 0000.0001)                -9.500000000000000E+00,      /* K = 48 */
(PID.TID 0000.0001)                -9.699999999999999E+00,      /* K = 49 */
(PID.TID 0000.0001)                -9.899999999999999E+00       /* K = 50 */
(PID.TID 0000.0001)     ;
(PID.TID 0000.0001) rF =   /* W-Interf. R coordinate (  units of r ) */
(PID.TID 0000.0001)                 0.000000000000000E+00,      /* K =  1 */
(PID.TID 0000.0001)                -2.000000000000000E-01,      /* K =  2 */
(PID.TID 0000.0001)                -4.000000000000000E-01,      /* K =  3 */
(PID.TID 0000.0001)                -6.000000000000001E-01,      /* K =  4 */
(PID.TID 0000.0001)                -8.000000000000000E-01,      /* K =  5 */
(PID.TID 0000.0001)                -1.000000000000000E+00,      /* K =  6 */
(PID.TID 0000.0001)                -1.200000000000000E+00,      /* K =  7 */
(PID.TID 0000.0001)                -1.400000000000000E+00,      /* K =  8 */
(PID.TID 0000.0001)                -1.600000000000000E+00,      /* K =  9 */
(PID.TID 0000.0001)                -1.800000000000000E+00,      /* K = 10 */
(PID.TID 0000.0001)                -2.000000000000000E+00,      /* K = 11 */
(PID.TID 0000.0001)                -2.200000000000000E+00,      /* K = 12 */
(PID.TID 0000.0001)                -2.400000000000000E+00,      /* K = 13 */
(PID.TID 0000.0001)                -2.600000000000000E+00,      /* K = 14 */
(PID.TID 0000.0001)                -2.800000000000000E+00,      /* K = 15 */
(PID.TID 0000.0001)                -3.000000000000000E+00,      /* K = 16 */
(PID.TID 0000.0001)                -3.200000000000001E+00,      /* K = 17 */
(PID.TID 0000.0001)                -3.400000000000001E+00,      /* K = 18 */
(PID.TID 0000.0001)                -3.600000000000001E+00,      /* K = 19 */
(PID.TID 0000.0001)                -3.800000000000001E+00,      /* K = 20 */
(PID.TID 0000.0001)                -4.000000000000001E+00,      /* K = 21 */
(PID.TID 0000.0001)                -4.200000000000001E+00,      /* K = 22 */
(PID.TID 0000.0001)                -4.400000000000001E+00,      /* K = 23 */
(PID.TID 0000.0001)                -4.600000000000001E+00,      /* K = 24 */
(PID.TID 0000.0001)                -4.800000000000002E+00,      /* K = 25 */
(PID.TID 0000.0001)                -5.000000000000002E+00,      /* K = 26 */
(PID.TID 0000.0001)                -5.200000000000002E+00,      /* K = 27 */
(PID.TID 0000.0001)                -5.400000000000002E+00,      /* K = 28 */
(PID.TID 0000.0001)                -5.600000000000002E+00,      /* K = 29 */
(PID.TID 0000.0001)                -5.800000000000002E+00,      /* K = 30 */
(PID.TID 0000.0001)                -6.000000000000003E+00,      /* K = 31 */
(PID.TID 0000.0001)                -6.200000000000003E+00,      /* K = 32 */
(PID.TID 0000.0001)                -6.400000000000003E+00,      /* K = 33 */
(PID.TID 0000.0001)                -6.600000000000003E+00,      /* K = 34 */
(PID.TID 0000.0001)                -6.800000000000003E+00,      /* K = 35 */
(PID.TID 0000.0001)                -7.000000000000004E+00,      /* K = 36 */
(PID.TID 0000.0001)                -7.200000000000004E+00,      /* K = 37 */
(PID.TID 0000.0001)                -7.400000000000004E+00,      /* K = 38 */
(PID.TID 0000.0001)                -7.600000000000004E+00,      /* K = 39 */
(PID.TID 0000.0001)                -7.800000000000004E+00,      /* K = 40 */
(PID.TID 0000.0001)                -8.000000000000004E+00,      /* K = 41 */
(PID.TID 0000.0001)                -8.200000000000003E+00,      /* K = 42 */
(PID.TID 0000.0001)                -8.400000000000002E+00,      /* K = 43 */
(PID.TID 0000.0001)                -8.600000000000001E+00,      /* K = 44 */
(PID.TID 0000.0001)                -8.800000000000001E+00,      /* K = 45 */
(PID.TID 0000.0001)                -9.000000000000000E+00,      /* K = 46 */
(PID.TID 0000.0001)                -9.199999999999999E+00,      /* K = 47 */
(PID.TID 0000.0001)                -9.399999999999999E+00,      /* K = 48 */
(PID.TID 0000.0001)                -9.599999999999998E+00,      /* K = 49 */
(PID.TID 0000.0001)                -9.799999999999997E+00,      /* K = 50 */
(PID.TID 0000.0001)                -9.999999999999996E+00       /* K = 51 */
(PID.TID 0000.0001)     ;
(PID.TID 0000.0001) deepFacC = /* deep-model grid factor @ cell-Center (-) */
(PID.TID 0000.0001)    50 @  1.000000000000000E+00              /* K =  1: 50 */
(PID.TID 0000.0001)     ;
(PID.TID 0000.0001) deepFacF = /* deep-model grid factor @ W-Interface (-) */
(PID.TID 0000.0001)    51 @  1.000000000000000E+00              /* K =  1: 51 */
(PID.TID 0000.0001)     ;
(PID.TID 0000.0001) rotateGrid = /* use rotated grid ( True/False ) */
(PID.TID 0000.0001)                   F
(PID.TID 0000.0001)     ;
(PID.TID 0000.0001) phiEuler = /* Euler angle, rotation about original z-coordinate [rad] */
(PID.TID 0000.0001)                 0.000000000000000E+00
(PID.TID 0000.0001)     ;
(PID.TID 0000.0001) thetaEuler = /* Euler angle, rotation about new x-coordinate [rad] */
(PID.TID 0000.0001)                 0.000000000000000E+00
(PID.TID 0000.0001)     ;
(PID.TID 0000.0001) psiEuler = /* Euler angle, rotation about new z-coordinate [rad] */
(PID.TID 0000.0001)                 0.000000000000000E+00
(PID.TID 0000.0001)     ;
(PID.TID 0000.0001) dxF =  /* dxF(:,1,:,1) ( units: m ) */
(PID.TID 0000.0001)    52 @  2.000000000000000E-01              /* I =  1: 52 */
(PID.TID 0000.0001)     ;
(PID.TID 0000.0001) dxF =  /* dxF(1,:,1,:) ( units: m ) */
(PID.TID 0000.0001)                 2.000000000000000E-01       /* J =  1 */
(PID.TID 0000.0001)     ;
(PID.TID 0000.0001) dyF =  /* dyF(:,1,:,1) ( units: m ) */
(PID.TID 0000.0001)    52 @  2.000000000000000E-01              /* I =  1: 52 */
(PID.TID 0000.0001)     ;
(PID.TID 0000.0001) dyF =  /* dyF(1,:,1,:) ( units: m ) */
(PID.TID 0000.0001)                 2.000000000000000E-01       /* J =  1 */
(PID.TID 0000.0001)     ;
(PID.TID 0000.0001) dxG =  /* dxG(:,1,:,1) ( units: m ) */
(PID.TID 0000.0001)    52 @  2.000000000000000E-01              /* I =  1: 52 */
(PID.TID 0000.0001)     ;
(PID.TID 0000.0001) dxG =  /* dxG(1,:,1,:) ( units: m ) */
(PID.TID 0000.0001)                 2.000000000000000E-01       /* J =  1 */
(PID.TID 0000.0001)     ;
(PID.TID 0000.0001) dyG =  /* dyG(:,1,:,1) ( units: m ) */
(PID.TID 0000.0001)    52 @  2.000000000000000E-01              /* I =  1: 52 */
(PID.TID 0000.0001)     ;
(PID.TID 0000.0001) dyG =  /* dyG(1,:,1,:) ( units: m ) */
(PID.TID 0000.0001)                 2.000000000000000E-01       /* J =  1 */
(PID.TID 0000.0001)     ;
(PID.TID 0000.0001) dxC =  /* dxC(:,1,:,1) ( units: m ) */
(PID.TID 0000.0001)    52 @  2.000000000000000E-01              /* I =  1: 52 */
(PID.TID 0000.0001)     ;
(PID.TID 0000.0001) dxC =  /* dxC(1,:,1,:) ( units: m ) */
(PID.TID 0000.0001)                 2.000000000000000E-01       /* J =  1 */
(PID.TID 0000.0001)     ;
(PID.TID 0000.0001) dyC =  /* dyC(:,1,:,1) ( units: m ) */
(PID.TID 0000.0001)    52 @  2.000000000000000E-01              /* I =  1: 52 */
(PID.TID 0000.0001)     ;
(PID.TID 0000.0001) dyC =  /* dyC(1,:,1,:) ( units: m ) */
(PID.TID 0000.0001)                 2.000000000000000E-01       /* J =  1 */
(PID.TID 0000.0001)     ;
(PID.TID 0000.0001) dxV =  /* dxV(:,1,:,1) ( units: m ) */
(PID.TID 0000.0001)    52 @  2.000000000000000E-01              /* I =  1: 52 */
(PID.TID 0000.0001)     ;
(PID.TID 0000.0001) dxV =  /* dxV(1,:,1,:) ( units: m ) */
(PID.TID 0000.0001)                 2.000000000000000E-01       /* J =  1 */
(PID.TID 0000.0001)     ;
(PID.TID 0000.0001) dyU =  /* dyU(:,1,:,1) ( units: m ) */
(PID.TID 0000.0001)    52 @  2.000000000000000E-01              /* I =  1: 52 */
(PID.TID 0000.0001)     ;
(PID.TID 0000.0001) dyU =  /* dyU(1,:,1,:) ( units: m ) */
(PID.TID 0000.0001)                 2.000000000000000E-01       /* J =  1 */
(PID.TID 0000.0001)     ;
(PID.TID 0000.0001) rA  =  /* rA (:,1,:,1) ( units: m^2 ) */
(PID.TID 0000.0001)    52 @  4.000000000000001E-02              /* I =  1: 52 */
(PID.TID 0000.0001)     ;
(PID.TID 0000.0001) rA  =  /* rA (1,:,1,:) ( units: m^2 ) */
(PID.TID 0000.0001)                 4.000000000000001E-02       /* J =  1 */
(PID.TID 0000.0001)     ;
(PID.TID 0000.0001) rAw =  /* rAw(:,1,:,1) ( units: m^2 ) */
(PID.TID 0000.0001)    52 @  4.000000000000001E-02              /* I =  1: 52 */
(PID.TID 0000.0001)     ;
(PID.TID 0000.0001) rAw =  /* rAw(1,:,1,:) ( units: m^2 ) */
(PID.TID 0000.0001)                 4.000000000000001E-02       /* J =  1 */
(PID.TID 0000.0001)     ;
(PID.TID 0000.0001) rAs =  /* rAs(:,1,:,1) ( units: m^2 ) */
(PID.TID 0000.0001)    52 @  4.000000000000001E-02              /* I =  1: 52 */
(PID.TID 0000.0001)     ;
(PID.TID 0000.0001) rAs =  /* rAs(1,:,1,:) ( units: m^2 ) */
(PID.TID 0000.0001)                 4.000000000000001E-02       /* J =  1 */
(PID.TID 0000.0001)     ;
(PID.TID 0000.0001) globalArea = /* Integrated horizontal Area (m^2) */
(PID.TID 0000.0001)                 2.000000000000001E+00
(PID.TID 0000.0001)     ;
(PID.TID 0000.0001) // =======================================================
(PID.TID 0000.0001) // End of Model config. summary
(PID.TID 0000.0001) // =======================================================
(PID.TID 0000.0001) 
(PID.TID 0000.0001) == Packages configuration : Check & print summary ==
(PID.TID 0000.0001) 
(PID.TID 0000.0001) // =======================================================
(PID.TID 0000.0001) // Check Model config. (CONFIG_CHECK):
(PID.TID 0000.0001) // CONFIG_CHECK : Normal End
(PID.TID 0000.0001) // =======================================================
(PID.TID 0000.0001) 
(PID.TID 0000.0001)  MDS_READ_FIELD: opening global file: Eta_ini.bin
(PID.TID 0000.0001) Start initial hydrostatic pressure computation
(PID.TID 0000.0001) Pressure is predetermined for buoyancyRelation OCEANIC
(PID.TID 0000.0001) 
(PID.TID 0000.0001) DIAGSTATS_INI_IO: open file: dynStDiag.0000000000.txt , unit=     9
(PID.TID 0000.0001)  write diagnostics summary to file ioUnit:      6
Iter.Nb:         0 ; Time(s):  0.0000000000000E+00
------------------------------------------------------------------------
2D/3D diagnostics: Number of lists:     1
------------------------------------------------------------------------
listId=    1 ; file name: surfDiag
 nFlds, nActive,       freq     &     phase        , nLev               
    3  |    3  |        -0.250000         0.000000 |   1
 levels:   1
 diag# | name   |   ipt  |  iMate | kLev|   count |   mate.C|           
    23 |ETAN    |      1 |      0 |   1 |       0 |
    24 |ETANSQ  |      2 |      0 |   1 |       0 |
    25 |DETADT2 |      3 |      0 |   1 |       0 |
------------------------------------------------------------------------
Global & Regional Statistics diagnostics: Number of lists:     1
------------------------------------------------------------------------
listId=   1 ; file name: dynStDiag
 nFlds, nActive,       freq     &     phase        |                    
    5  |    5  |        -0.100000         0.000000 |
 Regions:   0
 diag# | name   |   ipt  |  iMate |    Volume   |   mate-Vol. |         
    23 |ETAN    |      1 |      0 | 0.00000E+00 |
    24 |ETANSQ  |      2 |      0 | 0.00000E+00 |
    25 |DETADT2 |      3 |      0 | 0.00000E+00 |
    30 |UVEL    |      4 |      0 | 0.00000E+00 |
    32 |WVEL    |     54 |      0 | 0.00000E+00 |
------------------------------------------------------------------------
(PID.TID 0000.0001) // =======================================================
(PID.TID 0000.0001) // Model current state
(PID.TID 0000.0001) // =======================================================
(PID.TID 0000.0001) 
(PID.TID 0000.0001) // =======================================================
(PID.TID 0000.0001) // Begin MONITOR dynamic field statistics
(PID.TID 0000.0001) // =======================================================
(PID.TID 0000.0001) %MON time_tsnumber                =                     0
(PID.TID 0000.0001) %MON time_secondsf                =   0.0000000000000E+00
(PID.TID 0000.0001) %MON dynstat_eta_max              =   1.4992598405486E-01
(PID.TID 0000.0001) %MON dynstat_eta_min              =  -1.4992598405486E-01
(PID.TID 0000.0001) %MON dynstat_eta_mean             =  -3.0357660829594E-17
(PID.TID 0000.0001) %MON dynstat_eta_sd               =   1.0606601717798E-01
(PID.TID 0000.0001) %MON dynstat_eta_del2             =   5.6783303734983E-05
(PID.TID 0000.0001) %MON dynstat_uvel_max             =   0.0000000000000E+00
(PID.TID 0000.0001) %MON dynstat_uvel_min             =   0.0000000000000E+00
(PID.TID 0000.0001) %MON dynstat_uvel_mean            =   0.0000000000000E+00
(PID.TID 0000.0001) %MON dynstat_uvel_sd              =   0.0000000000000E+00
(PID.TID 0000.0001) %MON dynstat_uvel_del2            =   0.0000000000000E+00
(PID.TID 0000.0001) %MON dynstat_vvel_max             =   0.0000000000000E+00
(PID.TID 0000.0001) %MON dynstat_vvel_min             =   0.0000000000000E+00
(PID.TID 0000.0001) %MON dynstat_vvel_mean            =   0.0000000000000E+00
(PID.TID 0000.0001) %MON dynstat_vvel_sd              =   0.0000000000000E+00
(PID.TID 0000.0001) %MON dynstat_vvel_del2            =   0.0000000000000E+00
(PID.TID 0000.0001) %MON dynstat_wvel_max             =  -0.0000000000000E+00
(PID.TID 0000.0001) %MON dynstat_wvel_min             =  -0.0000000000000E+00
(PID.TID 0000.0001) %MON dynstat_wvel_mean            =   0.0000000000000E+00
(PID.TID 0000.0001) %MON dynstat_wvel_sd              =   0.0000000000000E+00
(PID.TID 0000.0001) %MON dynstat_wvel_del2            =   0.0000000000000E+00
(PID.TID 0000.0001) %MON dynstat_theta_max            =   1.0000000000000E+01
(PID.TID 0000.0001) %MON dynstat_theta_min            =   1.0000000000000E+01
(PID.TID 0000.0001) %MON dynstat_theta_mean           =   9.9999999999999E+00
(PID.TID 0000.0001) %MON dynstat_theta_sd             =   1.4921397450962E-13
(PID.TID 0000.0001) %MON dynstat_theta_del2           =   0.0000000000000E+00
(PID.TID 0000.0001) %MON dynstat_salt_max             =   3.5000000000000E+01
(PID.TID 0000.0001) %MON dynstat_salt_min             =   3.5000000000000E+01
(PID.TID 0000.0001) %MON dynstat_salt_mean            =   3.5000000000000E+01
(PID.TID 0000.0001) %MON dynstat_salt_sd              =   9.9475983006414E-14
(PID.TID 0000.0001) %MON dynstat_salt_del2            =   0.0000000000000E+00
(PID.TID 0000.0001) %MON advcfl_uvel_max              =   0.0000000000000E+00
(PID.TID 0000.0001) %MON advcfl_vvel_max              =   0.0000000000000E+00
(PID.TID 0000.0001) %MON advcfl_wvel_max              =   0.0000000000000E+00
(PID.TID 0000.0001) %MON advcfl_W_hf_max              =   0.0000000000000E+00
(PID.TID 0000.0001) %MON pe_b_mean                    =   5.6250000000000E-03
(PID.TID 0000.0001) %MON ke_max                       =   0.0000000000000E+00
(PID.TID 0000.0001) %MON ke_mean                      =   0.0000000000000E+00
(PID.TID 0000.0001) %MON ke_vol                       =   2.0000000000000E+01
(PID.TID 0000.0001) // =======================================================
(PID.TID 0000.0001) // End MONITOR dynamic field statistics
(PID.TID 0000.0001) // =======================================================
(PID.TID 0000.0001) SOLVE_FOR_PRESSURE: putPmEinXvector =    F
(PID.TID 0000.0001) SOLVE_FOR_PRESSURE: oldFreeSurfTerm =    F
 cg2d: Sum(rhs),rhsMax =   1.36424205265939E-12  9.59467129014663E+01
(PID.TID 0000.0001)      cg2d_init_res =   5.91981471519121E-02
(PID.TID 0000.0001)      cg2d_iters(min,last) =      -1       4
(PID.TID 0000.0001)      cg2d_last_res =   8.07420175610450E-14
 cg3d: Sum(rhs),rhsMax =   2.66453525910038E-15  1.18330576055745E-02
(PID.TID 0000.0001)      cg3d_init_res =   4.18310863464068E-01
(PID.TID 0000.0001)      cg3d_iters (last) =                145
(PID.TID 0000.0001)      cg3d_last_res =   4.37876824458006E-14
(PID.TID 0000.0001) // =======================================================
(PID.TID 0000.0001) // Begin MONITOR dynamic field statistics
(PID.TID 0000.0001) // =======================================================
(PID.TID 0000.0001) %MON time_tsnumber                =                     1
(PID.TID 0000.0001) %MON time_secondsf                =   5.0000000000000E-03
(PID.TID 0000.0001) %MON dynstat_eta_max              =   1.4992012243936E-01
(PID.TID 0000.0001) %MON dynstat_eta_min              =  -1.4992012243936E-01
(PID.TID 0000.0001) %MON dynstat_eta_mean             =  -3.4694469519536E-17
(PID.TID 0000.0001) %MON dynstat_eta_sd               =   1.0606187034370E-01
(PID.TID 0000.0001) %MON dynstat_eta_del2             =   5.6781083693573E-05
(PID.TID 0000.0001) %MON dynstat_uvel_max             =   2.2820774034824E-03
(PID.TID 0000.0001) %MON dynstat_uvel_min             =   1.2773668054716E-05
(PID.TID 0000.0001) %MON dynstat_uvel_mean            =   4.8498060885099E-04
(PID.TID 0000.0001) %MON dynstat_uvel_sd              =   4.7297372541866E-04
(PID.TID 0000.0001) %MON dynstat_uvel_del2            =   5.4004410612283E-08
(PID.TID 0000.0001) %MON dynstat_vvel_max             =   0.0000000000000E+00
(PID.TID 0000.0001) %MON dynstat_vvel_min             =   0.0000000000000E+00
(PID.TID 0000.0001) %MON dynstat_vvel_mean            =   0.0000000000000E+00
(PID.TID 0000.0001) %MON dynstat_vvel_sd              =   0.0000000000000E+00
(PID.TID 0000.0001) %MON dynstat_vvel_del2            =   0.0000000000000E+00
(PID.TID 0000.0001) %MON dynstat_wvel_max             =   2.3446461982988E-03
(PID.TID 0000.0001) %MON dynstat_wvel_min             =  -2.3446461982986E-03
(PID.TID 0000.0001) %MON dynstat_wvel_mean            =  -1.7522459353301E-19
(PID.TID 0000.0001) %MON dynstat_wvel_sd              =   6.5899147474177E-04
(PID.TID 0000.0001) %MON dynstat_wvel_del2            =   5.1206719809764E-08
(PID.TID 0000.0001) %MON dynstat_theta_max            =   1.0000000000000E+01
(PID.TID 0000.0001) %MON dynstat_theta_min            =   1.0000000000000E+01
(PID.TID 0000.0001) %MON dynstat_theta_mean           =   9.9999999999999E+00
(PID.TID 0000.0001) %MON dynstat_theta_sd             =   1.4921397450962E-13
(PID.TID 0000.0001) %MON dynstat_theta_del2           =   0.0000000000000E+00
(PID.TID 0000.0001) %MON dynstat_salt_max             =   3.5000000000000E+01
(PID.TID 0000.0001) %MON dynstat_salt_min             =   3.5000000000000E+01
(PID.TID 0000.0001) %MON dynstat_salt_mean            =   3.5000000000000E+01
(PID.TID 0000.0001) %MON dynstat_salt_sd              =   9.9475983006414E-14
(PID.TID 0000.0001) %MON dynstat_salt_del2            =   0.0000000000000E+00
(PID.TID 0000.0001) %MON advcfl_uvel_max              =   5.7051935087059E-05
(PID.TID 0000.0001) %MON advcfl_vvel_max              =   0.0000000000000E+00
(PID.TID 0000.0001) %MON advcfl_wvel_max              =   1.1723230991494E-04
(PID.TID 0000.0001) %MON advcfl_W_hf_max              =   5.5033834313200E-05
(PID.TID 0000.0001) %MON pe_b_mean                    =   5.6245601704023E-03
(PID.TID 0000.0001) %MON ke_max                       =   2.6013592219487E-06
(PID.TID 0000.0001) %MON ke_mean                      =   4.3982959766222E-07
(PID.TID 0000.0001) %MON ke_vol                       =   2.0000000000000E+01
(PID.TID 0000.0001) // =======================================================
(PID.TID 0000.0001) // End MONITOR dynamic field statistics
(PID.TID 0000.0001) // =======================================================
 Computing Diagnostic #    23 "ETAN    " (list#  1) Parms "SM      M1      ", Count=       1
 Computing Diagnostic #    24 "ETANSQ  " (list#  1) Parms "SM P    M1      ", Count=       1
 Computing Diagnostic #    25 "DETADT2 " (list#  1) Parms "SM      M1      ", Count=       1
 Compute Stats, Diag. #    23 "ETAN    " (list#  1) Parms "SM      M1      ", vol(  0 )= 2.000E+00
 Compute Stats, Diag. #    24 "ETANSQ  " (list#  1) Parms "SM P    M1      ", vol(  0 )= 2.000E+00
 Compute Stats, Diag. #    25 "DETADT2 " (list#  1) Parms "SM      M1      ", vol(  0 )= 2.000E+00
 Compute Stats, Diag. #    30 "UVEL    " (list#  1) Parms "UUR     MR      ", vol(  0 )= 1.960E+01
 Compute Stats, Diag. #    32 "WVEL    " (list#  1) Parms "WM      LR      ", vol(  0 )= 1.980E+01
 cg2d: Sum(rhs),rhsMax =   1.13686837721616E-12  9.59435409541832E+01
(PID.TID 0000.0001)      cg2d_init_res =   5.62981318236280E-02
(PID.TID 0000.0001)      cg2d_iters(min,last) =      -1       4
(PID.TID 0000.0001)      cg2d_last_res =   7.67866051064948E-14
 cg3d: Sum(rhs),rhsMax =  -4.96436491484275E-05  1.03429831416549E-06
(PID.TID 0000.0001)      cg3d_init_res =   4.18343572703503E-01
(PID.TID 0000.0001)      cg3d_iters (last) =                200
(PID.TID 0000.0001)      cg3d_last_res =   1.11159035490088E-13
(PID.TID 0000.0001) // =======================================================
(PID.TID 0000.0001) // Begin MONITOR dynamic field statistics
(PID.TID 0000.0001) // =======================================================
(PID.TID 0000.0001) %MON time_tsnumber                =                     2
(PID.TID 0000.0001) %MON time_secondsf                =   1.0000000000000E-02
(PID.TID 0000.0001) %MON dynstat_eta_max              =   1.4990253805226E-01
(PID.TID 0000.0001) %MON dynstat_eta_min              =  -1.4990253805018E-01
(PID.TID 0000.0001) %MON dynstat_eta_mean             =  -5.2041704279304E-17
(PID.TID 0000.0001) %MON dynstat_eta_sd               =   1.0604943016513E-01
(PID.TID 0000.0001) %MON dynstat_eta_del2             =   5.6774423742936E-05
(PID.TID 0000.0001) %MON dynstat_uvel_max             =   4.5639763450577E-03
(PID.TID 0000.0001) %MON dynstat_uvel_min             =   2.5546337287538E-05
(PID.TID 0000.0001) %MON dynstat_uvel_mean            =   9.6992329515981E-04
(PID.TID 0000.0001) %MON dynstat_uvel_sd              =   9.4591046673240E-04
(PID.TID 0000.0001) %MON dynstat_uvel_del2            =   1.0800459838341E-07
(PID.TID 0000.0001) %MON dynstat_vvel_max             =   0.0000000000000E+00
(PID.TID 0000.0001) %MON dynstat_vvel_min             =   0.0000000000000E+00
(PID.TID 0000.0001) %MON dynstat_vvel_mean            =   0.0000000000000E+00
(PID.TID 0000.0001) %MON dynstat_vvel_sd              =   0.0000000000000E+00
(PID.TID 0000.0001) %MON dynstat_vvel_del2            =   0.0000000000000E+00
(PID.TID 0000.0001) %MON dynstat_wvel_max             =   4.6891094757187E-03
(PID.TID 0000.0001) %MON dynstat_wvel_min             =  -4.6891086432518E-03
(PID.TID 0000.0001) %MON dynstat_wvel_mean            =  -5.6947992898228E-19
(PID.TID 0000.0001) %MON dynstat_wvel_sd              =   1.3179314206513E-03
(PID.TID 0000.0001) %MON dynstat_wvel_del2            =   1.0240943558658E-07
(PID.TID 0000.0001) %MON dynstat_theta_max            =   1.0000000000000E+01
(PID.TID 0000.0001) %MON dynstat_theta_min            =   1.0000000000000E+01
(PID.TID 0000.0001) %MON dynstat_theta_mean           =   9.9999999999999E+00
(PID.TID 0000.0001) %MON dynstat_theta_sd             =   1.4921397450962E-13
(PID.TID 0000.0001) %MON dynstat_theta_del2           =   0.0000000000000E+00
(PID.TID 0000.0001) %MON dynstat_salt_max             =   3.5000000000000E+01
(PID.TID 0000.0001) %MON dynstat_salt_min             =   3.5000000000000E+01
(PID.TID 0000.0001) %MON dynstat_salt_mean            =   3.5000000000000E+01
(PID.TID 0000.0001) %MON dynstat_salt_sd              =   9.9475983006414E-14
(PID.TID 0000.0001) %MON dynstat_salt_del2            =   0.0000000000000E+00
(PID.TID 0000.0001) %MON advcfl_uvel_max              =   1.1409940862644E-04
(PID.TID 0000.0001) %MON advcfl_vvel_max              =   0.0000000000000E+00
(PID.TID 0000.0001) %MON advcfl_wvel_max              =   2.3445547378593E-04
(PID.TID 0000.0001) %MON advcfl_W_hf_max              =   1.1006336556738E-04
(PID.TID 0000.0001) %MON pe_b_mean                    =   5.6232408191741E-03
(PID.TID 0000.0001) %MON ke_max                       =   1.0404624078963E-05
(PID.TID 0000.0001) %MON ke_mean                      =   1.7591808253104E-06
(PID.TID 0000.0001) %MON ke_vol                       =   2.0000000000000E+01
(PID.TID 0000.0001) // =======================================================
(PID.TID 0000.0001) // End MONITOR dynamic field statistics
(PID.TID 0000.0001) // =======================================================
 cg2d: Sum(rhs),rhsMax =   1.59161572810262E-12  9.59167026094851E+01
(PID.TID 0000.0001)      cg2d_init_res =   1.34254834808600E-01
(PID.TID 0000.0001)      cg2d_iters(min,last) =      -1       4
(PID.TID 0000.0001)      cg2d_last_res =   1.83113944460622E-13
 cg3d: Sum(rhs),rhsMax =  -1.50971397070876E-04  1.18315387154058E-02
(PID.TID 0000.0001)      cg3d_init_res =   4.18278156866452E-01
(PID.TID 0000.0001)      cg3d_iters (last) =                200
(PID.TID 0000.0001)      cg3d_last_res =   2.32027044911498E-13
(PID.TID 0000.0001) // =======================================================
(PID.TID 0000.0001) // Begin MONITOR dynamic field statistics
(PID.TID 0000.0001) // =======================================================
(PID.TID 0000.0001) %MON time_tsnumber                =                     3
(PID.TID 0000.0001) %MON time_secondsf                =   1.5000000000000E-02
(PID.TID 0000.0001) %MON dynstat_eta_max              =   1.4987323227274E-01
(PID.TID 0000.0001) %MON dynstat_eta_min              =  -1.4987323225809E-01
(PID.TID 0000.0001) %MON dynstat_eta_mean             =  -3.9031278209478E-17
(PID.TID 0000.0001) %MON dynstat_eta_sd               =   1.0602869761500E-01
(PID.TID 0000.0001) %MON dynstat_eta_del2             =   5.6763324403839E-05
(PID.TID 0000.0001) %MON dynstat_uvel_max             =   6.8455183950729E-03
(PID.TID 0000.0001) %MON dynstat_uvel_min             =   3.8317008949399E-05
(PID.TID 0000.0001) %MON dynstat_uvel_mean            =   1.4547901395754E-03
(PID.TID 0000.0001) %MON dynstat_uvel_sd              =   1.4187732433720E-03
(PID.TID 0000.0001) %MON dynstat_uvel_del2            =   1.6199634085176E-07
(PID.TID 0000.0001) %MON dynstat_vvel_max             =   0.0000000000000E+00
(PID.TID 0000.0001) %MON dynstat_vvel_min             =   0.0000000000000E+00
(PID.TID 0000.0001) %MON dynstat_vvel_mean            =   0.0000000000000E+00
(PID.TID 0000.0001) %MON dynstat_vvel_sd              =   0.0000000000000E+00
(PID.TID 0000.0001) %MON dynstat_vvel_del2            =   0.0000000000000E+00
(PID.TID 0000.0001) %MON dynstat_wvel_max             =   7.0332073600475E-03
(PID.TID 0000.0001) %MON dynstat_wvel_min             =  -7.0332031636274E-03
(PID.TID 0000.0001) %MON dynstat_wvel_mean            =   0.0000000000000E+00
(PID.TID 0000.0001) %MON dynstat_wvel_sd              =   1.9767683129348E-03
(PID.TID 0000.0001) %MON dynstat_wvel_del2            =   1.5360414361437E-07
(PID.TID 0000.0001) %MON dynstat_theta_max            =   1.0000000000000E+01
(PID.TID 0000.0001) %MON dynstat_theta_min            =   1.0000000000000E+01
(PID.TID 0000.0001) %MON dynstat_theta_mean           =   9.9999999999999E+00
(PID.TID 0000.0001) %MON dynstat_theta_sd             =   1.4921397450962E-13
(PID.TID 0000.0001) %MON dynstat_theta_del2           =   0.0000000000000E+00
(PID.TID 0000.0001) %MON dynstat_salt_max             =   3.5000000000000E+01
(PID.TID 0000.0001) %MON dynstat_salt_min             =   3.5000000000000E+01
(PID.TID 0000.0001) %MON dynstat_salt_mean            =   3.5000000000000E+01
(PID.TID 0000.0001) %MON dynstat_salt_sd              =   9.9475983006414E-14
(PID.TID 0000.0001) %MON dynstat_salt_del2            =   0.0000000000000E+00
(PID.TID 0000.0001) %MON advcfl_uvel_max              =   1.7113795987682E-04
(PID.TID 0000.0001) %MON advcfl_vvel_max              =   0.0000000000000E+00
(PID.TID 0000.0001) %MON advcfl_wvel_max              =   3.5166036800237E-04
(PID.TID 0000.0001) %MON advcfl_W_hf_max              =   1.6508429127197E-04
(PID.TID 0000.0001) %MON pe_b_mean                    =   5.6210423589661E-03
(PID.TID 0000.0001) %MON ke_max                       =   2.3407357923019E-05
(PID.TID 0000.0001) %MON ke_mean                      =   3.9576410311905E-06
(PID.TID 0000.0001) %MON ke_vol                       =   2.0000000000000E+01
(PID.TID 0000.0001) // =======================================================
(PID.TID 0000.0001) // End MONITOR dynamic field statistics
(PID.TID 0000.0001) // =======================================================
 cg2d: Sum(rhs),rhsMax =   1.36424205265939E-12  9.58985284583215E+01
(PID.TID 0000.0001)      cg2d_init_res =   1.31339919447862E-01
(PID.TID 0000.0001)      cg2d_iters(min,last) =      -1       4
(PID.TID 0000.0001)      cg2d_last_res =   1.79138209428196E-13
 cg3d: Sum(rhs),rhsMax =  -2.48137060083443E-04  4.24575156230539E-06
(PID.TID 0000.0001)      cg3d_init_res =   4.18376274199910E-01
(PID.TID 0000.0001)      cg3d_iters (last) =                200
(PID.TID 0000.0001)      cg3d_last_res =   2.21893923521175E-13
(PID.TID 0000.0001) // =======================================================
(PID.TID 0000.0001) // Begin MONITOR dynamic field statistics
(PID.TID 0000.0001) // =======================================================
(PID.TID 0000.0001) %MON time_tsnumber                =                     4
(PID.TID 0000.0001) %MON time_secondsf                =   2.0000000000000E-02
(PID.TID 0000.0001) %MON dynstat_eta_max              =   1.4983220739966E-01
(PID.TID 0000.0001) %MON dynstat_eta_min              =  -1.4983220734730E-01
(PID.TID 0000.0001) %MON dynstat_eta_mean             =  -4.3368086899420E-17
(PID.TID 0000.0001) %MON dynstat_eta_sd               =   1.0599967431446E-01
(PID.TID 0000.0001) %MON dynstat_eta_del2             =   5.6747786544180E-05
(PID.TID 0000.0001) %MON dynstat_uvel_max             =   9.1265251514388E-03
(PID.TID 0000.0001) %MON dynstat_uvel_min             =   5.1084684452681E-05
(PID.TID 0000.0001) %MON dynstat_uvel_mean            =   1.9395432286536E-03
(PID.TID 0000.0001) %MON dynstat_uvel_sd              =   1.8915250805088E-03
(PID.TID 0000.0001) %MON dynstat_uvel_del2            =   2.1597541621351E-07
(PID.TID 0000.0001) %MON dynstat_vvel_max             =   0.0000000000000E+00
(PID.TID 0000.0001) %MON dynstat_vvel_min             =   0.0000000000000E+00
(PID.TID 0000.0001) %MON dynstat_vvel_mean            =   0.0000000000000E+00
(PID.TID 0000.0001) %MON dynstat_vvel_sd              =   0.0000000000000E+00
(PID.TID 0000.0001) %MON dynstat_vvel_del2            =   0.0000000000000E+00
(PID.TID 0000.0001) %MON dynstat_wvel_max             =   9.3767569561528E-03
(PID.TID 0000.0001) %MON dynstat_wvel_min             =  -9.3767460679303E-03
(PID.TID 0000.0001) %MON dynstat_wvel_mean            =   1.2265721547311E-18
(PID.TID 0000.0001) %MON dynstat_wvel_sd              =   2.6354506348505E-03
(PID.TID 0000.0001) %MON dynstat_wvel_del2            =   2.0478684079920E-07
(PID.TID 0000.0001) %MON dynstat_theta_max            =   1.0000000000000E+01
(PID.TID 0000.0001) %MON dynstat_theta_min            =   1.0000000000000E+01
(PID.TID 0000.0001) %MON dynstat_theta_mean           =   9.9999999999999E+00
(PID.TID 0000.0001) %MON dynstat_theta_sd             =   1.4921397450962E-13
(PID.TID 0000.0001) %MON dynstat_theta_del2           =   0.0000000000000E+00
(PID.TID 0000.0001) %MON dynstat_salt_max             =   3.5000000000000E+01
(PID.TID 0000.0001) %MON dynstat_salt_min             =   3.5000000000000E+01
(PID.TID 0000.0001) %MON dynstat_salt_mean            =   3.5000000000000E+01
(PID.TID 0000.0001) %MON dynstat_salt_sd              =   9.9475983006414E-14
(PID.TID 0000.0001) %MON dynstat_salt_del2            =   0.0000000000000E+00
(PID.TID 0000.0001) %MON advcfl_uvel_max              =   2.2816312878597E-04
(PID.TID 0000.0001) %MON advcfl_vvel_max              =   0.0000000000000E+00
(PID.TID 0000.0001) %MON advcfl_wvel_max              =   4.6883784780764E-04
(PID.TID 0000.0001) %MON advcfl_W_hf_max              =   2.2009230935650E-04
(PID.TID 0000.0001) %MON pe_b_mean                    =   5.6179654773861E-03
(PID.TID 0000.0001) %MON ke_max                       =   4.1605499591336E-05
(PID.TID 0000.0001) %MON ke_mean                      =   7.0345226064680E-06
(PID.TID 0000.0001) %MON ke_vol                       =   2.0000000000000E+01
(PID.TID 0000.0001) // =======================================================
(PID.TID 0000.0001) // End MONITOR dynamic field statistics
(PID.TID 0000.0001) // =======================================================
 cg2d: Sum(rhs),rhsMax =   1.13686837721616E-12  9.58566914404958E+01
(PID.TID 0000.0001)      cg2d_init_res =   2.09275854619856E-01
(PID.TID 0000.0001)      cg2d_iters(min,last) =      -1       4
(PID.TID 0000.0001)      cg2d_last_res =   2.85437222964341E-13
 cg3d: Sum(rhs),rhsMax =  -4.15531509238676E-04  1.18284194071535E-02
(PID.TID 0000.0001)      cg3d_init_res =   4.18245463087763E-01
(PID.TID 0000.0001)      cg3d_iters (last) =                200
(PID.TID 0000.0001)      cg3d_last_res =   3.71598909628827E-13
(PID.TID 0000.0001) // =======================================================
(PID.TID 0000.0001) // Begin MONITOR dynamic field statistics
(PID.TID 0000.0001) // =======================================================
(PID.TID 0000.0001) %MON time_tsnumber                =                     5
(PID.TID 0000.0001) %MON time_secondsf                =   2.5000000000000E-02
(PID.TID 0000.0001) %MON dynstat_eta_max              =   1.4977946665061E-01
(PID.TID 0000.0001) %MON dynstat_eta_min              =  -1.4977946651599E-01
(PID.TID 0000.0001) %MON dynstat_eta_mean             =  -4.3368086899420E-17
(PID.TID 0000.0001) %MON dynstat_eta_sd               =   1.0596236253297E-01
(PID.TID 0000.0001) %MON dynstat_eta_del2             =   5.6727811378919E-05
(PID.TID 0000.0001) %MON dynstat_uvel_max             =   1.1406818253585E-02
(PID.TID 0000.0001) %MON dynstat_uvel_min             =   6.3848365442451E-05
(PID.TID 0000.0001) %MON dynstat_uvel_mean            =   2.4241446578216E-03
(PID.TID 0000.0001) %MON dynstat_uvel_sd              =   2.3641290119469E-03
(PID.TID 0000.0001) %MON dynstat_uvel_del2            =   2.6993760365330E-07
(PID.TID 0000.0001) %MON dynstat_vvel_max             =   0.0000000000000E+00
(PID.TID 0000.0001) %MON dynstat_vvel_min             =   0.0000000000000E+00
(PID.TID 0000.0001) %MON dynstat_vvel_mean            =   0.0000000000000E+00
(PID.TID 0000.0001) %MON dynstat_vvel_sd              =   0.0000000000000E+00
(PID.TID 0000.0001) %MON dynstat_vvel_del2            =   0.0000000000000E+00
(PID.TID 0000.0001) %MON dynstat_wvel_max             =   1.1719575566872E-02
(PID.TID 0000.0001) %MON dynstat_wvel_min             =  -1.1719553552182E-02
(PID.TID 0000.0001) %MON dynstat_wvel_mean            =   1.9274705288631E-18
(PID.TID 0000.0001) %MON dynstat_wvel_sd              =   3.2939268817367E-03
(PID.TID 0000.0001) %MON dynstat_wvel_del2            =   2.5595352499201E-07
(PID.TID 0000.0001) %MON dynstat_theta_max            =   1.0000000000000E+01
(PID.TID 0000.0001) %MON dynstat_theta_min            =   1.0000000000000E+01
(PID.TID 0000.0001) %MON dynstat_theta_mean           =   9.9999999999999E+00
(PID.TID 0000.0001) %MON dynstat_theta_sd             =   1.4921397450962E-13
(PID.TID 0000.0001) %MON dynstat_theta_del2           =   0.0000000000000E+00
(PID.TID 0000.0001) %MON dynstat_salt_max             =   3.5000000000000E+01
(PID.TID 0000.0001) %MON dynstat_salt_min             =   3.5000000000000E+01
(PID.TID 0000.0001) %MON dynstat_salt_mean            =   3.5000000000000E+01
(PID.TID 0000.0001) %MON dynstat_salt_sd              =   9.9475983006414E-14
(PID.TID 0000.0001) %MON dynstat_salt_del2            =   0.0000000000000E+00
(PID.TID 0000.0001) %MON advcfl_uvel_max              =   2.8517045633962E-04
(PID.TID 0000.0001) %MON advcfl_vvel_max              =   0.0000000000000E+00
(PID.TID 0000.0001) %MON advcfl_wvel_max              =   5.8597877834359E-04
(PID.TID 0000.0001) %MON advcfl_W_hf_max              =   2.7508311883484E-04
(PID.TID 0000.0001) %MON pe_b_mean                    =   5.6140111367841E-03
(PID.TID 0000.0001) %MON ke_max                       =   6.4993365509001E-05
(PID.TID 0000.0001) %MON ke_mean                      =   1.0988863200118E-05
(PID.TID 0000.0001) %MON ke_vol                       =   2.0000000000000E+01
(PID.TID 0000.0001) // =======================================================
(PID.TID 0000.0001) // End MONITOR dynamic field statistics
(PID.TID 0000.0001) // =======================================================
 cg2d: Sum(rhs),rhsMax =   1.36424205265939E-12  9.58235233228917E+01
(PID.TID 0000.0001)      cg2d_init_res =   2.06334305286156E-01
(PID.TID 0000.0001)      cg2d_iters(min,last) =      -1       4
(PID.TID 0000.0001)      cg2d_last_res =   2.81425161073604E-13
 cg3d: Sum(rhs),rhsMax =  -5.78681126530378E-04  9.59658158397603E-06
(PID.TID 0000.0001)      cg3d_init_res =   4.18408957783130E-01
(PID.TID 0000.0001)      cg3d_iters (last) =                200
(PID.TID 0000.0001)      cg3d_last_res =   3.64026462587841E-13
(PID.TID 0000.0001) // =======================================================
(PID.TID 0000.0001) // Begin MONITOR dynamic field statistics
(PID.TID 0000.0001) // =======================================================
(PID.TID 0000.0001) %MON time_tsnumber                =                     6
(PID.TID 0000.0001) %MON time_secondsf                =   3.0000000000000E-02
(PID.TID 0000.0001) %MON dynstat_eta_max              =   1.4971501416206E-01
(PID.TID 0000.0001) %MON dynstat_eta_min              =  -1.4971501387570E-01
(PID.TID 0000.0001) %MON dynstat_eta_mean             =  -4.3368086899420E-17
(PID.TID 0000.0001) %MON dynstat_eta_sd               =   1.0591676518805E-01
(PID.TID 0000.0001) %MON dynstat_eta_del2             =   5.6703400469986E-05
(PID.TID 0000.0001) %MON dynstat_uvel_max             =   1.3686219396210E-02
(PID.TID 0000.0001) %MON dynstat_uvel_min             =   7.6607053875916E-05
(PID.TID 0000.0001) %MON dynstat_uvel_mean            =   2.9085565343289E-03
(PID.TID 0000.0001) %MON dynstat_uvel_sd              =   2.8365480829889E-03
(PID.TID 0000.0001) %MON dynstat_uvel_del2            =   3.2387868367282E-07
(PID.TID 0000.0001) %MON dynstat_vvel_max             =   0.0000000000000E+00
(PID.TID 0000.0001) %MON dynstat_vvel_min             =   0.0000000000000E+00
(PID.TID 0000.0001) %MON dynstat_vvel_mean            =   0.0000000000000E+00
(PID.TID 0000.0001) %MON dynstat_vvel_sd              =   0.0000000000000E+00
(PID.TID 0000.0001) %MON dynstat_vvel_del2            =   0.0000000000000E+00
(PID.TID 0000.0001) %MON dynstat_wvel_max             =   1.4061480550925E-02
(PID.TID 0000.0001) %MON dynstat_wvel_min             =  -1.4061441870370E-02
(PID.TID 0000.0001) %MON dynstat_wvel_mean            =  -2.6283689029952E-18
(PID.TID 0000.0001) %MON dynstat_wvel_sd              =   3.9521455650363E-03
(PID.TID 0000.0001) %MON dynstat_wvel_del2            =   3.0710019528836E-07
(PID.TID 0000.0001) %MON dynstat_theta_max            =   1.0000000000000E+01
(PID.TID 0000.0001) %MON dynstat_theta_min            =   1.0000000000000E+01
(PID.TID 0000.0001) %MON dynstat_theta_mean           =   9.9999999999999E+00
(PID.TID 0000.0001) %MON dynstat_theta_sd             =   1.4921397450962E-13
(PID.TID 0000.0001) %MON dynstat_theta_del2           =   0.0000000000000E+00
(PID.TID 0000.0001) %MON dynstat_salt_max             =   3.5000000000000E+01
(PID.TID 0000.0001) %MON dynstat_salt_min             =   3.5000000000000E+01
(PID.TID 0000.0001) %MON dynstat_salt_mean            =   3.5000000000000E+01
(PID.TID 0000.0001) %MON dynstat_salt_sd              =   9.9475983006414E-14
(PID.TID 0000.0001) %MON dynstat_salt_del2            =   0.0000000000000E+00
(PID.TID 0000.0001) %MON advcfl_uvel_max              =   3.4215548490524E-04
(PID.TID 0000.0001) %MON advcfl_vvel_max              =   0.0000000000000E+00
(PID.TID 0000.0001) %MON advcfl_wvel_max              =   7.0307402754626E-04
(PID.TID 0000.0001) %MON advcfl_W_hf_max              =   3.3005242005284E-04
(PID.TID 0000.0001) %MON pe_b_mean                    =   5.6091805739505E-03
(PID.TID 0000.0001) %MON ke_max                       =   9.3563651287424E-05
(PID.TID 0000.0001) %MON ke_mean                      =   1.5819426019625E-05
(PID.TID 0000.0001) %MON ke_vol                       =   2.0000000000000E+01
(PID.TID 0000.0001) // =======================================================
(PID.TID 0000.0001) // End MONITOR dynamic field statistics
(PID.TID 0000.0001) // =======================================================
 cg2d: Sum(rhs),rhsMax =   1.59161572810262E-12  9.57666982212868E+01
(PID.TID 0000.0001)      cg2d_init_res =   2.84237742403251E-01
(PID.TID 0000.0001)      cg2d_iters(min,last) =      -1       4
(PID.TID 0000.0001)      cg2d_last_res =   3.87679849534772E-13
 cg3d: Sum(rhs),rhsMax =  -8.11956145093440E-04  1.18237409680223E-02
(PID.TID 0000.0001)      cg3d_init_res =   4.18212792370517E-01
(PID.TID 0000.0001)      cg3d_iters (last) =                200
(PID.TID 0000.0001)      cg3d_last_res =   4.63531520847280E-13
(PID.TID 0000.0001) // =======================================================
(PID.TID 0000.0001) // Begin MONITOR dynamic field statistics
(PID.TID 0000.0001) // =======================================================
(PID.TID 0000.0001) %MON time_tsnumber                =                     7
(PID.TID 0000.0001) %MON time_secondsf                =   3.5000000000000E-02
(PID.TID 0000.0001) %MON dynstat_eta_max              =   1.4963885498901E-01
(PID.TID 0000.0001) %MON dynstat_eta_min              =  -1.4963885445098E-01
(PID.TID 0000.0001) %MON dynstat_eta_mean             =  -3.9031278209478E-17
(PID.TID 0000.0001) %MON dynstat_eta_sd               =   1.0586288584514E-01
(PID.TID 0000.0001) %MON dynstat_eta_del2             =   5.6674555726155E-05
(PID.TID 0000.0001) %MON dynstat_uvel_max             =   1.5964550343115E-02
(PID.TID 0000.0001) %MON dynstat_uvel_min             =   8.9359752101162E-05
(PID.TID 0000.0001) %MON dynstat_uvel_mean            =   3.3927409802025E-03
(PID.TID 0000.0001) %MON dynstat_uvel_sd              =   3.3087453533125E-03
(PID.TID 0000.0001) %MON dynstat_uvel_del2            =   3.7779443842004E-07
(PID.TID 0000.0001) %MON dynstat_vvel_max             =   0.0000000000000E+00
(PID.TID 0000.0001) %MON dynstat_vvel_min             =   0.0000000000000E+00
(PID.TID 0000.0001) %MON dynstat_vvel_mean            =   0.0000000000000E+00
(PID.TID 0000.0001) %MON dynstat_vvel_sd              =   0.0000000000000E+00
(PID.TID 0000.0001) %MON dynstat_vvel_del2            =   0.0000000000000E+00
(PID.TID 0000.0001) %MON dynstat_wvel_max             =   1.6402289336897E-02
(PID.TID 0000.0001) %MON dynstat_wvel_min             =  -1.6402227348946E-02
(PID.TID 0000.0001) %MON dynstat_wvel_mean            =   1.0513475611981E-18
(PID.TID 0000.0001) %MON dynstat_wvel_sd              =   4.6100552163204E-03
(PID.TID 0000.0001) %MON dynstat_wvel_del2            =   3.5822285235623E-07
(PID.TID 0000.0001) %MON dynstat_theta_max            =   1.0000000000000E+01
(PID.TID 0000.0001) %MON dynstat_theta_min            =   1.0000000000000E+01
(PID.TID 0000.0001) %MON dynstat_theta_mean           =   9.9999999999999E+00
(PID.TID 0000.0001) %MON dynstat_theta_sd             =   1.4921397450962E-13
(PID.TID 0000.0001) %MON dynstat_theta_del2           =   0.0000000000000E+00
(PID.TID 0000.0001) %MON dynstat_salt_max             =   3.5000000000000E+01
(PID.TID 0000.0001) %MON dynstat_salt_min             =   3.5000000000000E+01
(PID.TID 0000.0001) %MON dynstat_salt_mean            =   3.5000000000000E+01
(PID.TID 0000.0001) %MON dynstat_salt_sd              =   9.9475983006414E-14
(PID.TID 0000.0001) %MON dynstat_salt_del2            =   0.0000000000000E+00
(PID.TID 0000.0001) %MON advcfl_uvel_max              =   3.9911375857788E-04
(PID.TID 0000.0001) %MON advcfl_vvel_max              =   0.0000000000000E+00
(PID.TID 0000.0001) %MON advcfl_wvel_max              =   8.2011446684483E-04
(PID.TID 0000.0001) %MON advcfl_W_hf_max              =   3.8499591502133E-04
(PID.TID 0000.0001) %MON pe_b_mean                    =   5.6034752997304E-03
(PID.TID 0000.0001) %MON ke_max                       =   1.2730743399506E-04
(PID.TID 0000.0001) %MON ke_mean                      =   2.1524700217462E-05
(PID.TID 0000.0001) %MON ke_vol                       =   2.0000000000000E+01
(PID.TID 0000.0001) // =======================================================
(PID.TID 0000.0001) // End MONITOR dynamic field statistics
(PID.TID 0000.0001) // =======================================================
 cg2d: Sum(rhs),rhsMax =   1.36424205265939E-12  9.57185490780753E+01
(PID.TID 0000.0001)      cg2d_init_res =   2.81257833468338E-01
(PID.TID 0000.0001)      cg2d_iters(min,last) =      -1       4
(PID.TID 0000.0001)      cg2d_last_res =   3.83615467794449E-13
 cg3d: Sum(rhs),rhsMax =  -1.04086234112776E-03  1.70844094791317E-05
(PID.TID 0000.0001)      cg3d_init_res =   4.18441613211734E-01
(PID.TID 0000.0001)      cg3d_iters (last) =                200
(PID.TID 0000.0001)      cg3d_last_res =   4.58654364381262E-13
(PID.TID 0000.0001) // =======================================================
(PID.TID 0000.0001) // Begin MONITOR dynamic field statistics
(PID.TID 0000.0001) // =======================================================
(PID.TID 0000.0001) %MON time_tsnumber                =                     8
(PID.TID 0000.0001) %MON time_secondsf                =   4.0000000000000E-02
(PID.TID 0000.0001) %MON dynstat_eta_max              =   1.4955099510463E-01
(PID.TID 0000.0001) %MON dynstat_eta_min              =  -1.4955099417904E-01
(PID.TID 0000.0001) %MON dynstat_eta_mean             =  -3.0357660829594E-17
(PID.TID 0000.0001) %MON dynstat_eta_sd               =   1.0580072871725E-01
(PID.TID 0000.0001) %MON dynstat_eta_del2             =   5.6641279402898E-05
(PID.TID 0000.0001) %MON dynstat_uvel_max             =   1.8241632941012E-02
(PID.TID 0000.0001) %MON dynstat_uvel_min             =   1.0210546293430E-04
(PID.TID 0000.0001) %MON dynstat_uvel_mean            =   3.8766601351996E-03
(PID.TID 0000.0001) %MON dynstat_uvel_sd              =   3.7806838998423E-03
(PID.TID 0000.0001) %MON dynstat_uvel_del2            =   4.3168065201823E-07
(PID.TID 0000.0001) %MON dynstat_vvel_max             =   0.0000000000000E+00
(PID.TID 0000.0001) %MON dynstat_vvel_min             =   0.0000000000000E+00
(PID.TID 0000.0001) %MON dynstat_vvel_mean            =   0.0000000000000E+00
(PID.TID 0000.0001) %MON dynstat_vvel_sd              =   0.0000000000000E+00
(PID.TID 0000.0001) %MON dynstat_vvel_del2            =   0.0000000000000E+00
(PID.TID 0000.0001) %MON dynstat_wvel_max             =   1.8741819437196E-02
(PID.TID 0000.0001) %MON dynstat_wvel_min             =  -1.8741726401305E-02
(PID.TID 0000.0001) %MON dynstat_wvel_mean            =   7.0089837413204E-19
(PID.TID 0000.0001) %MON dynstat_wvel_sd              =   5.2676043913106E-03
(PID.TID 0000.0001) %MON dynstat_wvel_del2            =   4.0931749873314E-07
(PID.TID 0000.0001) %MON dynstat_theta_max            =   1.0000000000000E+01
(PID.TID 0000.0001) %MON dynstat_theta_min            =   1.0000000000000E+01
(PID.TID 0000.0001) %MON dynstat_theta_mean           =   9.9999999999999E+00
(PID.TID 0000.0001) %MON dynstat_theta_sd             =   1.4921397450962E-13
(PID.TID 0000.0001) %MON dynstat_theta_del2           =   0.0000000000000E+00
(PID.TID 0000.0001) %MON dynstat_salt_max             =   3.5000000000000E+01
(PID.TID 0000.0001) %MON dynstat_salt_min             =   3.5000000000000E+01
(PID.TID 0000.0001) %MON dynstat_salt_mean            =   3.5000000000000E+01
(PID.TID 0000.0001) %MON dynstat_salt_sd              =   9.9475983006414E-14
(PID.TID 0000.0001) %MON dynstat_salt_del2            =   0.0000000000000E+00
(PID.TID 0000.0001) %MON advcfl_uvel_max              =   4.5604082352531E-04
(PID.TID 0000.0001) %MON advcfl_vvel_max              =   0.0000000000000E+00
(PID.TID 0000.0001) %MON advcfl_wvel_max              =   9.3709097185979E-04
(PID.TID 0000.0001) %MON advcfl_W_hf_max              =   4.3990930774889E-04
(PID.TID 0000.0001) %MON pe_b_mean                    =   5.5968970985502E-03
(PID.TID 0000.0001) %MON ke_max                       =   1.6621417493114E-04
(PID.TID 0000.0001) %MON ke_mean                      =   2.8102901363203E-05
(PID.TID 0000.0001) %MON ke_vol                       =   2.0000000000000E+01
(PID.TID 0000.0001) // =======================================================
(PID.TID 0000.0001) // End MONITOR dynamic field statistics
(PID.TID 0000.0001) // =======================================================
 cg2d: Sum(rhs),rhsMax =   1.13686837721616E-12  9.56467511839887E+01
(PID.TID 0000.0001)      cg2d_init_res =   3.59117052430219E-01
(PID.TID 0000.0001)      cg2d_iters(min,last) =      -1       4
(PID.TID 0000.0001)      cg2d_last_res =   4.89809845696210E-13
 cg3d: Sum(rhs),rhsMax =  -1.33974938081582E-03  1.18175040314519E-02
(PID.TID 0000.0001)      cg3d_init_res =   4.18180154948249E-01
(PID.TID 0000.0001)      cg3d_iters (last) =                200
(PID.TID 0000.0001)      cg3d_last_res =   5.21136646910082E-13
(PID.TID 0000.0001) // =======================================================
(PID.TID 0000.0001) // Begin MONITOR dynamic field statistics
(PID.TID 0000.0001) // =======================================================
(PID.TID 0000.0001) %MON time_tsnumber                =                     9
(PID.TID 0000.0001) %MON time_secondsf                =   4.5000000000000E-02
(PID.TID 0000.0001) %MON dynstat_eta_max              =   1.4945144139977E-01
(PID.TID 0000.0001) %MON dynstat_eta_min              =  -1.4945143990929E-01
(PID.TID 0000.0001) %MON dynstat_eta_mean             =  -2.6020852139652E-17
(PID.TID 0000.0001) %MON dynstat_eta_sd               =   1.0573029866467E-01
(PID.TID 0000.0001) %MON dynstat_eta_del2             =   5.6603574102206E-05
(PID.TID 0000.0001) %MON dynstat_uvel_max             =   2.0517289133325E-02
(PID.TID 0000.0001) %MON dynstat_uvel_min             =   1.1484318973846E-04
(PID.TID 0000.0001) %MON dynstat_uvel_mean            =   4.3602761597599E-03
(PID.TID 0000.0001) %MON dynstat_uvel_sd              =   4.2523268196213E-03
(PID.TID 0000.0001) %MON dynstat_uvel_del2            =   4.8553311089476E-07
(PID.TID 0000.0001) %MON dynstat_vvel_max             =   0.0000000000000E+00
(PID.TID 0000.0001) %MON dynstat_vvel_min             =   0.0000000000000E+00
(PID.TID 0000.0001) %MON dynstat_vvel_mean            =   0.0000000000000E+00
(PID.TID 0000.0001) %MON dynstat_vvel_sd              =   0.0000000000000E+00
(PID.TID 0000.0001) %MON dynstat_vvel_del2            =   0.0000000000000E+00
(PID.TID 0000.0001) %MON dynstat_wvel_max             =   2.1079888462013E-02
(PID.TID 0000.0001) %MON dynstat_wvel_min             =  -2.1079755542259E-02
(PID.TID 0000.0001) %MON dynstat_wvel_mean            =   3.1540426835942E-18
(PID.TID 0000.0001) %MON dynstat_wvel_sd              =   5.9247416738995E-03
(PID.TID 0000.0001) %MON dynstat_wvel_del2            =   4.6038013915471E-07
(PID.TID 0000.0001) %MON dynstat_theta_max            =   1.0000000000000E+01
(PID.TID 0000.0001) %MON dynstat_theta_min            =   1.0000000000000E+01
(PID.TID 0000.0001) %MON dynstat_theta_mean           =   9.9999999999999E+00
(PID.TID 0000.0001) %MON dynstat_theta_sd             =   1.4921397450962E-13
(PID.TID 0000.0001) %MON dynstat_theta_del2           =   0.0000000000000E+00
(PID.TID 0000.0001) %MON dynstat_salt_max             =   3.5000000000000E+01
(PID.TID 0000.0001) %MON dynstat_salt_min             =   3.5000000000000E+01
(PID.TID 0000.0001) %MON dynstat_salt_mean            =   3.5000000000000E+01
(PID.TID 0000.0001) %MON dynstat_salt_sd              =   9.9475983006414E-14
(PID.TID 0000.0001) %MON dynstat_salt_del2            =   0.0000000000000E+00
(PID.TID 0000.0001) %MON advcfl_uvel_max              =   5.1293222833312E-04
(PID.TID 0000.0001) %MON advcfl_vvel_max              =   0.0000000000000E+00
(PID.TID 0000.0001) %MON advcfl_wvel_max              =   1.0539944231006E-03
(PID.TID 0000.0001) %MON advcfl_W_hf_max              =   4.9478830457434E-04
(PID.TID 0000.0001) %MON pe_b_mean                    =   5.5894480278604E-03
(PID.TID 0000.0001) %MON ke_max                       =   2.1027172290170E-04
(PID.TID 0000.0001) %MON ke_mean                      =   3.5551972001127E-05
(PID.TID 0000.0001) %MON ke_vol                       =   2.0000000000000E+01
(PID.TID 0000.0001) // =======================================================
(PID.TID 0000.0001) // End MONITOR dynamic field statistics
(PID.TID 0000.0001) // =======================================================
 cg2d: Sum(rhs),rhsMax =   1.36424205265939E-12  9.55836386557262E+01
(PID.TID 0000.0001)      cg2d_init_res =   3.56087070236142E-01
(PID.TID 0000.0001)      cg2d_iters(min,last) =      -1       4
(PID.TID 0000.0001)      cg2d_last_res =   4.85677167371296E-13
 cg3d: Sum(rhs),rhsMax =  -1.63410251842942E-03  2.67059070838127E-05
(PID.TID 0000.0001)      cg3d_init_res =   4.18474230256157E-01
(PID.TID 0000.0001)      cg3d_iters (last) =                200
(PID.TID 0000.0001)      cg3d_last_res =   5.17963497320616E-13
(PID.TID 0000.0001) // =======================================================
(PID.TID 0000.0001) // Begin MONITOR dynamic field statistics
(PID.TID 0000.0001) // =======================================================
(PID.TID 0000.0001) %MON time_tsnumber                =                    10
(PID.TID 0000.0001) %MON time_secondsf                =   5.0000000000000E-02
(PID.TID 0000.0001) %MON dynstat_eta_max              =   1.4934020168241E-01
(PID.TID 0000.0001) %MON dynstat_eta_min              =  -1.4934019940281E-01
(PID.TID 0000.0001) %MON dynstat_eta_mean             =  -3.9031278209478E-17
(PID.TID 0000.0001) %MON dynstat_eta_sd               =   1.0565160119460E-01
(PID.TID 0000.0001) %MON dynstat_eta_del2             =   5.6561442772386E-05
(PID.TID 0000.0001) %MON dynstat_uvel_max             =   2.2791340973985E-02
(PID.TID 0000.0001) %MON dynstat_uvel_min             =   1.2757193650071E-04
(PID.TID 0000.0001) %MON dynstat_uvel_mean            =   4.8435512379550E-03
(PID.TID 0000.0001) %MON dynstat_uvel_sd              =   4.7236372326805E-03
(PID.TID 0000.0001) %MON dynstat_uvel_del2            =   5.3934760410976E-07
(PID.TID 0000.0001) %MON dynstat_vvel_max             =   0.0000000000000E+00
(PID.TID 0000.0001) %MON dynstat_vvel_min             =   0.0000000000000E+00
(PID.TID 0000.0001) %MON dynstat_vvel_mean            =   0.0000000000000E+00
(PID.TID 0000.0001) %MON dynstat_vvel_sd              =   0.0000000000000E+00
(PID.TID 0000.0001) %MON dynstat_vvel_del2            =   0.0000000000000E+00
(PID.TID 0000.0001) %MON dynstat_wvel_max             =   2.3416314133272E-02
(PID.TID 0000.0001) %MON dynstat_wvel_min             =  -2.3416131402506E-02
(PID.TID 0000.0001) %MON dynstat_wvel_mean            =  -1.2265721547311E-18
(PID.TID 0000.0001) %MON dynstat_wvel_sd              =   6.5814156801686E-03
(PID.TID 0000.0001) %MON dynstat_wvel_del2            =   5.1140678084939E-07
(PID.TID 0000.0001) %MON dynstat_theta_max            =   1.0000000000000E+01
(PID.TID 0000.0001) %MON dynstat_theta_min            =   1.0000000000000E+01
(PID.TID 0000.0001) %MON dynstat_theta_mean           =   9.9999999999999E+00
(PID.TID 0000.0001) %MON dynstat_theta_sd             =   1.4921397450962E-13
(PID.TID 0000.0001) %MON dynstat_theta_del2           =   0.0000000000000E+00
(PID.TID 0000.0001) %MON dynstat_salt_max             =   3.5000000000000E+01
(PID.TID 0000.0001) %MON dynstat_salt_min             =   3.5000000000000E+01
(PID.TID 0000.0001) %MON dynstat_salt_mean            =   3.5000000000000E+01
(PID.TID 0000.0001) %MON dynstat_salt_sd              =   9.9475983006414E-14
(PID.TID 0000.0001) %MON dynstat_salt_del2            =   0.0000000000000E+00
(PID.TID 0000.0001) %MON advcfl_uvel_max              =   5.6978352434961E-04
(PID.TID 0000.0001) %MON advcfl_vvel_max              =   0.0000000000000E+00
(PID.TID 0000.0001) %MON advcfl_wvel_max              =   1.1708157066636E-03
(PID.TID 0000.0001) %MON advcfl_W_hf_max              =   5.4962861449937E-04
(PID.TID 0000.0001) %MON pe_b_mean                    =   5.5811304174915E-03
(PID.TID 0000.0001) %MON ke_max                       =   2.5946631799696E-04
(PID.TID 0000.0001) %MON ke_mean                      =   4.3869582293132E-05
(PID.TID 0000.0001) %MON ke_vol                       =   2.0000000000000E+01
(PID.TID 0000.0001) // =======================================================
(PID.TID 0000.0001) // End MONITOR dynamic field statistics
(PID.TID 0000.0001) // =======================================================
 cg2d: Sum(rhs),rhsMax =   9.09494701772928E-13  9.54968879575826E+01
(PID.TID 0000.0001)      cg2d_init_res =   4.33890364740779E-01
(PID.TID 0000.0001)      cg2d_iters(min,last) =      -1       4
(PID.TID 0000.0001)      cg2d_last_res =   5.91795267966865E-13
 cg3d: Sum(rhs),rhsMax =  -1.99825094917028E-03  1.18097094433217E-02
(PID.TID 0000.0001)      cg3d_init_res =   4.18147561044342E-01
(PID.TID 0000.0001)      cg3d_iters (last) =                200
(PID.TID 0000.0001)      cg3d_last_res =   5.58960800320480E-13
(PID.TID 0000.0001) // =======================================================
(PID.TID 0000.0001) // Begin MONITOR dynamic field statistics
(PID.TID 0000.0001) // =======================================================
(PID.TID 0000.0001) %MON time_tsnumber                =                    11
(PID.TID 0000.0001) %MON time_secondsf                =   5.5000000000000E-02
(PID.TID 0000.0001) %MON dynstat_eta_max              =   1.4921728467705E-01
(PID.TID 0000.0001) %MON dynstat_eta_min              =  -1.4921728133173E-01
(PID.TID 0000.0001) %MON dynstat_eta_mean             =  -3.0357660829594E-17
(PID.TID 0000.0001) %MON dynstat_eta_sd               =   1.0556464246068E-01
(PID.TID 0000.0001) %MON dynstat_eta_del2             =   5.6514888707832E-05
(PID.TID 0000.0001) %MON dynstat_uvel_max             =   2.5063610641220E-02
(PID.TID 0000.0001) %MON dynstat_uvel_min             =   1.4029070791100E-04
(PID.TID 0000.0001) %MON dynstat_uvel_mean            =   5.3264475804370E-03
(PID.TID 0000.0001) %MON dynstat_uvel_sd              =   5.1945782849074E-03
(PID.TID 0000.0001) %MON dynstat_uvel_del2            =   5.9311992368458E-07
(PID.TID 0000.0001) %MON dynstat_vvel_max             =   0.0000000000000E+00
(PID.TID 0000.0001) %MON dynstat_vvel_min             =   0.0000000000000E+00
(PID.TID 0000.0001) %MON dynstat_vvel_mean            =   0.0000000000000E+00
(PID.TID 0000.0001) %MON dynstat_vvel_sd              =   0.0000000000000E+00
(PID.TID 0000.0001) %MON dynstat_vvel_del2            =   0.0000000000000E+00
(PID.TID 0000.0001) %MON dynstat_wvel_max             =   2.5750914298572E-02
(PID.TID 0000.0001) %MON dynstat_wvel_min             =  -2.5750670743078E-02
(PID.TID 0000.0001) %MON dynstat_wvel_mean            =  -3.1540426835942E-18
(PID.TID 0000.0001) %MON dynstat_wvel_sd              =   7.2375750624042E-03
(PID.TID 0000.0001) %MON dynstat_wvel_del2            =   5.6239343387035E-07
(PID.TID 0000.0001) %MON dynstat_theta_max            =   1.0000000000000E+01
(PID.TID 0000.0001) %MON dynstat_theta_min            =   1.0000000000000E+01
(PID.TID 0000.0001) %MON dynstat_theta_mean           =   9.9999999999999E+00
(PID.TID 0000.0001) %MON dynstat_theta_sd             =   1.4921397450962E-13
(PID.TID 0000.0001) %MON dynstat_theta_del2           =   0.0000000000000E+00
(PID.TID 0000.0001) %MON dynstat_salt_max             =   3.5000000000000E+01
(PID.TID 0000.0001) %MON dynstat_salt_min             =   3.5000000000000E+01
(PID.TID 0000.0001) %MON dynstat_salt_mean            =   3.5000000000000E+01
(PID.TID 0000.0001) %MON dynstat_salt_sd              =   9.9475983006414E-14
(PID.TID 0000.0001) %MON dynstat_salt_del2            =   0.0000000000000E+00
(PID.TID 0000.0001) %MON advcfl_uvel_max              =   6.2659026603051E-04
(PID.TID 0000.0001) %MON advcfl_vvel_max              =   0.0000000000000E+00
(PID.TID 0000.0001) %MON advcfl_wvel_max              =   1.2875457149286E-03
(PID.TID 0000.0001) %MON advcfl_W_hf_max              =   6.0442594952053E-04
(PID.TID 0000.0001) %MON pe_b_mean                    =   5.5719468689257E-03
(PID.TID 0000.0001) %MON ke_max                       =   3.1378259586881E-04
(PID.TID 0000.0001) %MON ke_mean                      =   5.3053130746784E-05
(PID.TID 0000.0001) %MON ke_vol                       =   2.0000000000000E+01
(PID.TID 0000.0001) // =======================================================
(PID.TID 0000.0001) // End MONITOR dynamic field statistics
(PID.TID 0000.0001) // =======================================================
 cg2d: Sum(rhs),rhsMax =   1.13686837721616E-12  9.54188343789861E+01
(PID.TID 0000.0001)      cg2d_init_res =   4.30798611254713E-01
(PID.TID 0000.0001)      cg2d_iters(min,last) =      -1       4
(PID.TID 0000.0001)      cg2d_last_res =   5.87578337539152E-13
 cg3d: Sum(rhs),rhsMax =  -2.35765951490987E-03  3.84567991817269E-05
(PID.TID 0000.0001)      cg3d_init_res =   4.18506798699024E-01
(PID.TID 0000.0001)      cg3d_iters (last) =                200
(PID.TID 0000.0001)      cg3d_last_res =   5.56785964237040E-13
(PID.TID 0000.0001) // =======================================================
(PID.TID 0000.0001) // Begin MONITOR dynamic field statistics
(PID.TID 0000.0001) // =======================================================
(PID.TID 0000.0001) %MON time_tsnumber                =                    12
(PID.TID 0000.0001) %MON time_secondsf                =   6.0000000000000E-02
(PID.TID 0000.0001) %MON dynstat_eta_max              =   1.4908270002402E-01
(PID.TID 0000.0001) %MON dynstat_eta_min              =  -1.4908269527862E-01
(PID.TID 0000.0001) %MON dynstat_eta_mean             =  -3.0357660829594E-17
(PID.TID 0000.0001) %MON dynstat_eta_sd               =   1.0546942926255E-01
(PID.TID 0000.0001) %MON dynstat_eta_del2             =   5.6463915548763E-05
(PID.TID 0000.0001) %MON dynstat_uvel_max             =   2.7333920451337E-02
(PID.TID 0000.0001) %MON dynstat_uvel_min             =   1.5299850943893E-04
(PID.TID 0000.0001) %MON dynstat_uvel_mean            =   5.8089274273851E-03
(PID.TID 0000.0001) %MON dynstat_uvel_sd              =   5.6651131509118E-03
(PID.TID 0000.0001) %MON dynstat_uvel_del2            =   6.4684586493005E-07
(PID.TID 0000.0001) %MON dynstat_vvel_max             =   0.0000000000000E+00
(PID.TID 0000.0001) %MON dynstat_vvel_min             =   0.0000000000000E+00
(PID.TID 0000.0001) %MON dynstat_vvel_mean            =   0.0000000000000E+00
(PID.TID 0000.0001) %MON dynstat_vvel_sd              =   0.0000000000000E+00
(PID.TID 0000.0001) %MON dynstat_vvel_del2            =   0.0000000000000E+00
(PID.TID 0000.0001) %MON dynstat_wvel_max             =   2.8083506945123E-02
(PID.TID 0000.0001) %MON dynstat_wvel_min             =  -2.8083190469800E-02
(PID.TID 0000.0001) %MON dynstat_wvel_mean            =  -1.0513475611981E-18
(PID.TID 0000.0001) %MON dynstat_wvel_sd              =   7.8931685131105E-03
(PID.TID 0000.0001) %MON dynstat_wvel_del2            =   6.1333611138573E-07
(PID.TID 0000.0001) %MON dynstat_theta_max            =   1.0000000000000E+01
(PID.TID 0000.0001) %MON dynstat_theta_min            =   1.0000000000000E+01
(PID.TID 0000.0001) %MON dynstat_theta_mean           =   9.9999999999999E+00
(PID.TID 0000.0001) %MON dynstat_theta_sd             =   1.4921397450962E-13
(PID.TID 0000.0001) %MON dynstat_theta_del2           =   0.0000000000000E+00
(PID.TID 0000.0001) %MON dynstat_salt_max             =   3.5000000000000E+01
(PID.TID 0000.0001) %MON dynstat_salt_min             =   3.5000000000000E+01
(PID.TID 0000.0001) %MON dynstat_salt_mean            =   3.5000000000000E+01
(PID.TID 0000.0001) %MON dynstat_salt_sd              =   9.9475983006414E-14
(PID.TID 0000.0001) %MON dynstat_salt_del2            =   0.0000000000000E+00
(PID.TID 0000.0001) %MON advcfl_uvel_max              =   6.8334801128343E-04
(PID.TID 0000.0001) %MON advcfl_vvel_max              =   0.0000000000000E+00
(PID.TID 0000.0001) %MON advcfl_wvel_max              =   1.4041753472562E-03
(PID.TID 0000.0001) %MON advcfl_W_hf_max              =   6.5917602496150E-04
(PID.TID 0000.0001) %MON pe_b_mean                    =   5.5619002544836E-03
(PID.TID 0000.0001) %MON ke_max                       =   3.7320359250714E-04
(PID.TID 0000.0001) %MON ke_mean                      =   6.3099745028235E-05
(PID.TID 0000.0001) %MON ke_vol                       =   2.0000000000000E+01
(PID.TID 0000.0001) // =======================================================
(PID.TID 0000.0001) // End MONITOR dynamic field statistics
(PID.TID 0000.0001) // =======================================================
(PID.TID 0000.0001) DIAGSTATS_CLOSE_IO: close file: dynStDiag.0000000000.txt , unit=     9
(PID.TID 0000.0001) %CHECKPOINT        12 ckptA
(PID.TID 0000.0001)   Seconds in section "ALL                    [THE_MODEL_MAIN]":
(PID.TID 0000.0001)           User time:   4.9795770645141602
(PID.TID 0000.0001)         System time:   4.4114001095294952E-002
(PID.TID 0000.0001)     Wall clock time:   5.0264770984649658
(PID.TID 0000.0001)          No. starts:           1
(PID.TID 0000.0001)           No. stops:           1
(PID.TID 0000.0001)   Seconds in section "INITIALISE_FIXED       [THE_MODEL_MAIN]":
(PID.TID 0000.0001)           User time:   2.6311000809073448E-002
(PID.TID 0000.0001)         System time:   1.8667999655008316E-002
(PID.TID 0000.0001)     Wall clock time:   4.6323060989379883E-002
(PID.TID 0000.0001)          No. starts:           1
(PID.TID 0000.0001)           No. stops:           1
(PID.TID 0000.0001)   Seconds in section "THE_MAIN_LOOP          [THE_MODEL_MAIN]":
(PID.TID 0000.0001)           User time:   4.9532570652663708
(PID.TID 0000.0001)         System time:   2.5381000712513924E-002
(PID.TID 0000.0001)     Wall clock time:   4.9800970554351807
(PID.TID 0000.0001)          No. starts:           1
(PID.TID 0000.0001)           No. stops:           1
(PID.TID 0000.0001)   Seconds in section "INITIALISE_VARIA    [THE_MAIN_LOOP]":
(PID.TID 0000.0001)           User time:   2.2973999381065369E-002
(PID.TID 0000.0001)         System time:   4.0499996393918991E-003
(PID.TID 0000.0001)     Wall clock time:   2.7381896972656250E-002
(PID.TID 0000.0001)          No. starts:           1
(PID.TID 0000.0001)           No. stops:           1
(PID.TID 0000.0001)   Seconds in section "MAIN LOOP           [THE_MAIN_LOOP]":
(PID.TID 0000.0001)           User time:   4.9302670657634735
(PID.TID 0000.0001)         System time:   2.1308001130819321E-002
(PID.TID 0000.0001)     Wall clock time:   4.9526779651641846
(PID.TID 0000.0001)          No. starts:           1
(PID.TID 0000.0001)           No. stops:           1
(PID.TID 0000.0001)   Seconds in section "MAIN_DO_LOOP        [THE_MAIN_LOOP]":
(PID.TID 0000.0001)           User time:   4.9301894940435886
(PID.TID 0000.0001)         System time:   2.1278008818626404E-002
(PID.TID 0000.0001)     Wall clock time:   4.9525718688964844
(PID.TID 0000.0001)          No. starts:          12
(PID.TID 0000.0001)           No. stops:          12
(PID.TID 0000.0001)   Seconds in section "FORWARD_STEP        [MAIN_DO_LOOP]":
(PID.TID 0000.0001)           User time:   4.9300354607403278
(PID.TID 0000.0001)         System time:   2.1233003586530685E-002
(PID.TID 0000.0001)     Wall clock time:   4.9523704051971436
(PID.TID 0000.0001)          No. starts:          12
(PID.TID 0000.0001)           No. stops:          12
(PID.TID 0000.0001)   Seconds in section "DO_STATEVARS_DIAGS  [FORWARD_STEP]":
(PID.TID 0000.0001)           User time:   1.0342746973037720E-003
(PID.TID 0000.0001)         System time:   4.5499950647354126E-004
(PID.TID 0000.0001)     Wall clock time:   1.4882087707519531E-003
(PID.TID 0000.0001)          No. starts:          24
(PID.TID 0000.0001)           No. stops:          24
(PID.TID 0000.0001)   Seconds in section "LOAD_FIELDS_DRIVER  [FORWARD_STEP]":
(PID.TID 0000.0001)           User time:   2.6826560497283936E-004
(PID.TID 0000.0001)         System time:   7.1000307798385620E-005
(PID.TID 0000.0001)     Wall clock time:   3.3879280090332031E-004
(PID.TID 0000.0001)          No. starts:          12
(PID.TID 0000.0001)           No. stops:          12
(PID.TID 0000.0001)   Seconds in section "EXTERNAL_FLDS_LOAD [LOAD_FLDS_DRIVER]":
(PID.TID 0000.0001)           User time:   9.6533447504043579E-005
(PID.TID 0000.0001)         System time:   2.9001384973526001E-005
(PID.TID 0000.0001)     Wall clock time:   1.3184547424316406E-004
(PID.TID 0000.0001)          No. starts:          12
(PID.TID 0000.0001)           No. stops:          12
(PID.TID 0000.0001)   Seconds in section "DO_ATMOSPHERIC_PHYS [FORWARD_STEP]":
(PID.TID 0000.0001)           User time:   1.0210275650024414E-004
(PID.TID 0000.0001)         System time:   2.1994113922119141E-005
(PID.TID 0000.0001)     Wall clock time:   1.2302398681640625E-004
(PID.TID 0000.0001)          No. starts:          12
(PID.TID 0000.0001)           No. stops:          12
(PID.TID 0000.0001)   Seconds in section "DO_OCEANIC_PHYS     [FORWARD_STEP]":
(PID.TID 0000.0001)           User time:   6.5132528543472290E-003
(PID.TID 0000.0001)         System time:   1.3099983334541321E-003
(PID.TID 0000.0001)     Wall clock time:   7.8370571136474609E-003
(PID.TID 0000.0001)          No. starts:          12
(PID.TID 0000.0001)           No. stops:          12
(PID.TID 0000.0001)   Seconds in section "THERMODYNAMICS      [FORWARD_STEP]":
(PID.TID 0000.0001)           User time:   1.1826619505882263E-002
(PID.TID 0000.0001)         System time:   8.5499510169029236E-004
(PID.TID 0000.0001)     Wall clock time:   1.2685060501098633E-002
(PID.TID 0000.0001)          No. starts:          12
(PID.TID 0000.0001)           No. stops:          12
(PID.TID 0000.0001)   Seconds in section "DYNAMICS            [FORWARD_STEP]":
(PID.TID 0000.0001)           User time:  0.41207872331142426
(PID.TID 0000.0001)         System time:   1.4040060341358185E-003
(PID.TID 0000.0001)     Wall clock time:  0.41350269317626953
(PID.TID 0000.0001)          No. starts:          12
(PID.TID 0000.0001)           No. stops:          12
(PID.TID 0000.0001)   Seconds in section "CALC_GW          [DYNAMICS]":
(PID.TID 0000.0001)           User time:   7.3289692401885986E-002
(PID.TID 0000.0001)         System time:   2.8400123119354248E-004
(PID.TID 0000.0001)     Wall clock time:   7.3550939559936523E-002
(PID.TID 0000.0001)          No. starts:          48
(PID.TID 0000.0001)           No. stops:          48
(PID.TID 0000.0001)   Seconds in section "UPDATE_SURF_DR      [FORWARD_STEP]":
(PID.TID 0000.0001)           User time:   6.9879740476608276E-003
(PID.TID 0000.0001)         System time:   1.0021030902862549E-006
(PID.TID 0000.0001)     Wall clock time:   6.9885253906250000E-003
(PID.TID 0000.0001)          No. starts:          12
(PID.TID 0000.0001)           No. stops:          12
(PID.TID 0000.0001)   Seconds in section "SOLVE_FOR_PRESSURE  [FORWARD_STEP]":
(PID.TID 0000.0001)           User time:   4.3734164088964462
(PID.TID 0000.0001)         System time:   4.0389969944953918E-003
(PID.TID 0000.0001)     Wall clock time:   4.3785467147827148
(PID.TID 0000.0001)          No. starts:          12
(PID.TID 0000.0001)           No. stops:          12
(PID.TID 0000.0001)   Seconds in section "CG3D   [SOLVE_FOR_PRESSURE]":
(PID.TID 0000.0001)           User time:   4.3539149612188339
(PID.TID 0000.0001)         System time:   4.0249973535537720E-003
(PID.TID 0000.0001)     Wall clock time:   4.3590431213378906
(PID.TID 0000.0001)          No. starts:          12
(PID.TID 0000.0001)           No. stops:          12
(PID.TID 0000.0001)   Seconds in section "MOM_CORRECTION_STEP [FORWARD_STEP]":
(PID.TID 0000.0001)           User time:   1.8982231616973877E-002
(PID.TID 0000.0001)         System time:   2.3600086569786072E-004
(PID.TID 0000.0001)     Wall clock time:   1.9222259521484375E-002
(PID.TID 0000.0001)          No. starts:          12
(PID.TID 0000.0001)           No. stops:          12
(PID.TID 0000.0001)   Seconds in section "INTEGR_CONTINUITY   [FORWARD_STEP]":
(PID.TID 0000.0001)           User time:   1.3455033302307129E-002
(PID.TID 0000.0001)         System time:   4.0996819734573364E-005
(PID.TID 0000.0001)     Wall clock time:   1.3507843017578125E-002
(PID.TID 0000.0001)          No. starts:          12
(PID.TID 0000.0001)           No. stops:          12
(PID.TID 0000.0001)   Seconds in section "TRC_CORRECTION_STEP [FORWARD_STEP]":
(PID.TID 0000.0001)           User time:   9.8079442977905273E-005
(PID.TID 0000.0001)         System time:   0.0000000000000000
(PID.TID 0000.0001)     Wall clock time:   9.8466873168945312E-005
(PID.TID 0000.0001)          No. starts:          12
(PID.TID 0000.0001)           No. stops:          12
(PID.TID 0000.0001)   Seconds in section "BLOCKING_EXCHANGES  [FORWARD_STEP]":
(PID.TID 0000.0001)           User time:   3.7681043148040771E-002
(PID.TID 0000.0001)         System time:   1.1999160051345825E-005
(PID.TID 0000.0001)     Wall clock time:   3.7702798843383789E-002
(PID.TID 0000.0001)          No. starts:          12
(PID.TID 0000.0001)           No. stops:          12
(PID.TID 0000.0001)   Seconds in section "MONITOR             [FORWARD_STEP]":
(PID.TID 0000.0001)           User time:   4.3133974075317383E-002
(PID.TID 0000.0001)         System time:   3.6310032010078430E-003
(PID.TID 0000.0001)     Wall clock time:   4.6785831451416016E-002
(PID.TID 0000.0001)          No. starts:          12
(PID.TID 0000.0001)           No. stops:          12
(PID.TID 0000.0001)   Seconds in section "DO_THE_MODEL_IO     [FORWARD_STEP]":
(PID.TID 0000.0001)           User time:   2.6742219924926758E-003
(PID.TID 0000.0001)         System time:   5.5010020732879639E-003
(PID.TID 0000.0001)     Wall clock time:   8.1779956817626953E-003
(PID.TID 0000.0001)          No. starts:          12
(PID.TID 0000.0001)           No. stops:          12
(PID.TID 0000.0001)   Seconds in section "DO_WRITE_PICKUP     [FORWARD_STEP]":
(PID.TID 0000.0001)           User time:   7.4505805969238281E-005
(PID.TID 0000.0001)         System time:   3.4819990396499634E-003
(PID.TID 0000.0001)     Wall clock time:   3.5562515258789062E-003
(PID.TID 0000.0001)          No. starts:          12
(PID.TID 0000.0001)           No. stops:          12
(PID.TID 0000.0001) // ======================================================
(PID.TID 0000.0001) // Tile <-> Tile communication statistics
(PID.TID 0000.0001) // ======================================================
(PID.TID 0000.0001) // o Tile number: 000001
(PID.TID 0000.0001) //         No. X exchanges =              0
(PID.TID 0000.0001) //            Max. X spins =              0
(PID.TID 0000.0001) //            Min. X spins =     1000000000
(PID.TID 0000.0001) //          Total. X spins =              0
(PID.TID 0000.0001) //            Avg. X spins =       0.00E+00
(PID.TID 0000.0001) //         No. Y exchanges =              0
(PID.TID 0000.0001) //            Max. Y spins =              0
(PID.TID 0000.0001) //            Min. Y spins =     1000000000
(PID.TID 0000.0001) //          Total. Y spins =              0
(PID.TID 0000.0001) //            Avg. Y spins =       0.00E+00
(PID.TID 0000.0001) // o Tile number: 000002
(PID.TID 0000.0001) //         No. X exchanges =              0
(PID.TID 0000.0001) //            Max. X spins =              0
(PID.TID 0000.0001) //            Min. X spins =     1000000000
(PID.TID 0000.0001) //          Total. X spins =              0
(PID.TID 0000.0001) //            Avg. X spins =       0.00E+00
(PID.TID 0000.0001) //         No. Y exchanges =              0
(PID.TID 0000.0001) //            Max. Y spins =              0
(PID.TID 0000.0001) //            Min. Y spins =     1000000000
(PID.TID 0000.0001) //          Total. Y spins =              0
(PID.TID 0000.0001) //            Avg. Y spins =       0.00E+00
(PID.TID 0000.0001) // o Tile number: 000003
(PID.TID 0000.0001) //         No. X exchanges =              0
(PID.TID 0000.0001) //            Max. X spins =              0
(PID.TID 0000.0001) //            Min. X spins =     1000000000
(PID.TID 0000.0001) //          Total. X spins =              0
(PID.TID 0000.0001) //            Avg. X spins =       0.00E+00
(PID.TID 0000.0001) //         No. Y exchanges =              0
(PID.TID 0000.0001) //            Max. Y spins =              0
(PID.TID 0000.0001) //            Min. Y spins =     1000000000
(PID.TID 0000.0001) //          Total. Y spins =              0
(PID.TID 0000.0001) //            Avg. Y spins =       0.00E+00
(PID.TID 0000.0001) // o Tile number: 000004
(PID.TID 0000.0001) //         No. X exchanges =              0
(PID.TID 0000.0001) //            Max. X spins =              0
(PID.TID 0000.0001) //            Min. X spins =     1000000000
(PID.TID 0000.0001) //          Total. X spins =              0
(PID.TID 0000.0001) //            Avg. X spins =       0.00E+00
(PID.TID 0000.0001) //         No. Y exchanges =              0
(PID.TID 0000.0001) //            Max. Y spins =              0
(PID.TID 0000.0001) //            Min. Y spins =     1000000000
(PID.TID 0000.0001) //          Total. Y spins =              0
(PID.TID 0000.0001) //            Avg. Y spins =       0.00E+00
(PID.TID 0000.0001) // o Thread number: 000001
(PID.TID 0000.0001) //            No. barriers =          17346
(PID.TID 0000.0001) //      Max. barrier spins =              1
(PID.TID 0000.0001) //      Min. barrier spins =              1
(PID.TID 0000.0001) //     Total barrier spins =          17346
(PID.TID 0000.0001) //      Avg. barrier spins =       1.00E+00
PROGRAM MAIN: Execution ended Normally
