(PID.TID 0000.0001) 
(PID.TID 0000.0001) // ======================================================
(PID.TID 0000.0001) //                      MITgcm UV
(PID.TID 0000.0001) //                      =========
(PID.TID 0000.0001) // ======================================================
(PID.TID 0000.0001) // execution environment starting up...
(PID.TID 0000.0001) 
(PID.TID 0000.0001) // MITgcmUV version:  checkpoint69f
(PID.TID 0000.0001) // Build user:        jm_c
(PID.TID 0000.0001) // Build host:        villon
(PID.TID 0000.0001) // Build date:        Fri Aug 29 23:16:55 EDT 2025
(PID.TID 0000.0001) 
(PID.TID 0000.0001) // =======================================================
(PID.TID 0000.0001) // Execution Environment parameter file "eedata"
(PID.TID 0000.0001) // =======================================================
(PID.TID 0000.0001) ># Example "eedata" file
(PID.TID 0000.0001) ># Lines beginning "#" are comments
(PID.TID 0000.0001) ># nTx - No. threads per process in X
(PID.TID 0000.0001) ># nTy - No. threads per process in Y
(PID.TID 0000.0001) > &EEPARMS
(PID.TID 0000.0001) > /
(PID.TID 0000.0001) ># Note: Some systems use & as the namelist terminator (as shown here).
(PID.TID 0000.0001) >#       Other systems use a / character.
(PID.TID 0000.0001) 
(PID.TID 0000.0001) // =======================================================
(PID.TID 0000.0001) // Computational Grid Specification ( see files "SIZE.h" )
(PID.TID 0000.0001) //                                  ( and "eedata"       )
(PID.TID 0000.0001) // =======================================================
(PID.TID 0000.0001)      nPx =    1 ; /* No. processes in X */
(PID.TID 0000.0001)      nPy =    1 ; /* No. processes in Y */
(PID.TID 0000.0001)      nSx =    4 ; /* No. tiles in X per process */
(PID.TID 0000.0001)      nSy =    1 ; /* No. tiles in Y per process */
(PID.TID 0000.0001)      sNx =   13 ; /* Tile size in X */
(PID.TID 0000.0001)      sNy =    1 ; /* Tile size in Y */
(PID.TID 0000.0001)      OLx =    2 ; /* Tile overlap distance in X */
(PID.TID 0000.0001)      OLy =    2 ; /* Tile overlap distance in Y */
(PID.TID 0000.0001)      nTx =    1 ; /* No. threads in X per process */
(PID.TID 0000.0001)      nTy =    1 ; /* No. threads in Y per process */
(PID.TID 0000.0001)       Nr =   50 ; /* No. levels in the vertical   */
(PID.TID 0000.0001)       Nx =   52 ; /* Total domain size in X ( = nPx*nSx*sNx ) */
(PID.TID 0000.0001)       Ny =    1 ; /* Total domain size in Y ( = nPy*nSy*sNy ) */
(PID.TID 0000.0001)   nTiles =    4 ; /* Total no. tiles per process ( = nSx*nSy ) */
(PID.TID 0000.0001)   nProcs =    1 ; /* Total no. processes ( = nPx*nPy ) */
(PID.TID 0000.0001) nThreads =    1 ; /* Total no. threads per process ( = nTx*nTy ) */
(PID.TID 0000.0001) usingMPI =    F ; /* Flag used to control whether MPI is in use */
(PID.TID 0000.0001)                   /*  note: To execute a program with MPI calls */
(PID.TID 0000.0001)                   /*  it must be launched appropriately e.g     */
(PID.TID 0000.0001)                   /*  "mpirun -np 64 ......"                    */
(PID.TID 0000.0001) useCoupler=   F ; /* Flag used to control communications with   */
(PID.TID 0000.0001)                   /*  other model components, through a coupler */
(PID.TID 0000.0001) useNest2W_parent =    F ;/* Control 2-W Nesting comm */
(PID.TID 0000.0001) useNest2W_child  =    F ;/* Control 2-W Nesting comm */
(PID.TID 0000.0001) debugMode =    F ; /* print debug msg. (sequence of S/R calls)  */
(PID.TID 0000.0001) printMapIncludesZeros=    F ; /* print zeros in Std.Output maps */
(PID.TID 0000.0001) maxLengthPrt1D=   65 /* maxLength of 1D array printed to StdOut */
(PID.TID 0000.0001) 
(PID.TID 0000.0001) // ======================================================
(PID.TID 0000.0001) // Mapping of tiles to threads
(PID.TID 0000.0001) // ======================================================
(PID.TID 0000.0001) // -o- Thread   1, tiles (   1:   4,   1:   1)
(PID.TID 0000.0001) 
(PID.TID 0000.0001) // ======================================================
(PID.TID 0000.0001) // Tile <-> Tile connectvity table
(PID.TID 0000.0001) // ======================================================
(PID.TID 0000.0001) // Tile number: 000001 (process no. = 000000)
(PID.TID 0000.0001) //        WEST: Tile = 000004, Process = 000000, Comm = put
(PID.TID 0000.0001) //                bi = 000004, bj = 000001
(PID.TID 0000.0001) //        EAST: Tile = 000002, Process = 000000, Comm = put
(PID.TID 0000.0001) //                bi = 000002, bj = 000001
(PID.TID 0000.0001) //       SOUTH: Tile = 000001, Process = 000000, Comm = put
(PID.TID 0000.0001) //                bi = 000001, bj = 000001
(PID.TID 0000.0001) //       NORTH: Tile = 000001, Process = 000000, Comm = put
(PID.TID 0000.0001) //                bi = 000001, bj = 000001
(PID.TID 0000.0001) // Tile number: 000002 (process no. = 000000)
(PID.TID 0000.0001) //        WEST: Tile = 000001, Process = 000000, Comm = put
(PID.TID 0000.0001) //                bi = 000001, bj = 000001
(PID.TID 0000.0001) //        EAST: Tile = 000003, Process = 000000, Comm = put
(PID.TID 0000.0001) //                bi = 000003, bj = 000001
(PID.TID 0000.0001) //       SOUTH: Tile = 000002, Process = 000000, Comm = put
(PID.TID 0000.0001) //                bi = 000002, bj = 000001
(PID.TID 0000.0001) //       NORTH: Tile = 000002, Process = 000000, Comm = put
(PID.TID 0000.0001) //                bi = 000002, bj = 000001
(PID.TID 0000.0001) // Tile number: 000003 (process no. = 000000)
(PID.TID 0000.0001) //        WEST: Tile = 000002, Process = 000000, Comm = put
(PID.TID 0000.0001) //                bi = 000002, bj = 000001
(PID.TID 0000.0001) //        EAST: Tile = 000004, Process = 000000, Comm = put
(PID.TID 0000.0001) //                bi = 000004, bj = 000001
(PID.TID 0000.0001) //       SOUTH: Tile = 000003, Process = 000000, Comm = put
(PID.TID 0000.0001) //                bi = 000003, bj = 000001
(PID.TID 0000.0001) //       NORTH: Tile = 000003, Process = 000000, Comm = put
(PID.TID 0000.0001) //                bi = 000003, bj = 000001
(PID.TID 0000.0001) // Tile number: 000004 (process no. = 000000)
(PID.TID 0000.0001) //        WEST: Tile = 000003, Process = 000000, Comm = put
(PID.TID 0000.0001) //                bi = 000003, bj = 000001
(PID.TID 0000.0001) //        EAST: Tile = 000001, Process = 000000, Comm = put
(PID.TID 0000.0001) //                bi = 000001, bj = 000001
(PID.TID 0000.0001) //       SOUTH: Tile = 000004, Process = 000000, Comm = put
(PID.TID 0000.0001) //                bi = 000004, bj = 000001
(PID.TID 0000.0001) //       NORTH: Tile = 000004, Process = 000000, Comm = put
(PID.TID 0000.0001) //                bi = 000004, bj = 000001
(PID.TID 0000.0001) 
(PID.TID 0000.0001)  INI_PARMS: opening model parameter file "data"
(PID.TID 0000.0001)  OPEN_COPY_DATA_FILE: opening file data
(PID.TID 0000.0001) // =======================================================
(PID.TID 0000.0001) // Parameter file "data"
(PID.TID 0000.0001) // =======================================================
(PID.TID 0000.0001) ># ====================
(PID.TID 0000.0001) ># | Model parameters |
(PID.TID 0000.0001) ># ====================
(PID.TID 0000.0001) >#
(PID.TID 0000.0001) ># Continuous equation parameters
(PID.TID 0000.0001) > &PARM01
(PID.TID 0000.0001) > Tref= 50*10.,
(PID.TID 0000.0001) > sRef= 50*35.,
(PID.TID 0000.0001) > viscAr=1.E-6,
(PID.TID 0000.0001) > viscAh=1.E-6,
(PID.TID 0000.0001) > no_slip_sides=.FALSE.,
(PID.TID 0000.0001) > no_slip_bottom=.FALSE.,
(PID.TID 0000.0001) > f0=0.0,
(PID.TID 0000.0001) > beta=0.E-11,
(PID.TID 0000.0001) > eosType='LINEAR',
(PID.TID 0000.0001) > tAlpha=0.E-4,
(PID.TID 0000.0001) > sBeta =0.E-4,
(PID.TID 0000.0001) > gravity=10.,
(PID.TID 0000.0001) > implicitFreeSurface=.TRUE.,
(PID.TID 0000.0001) > exactConserv=.TRUE.
(PID.TID 0000.0001) > implicDiv2DFlow=0.5,
(PID.TID 0000.0001) > implicSurfPress=0.5,
(PID.TID 0000.0001) > nonHydrostatic=.TRUE.,
(PID.TID 0000.0001) > selectNHfreeSurf=1,
(PID.TID 0000.0001) > saltStepping=.FALSE.,
(PID.TID 0000.0001) > tempStepping=.FALSE.,
(PID.TID 0000.0001) > hFacMin=0.2,
(PID.TID 0000.0001) > readBinaryPrec=64,
(PID.TID 0000.0001) >#writeBinaryPrec=64,
(PID.TID 0000.0001) >#globalFiles=.TRUE.,
(PID.TID 0000.0001) >#debugLevel = 3,
(PID.TID 0000.0001) > plotLevel = 0,
(PID.TID 0000.0001) > /
(PID.TID 0000.0001) >
(PID.TID 0000.0001) ># Elliptic solver parameters
(PID.TID 0000.0001) > &PARM02
(PID.TID 0000.0001) > cg2dMaxIters=200,
(PID.TID 0000.0001) > cg3dMaxIters=400,
(PID.TID 0000.0001) >#cg2dTargetResidual=1.E-13,
(PID.TID 0000.0001) >#cg3dTargetResidual=1.E-11,
(PID.TID 0000.0001) >#--
(PID.TID 0000.0001) > cg2dTargetResWunit=1.0E-14,
(PID.TID 0000.0001) > cg3dTargetResWunit=1.5E-17,
(PID.TID 0000.0001) > /
(PID.TID 0000.0001) >
(PID.TID 0000.0001) ># Time stepping parameters
(PID.TID 0000.0001) > &PARM03
(PID.TID 0000.0001) > nIter0=1,
(PID.TID 0000.0001) >#endTime=20.,
(PID.TID 0000.0001) > nTimeSteps=11,
(PID.TID 0000.0001) > deltaT=5.e-3,
(PID.TID 0000.0001) > alph_AB=0.5,
(PID.TID 0000.0001) > beta_AB=0.281105,
(PID.TID 0000.0001) > momDissip_In_AB=.FALSE.,
(PID.TID 0000.0001) > pChkptFreq=0.0,
(PID.TID 0000.0001) > chkptFreq=0.0,
(PID.TID 0000.0001) > dumpFreq=5.0,
(PID.TID 0000.0001) > monitorFreq=0.2,
(PID.TID 0000.0001) > monitorSelect=1,
(PID.TID 0000.0001) >#dumpFreq=0.055,
(PID.TID 0000.0001) >#diagFreq=0.06,
(PID.TID 0000.0001) > monitorFreq=0.005,
(PID.TID 0000.0001) > /
(PID.TID 0000.0001) >
(PID.TID 0000.0001) ># Gridding parameters
(PID.TID 0000.0001) > &PARM04
(PID.TID 0000.0001) > usingCartesianGrid=.TRUE.,
(PID.TID 0000.0001) > delX=52*0.2,
(PID.TID 0000.0001) > delY= 1*0.2,
(PID.TID 0000.0001) > delR=50*0.2,
(PID.TID 0000.0001) > /
(PID.TID 0000.0001) >
(PID.TID 0000.0001) ># Input datasets
(PID.TID 0000.0001) > &PARM05
(PID.TID 0000.0001) > pSurfInitFile='Eta_ini.bin',
(PID.TID 0000.0001) > bathyFile  ='topo_flat.bin',
(PID.TID 0000.0001) > /
(PID.TID 0000.0001) 
(PID.TID 0000.0001)  INI_PARMS ; starts to read PARM01
(PID.TID 0000.0001)  INI_PARMS ; read PARM01 : OK
(PID.TID 0000.0001)  INI_PARMS ; starts to read PARM02
(PID.TID 0000.0001)  INI_PARMS ; read PARM02 : OK
(PID.TID 0000.0001)  INI_PARMS ; starts to read PARM03
(PID.TID 0000.0001)  INI_PARMS ; read PARM03 : OK
(PID.TID 0000.0001)  INI_PARMS ; starts to read PARM04
(PID.TID 0000.0001)  INI_PARMS ; read PARM04 : OK
(PID.TID 0000.0001)  INI_PARMS ; starts to read PARM05
(PID.TID 0000.0001)  INI_PARMS ; read PARM05 : OK
(PID.TID 0000.0001)  INI_PARMS: finished reading file "data"
(PID.TID 0000.0001)  PACKAGES_BOOT: opening data.pkg
(PID.TID 0000.0001)  OPEN_COPY_DATA_FILE: opening file data.pkg
(PID.TID 0000.0001) // =======================================================
(PID.TID 0000.0001) // Parameter file "data.pkg"
(PID.TID 0000.0001) // =======================================================
(PID.TID 0000.0001) ># Packages
(PID.TID 0000.0001) > &PACKAGES
(PID.TID 0000.0001) > useDiagnostics=.TRUE.,
(PID.TID 0000.0001) > /
(PID.TID 0000.0001) 
(PID.TID 0000.0001)  PACKAGES_BOOT: finished reading data.pkg
(PID.TID 0000.0001)  PACKAGES_BOOT: On/Off package Summary
 --------  pkgs with a standard "usePKG" On/Off switch in "data.pkg":  --------
 pkg/diagnostics          compiled   and   used ( useDiagnostics           = T )
 -------- pkgs without standard "usePKG" On/Off switch in "data.pkg":  --------
 pkg/generic_advdiff      compiled but not used ( useGAD                   = F )
 pkg/mom_common           compiled   and   used ( momStepping              = T )
 pkg/mom_vecinv           compiled but not used ( +vectorInvariantMomentum = F )
 pkg/mom_fluxform         compiled   and   used ( & not vectorInvariantMom = T )
 pkg/monitor              compiled   and   used ( monitorFreq > 0.         = T )
 pkg/debug                compiled but not used ( debugMode                = F )
 pkg/rw                   compiled   and   used
 pkg/mdsio                compiled   and   used
(PID.TID 0000.0001)  PACKAGES_BOOT: End of package Summary
(PID.TID 0000.0001) 
(PID.TID 0000.0001)  DIAGNOSTICS_READPARMS: opening data.diagnostics
(PID.TID 0000.0001)  OPEN_COPY_DATA_FILE: opening file data.diagnostics
(PID.TID 0000.0001) // =======================================================
(PID.TID 0000.0001) // Parameter file "data.diagnostics"
(PID.TID 0000.0001) // =======================================================
(PID.TID 0000.0001) ># Diagnostic Package Choices
(PID.TID 0000.0001) >#--------------------
(PID.TID 0000.0001) >#  dumpAtLast (logical): always write output at the end of simulation (default=F)
(PID.TID 0000.0001) >#  diag_mnc   (logical): write to NetCDF files (default=useMNC)
(PID.TID 0000.0001) >#--for each output-stream:
(PID.TID 0000.0001) >#  fileName(n) : prefix of the output file name (max 80c long) for outp.stream n
(PID.TID 0000.0001) >#  frequency(n):< 0 : write snap-shot output every |frequency| seconds
(PID.TID 0000.0001) >#               > 0 : write time-average output every frequency seconds
(PID.TID 0000.0001) >#  timePhase(n)     : write at time = timePhase + multiple of |frequency|
(PID.TID 0000.0001) >#    averagingFreq  : frequency (in s) for periodic averaging interval
(PID.TID 0000.0001) >#    averagingPhase : phase     (in s) for periodic averaging interval
(PID.TID 0000.0001) >#    repeatCycle    : number of averaging intervals in 1 cycle
(PID.TID 0000.0001) >#  levels(:,n) : list of levels to write to file (Notes: declared as REAL)
(PID.TID 0000.0001) >#                when this entry is missing, select all common levels of this list
(PID.TID 0000.0001) >#  fields(:,n) : list of selected diagnostics fields (8.c) in outp.stream n
(PID.TID 0000.0001) >#                (see "available_diagnostics.log" file for the full list of diags)
(PID.TID 0000.0001) >#  missing_value(n) : missing value for real-type fields in output file "n"
(PID.TID 0000.0001) >#  fileFlags(n)     : specific code (8c string) for output file "n"
(PID.TID 0000.0001) >#--------------------
(PID.TID 0000.0001) > &DIAGNOSTICS_LIST
(PID.TID 0000.0001) ># diag_mnc     = .FALSE.,
(PID.TID 0000.0001) >#--
(PID.TID 0000.0001) >  fields(1:3,1)  = 'ETAN    ','ETANSQ  ','DETADT2 ',
(PID.TID 0000.0001) >   fileName(1) = 'surfDiag',
(PID.TID 0000.0001) >  frequency(1) = -0.25,
(PID.TID 0000.0001) >  timePhase(1) = 0.,
(PID.TID 0000.0001) > /
(PID.TID 0000.0001) >
(PID.TID 0000.0001) >#--------------------
(PID.TID 0000.0001) ># Parameter for Diagnostics of per level statistics:
(PID.TID 0000.0001) >#--------------------
(PID.TID 0000.0001) >#  diagSt_mnc (logical): write stat-diags to NetCDF files (default=diag_mnc)
(PID.TID 0000.0001) >#  diagSt_regMaskFile : file containing the region-mask to read-in
(PID.TID 0000.0001) >#  nSetRegMskFile   : number of region-mask sets within the region-mask file
(PID.TID 0000.0001) >#  set_regMask(i)   : region-mask set-index that identifies the region "i"
(PID.TID 0000.0001) >#  val_regMask(i)   : region "i" identifier value in the region mask
(PID.TID 0000.0001) >#--for each output-stream:
(PID.TID 0000.0001) >#  stat_fName(n) : prefix of the output file name (max 80c long) for outp.stream n
(PID.TID 0000.0001) >#  stat_freq(n):< 0 : write snap-shot output every |stat_freq| seconds
(PID.TID 0000.0001) >#               > 0 : write time-average output every stat_freq seconds
(PID.TID 0000.0001) >#  stat_phase(n)    : write at time = stat_phase + multiple of |stat_freq|
(PID.TID 0000.0001) >#  stat_region(:,n) : list of "regions" (default: 1 region only=global)
(PID.TID 0000.0001) >#  stat_fields(:,n) : list of selected diagnostics fields (8.c) in outp.stream n
(PID.TID 0000.0001) >#                (see "available_diagnostics.log" file for the full list of diags)
(PID.TID 0000.0001) >#--------------------
(PID.TID 0000.0001) > &DIAG_STATIS_PARMS
(PID.TID 0000.0001) > stat_fields(1:6,1)  = 'ETAN    ','ETANSQ  ','DETADT2 ',
(PID.TID 0000.0001) >                       'UVEL    ','WVEL    ','PHI_NH  ',
(PID.TID 0000.0001) >  stat_fName(1) = 'dynStDiag',
(PID.TID 0000.0001) >   stat_freq(1) = -0.025,
(PID.TID 0000.0001) >  stat_phase(1) =  0.005,
(PID.TID 0000.0001) > /
(PID.TID 0000.0001) >
(PID.TID 0000.0001) 
(PID.TID 0000.0001) S/R DIAGNOSTICS_READPARMS, read namelist "diagnostics_list": start
(PID.TID 0000.0001) S/R DIAGNOSTICS_READPARMS, read namelist "diagnostics_list": OK
(PID.TID 0000.0001) S/R DIAGNOSTICS_READPARMS, read namelist "DIAG_STATIS_PARMS": start
(PID.TID 0000.0001) S/R DIAGNOSTICS_READPARMS, read namelist "DIAG_STATIS_PARMS": OK
(PID.TID 0000.0001) -----------------------------------------------------
(PID.TID 0000.0001)  DIAGNOSTICS_READPARMS: global parameter summary:
(PID.TID 0000.0001)  diag_dBugLevel = /* level of printed debug messages */
(PID.TID 0000.0001)                       2
(PID.TID 0000.0001)     ;
(PID.TID 0000.0001)  dumpAtLast = /* always write time-ave diags at the end */
(PID.TID 0000.0001)                   F
(PID.TID 0000.0001)     ;
(PID.TID 0000.0001)  diag_mnc =   /* write NetCDF output files */
(PID.TID 0000.0001)                   F
(PID.TID 0000.0001)     ;
(PID.TID 0000.0001)  useMissingValue = /* put MissingValue where mask = 0 */
(PID.TID 0000.0001)                   F
(PID.TID 0000.0001)     ;
(PID.TID 0000.0001)  diagCG_maxIters = /* max number of iters in diag_cg2d */
(PID.TID 0000.0001)                     200
(PID.TID 0000.0001)     ;
(PID.TID 0000.0001)  diagCG_resTarget = /* residual target for diag_cg2d */
(PID.TID 0000.0001)                 1.000000000000000E-07
(PID.TID 0000.0001)     ;
(PID.TID 0000.0001)  diagCG_pcOffDFac = /* preconditioner off-diagonal factor */
(PID.TID 0000.0001)                 9.611687812379854E-01
(PID.TID 0000.0001)     ;
(PID.TID 0000.0001) -----------------------------------------------------
(PID.TID 0000.0001)  DIAGNOSTICS_READPARMS: active diagnostics summary:
(PID.TID 0000.0001) -----------------------------------------------------
(PID.TID 0000.0001) Creating Output Stream: surfDiag
(PID.TID 0000.0001) Output Frequency:         -0.250000 ; Phase:           0.000000
(PID.TID 0000.0001)  Averaging Freq.:          0.000000 , Phase:           0.000000 , Cycle:   1
(PID.TID 0000.0001)  missing value: -9.990000000000E+02
(PID.TID 0000.0001)  Levels:    will be set later
(PID.TID 0000.0001)  Fields:    ETAN     ETANSQ   DETADT2
(PID.TID 0000.0001) -----------------------------------------------------
(PID.TID 0000.0001)  DIAGNOSTICS_READPARMS: statistics diags. summary:
(PID.TID 0000.0001) Creating Stats. Output Stream: dynStDiag
(PID.TID 0000.0001) Output Frequency:         -0.025000 ; Phase:           0.005000
(PID.TID 0000.0001)  Regions:   0
(PID.TID 0000.0001)  Fields:    ETAN     ETANSQ   DETADT2  UVEL     WVEL     PHI_NH
(PID.TID 0000.0001) -----------------------------------------------------
(PID.TID 0000.0001) 
(PID.TID 0000.0001) SET_PARMS: done
(PID.TID 0000.0001) Enter INI_VERTICAL_GRID: setInterFDr=    T ; setCenterDr=    F
(PID.TID 0000.0001) %MON XC_max                       =   1.0300000000000E+01
(PID.TID 0000.0001) %MON XC_min                       =   1.0000000000000E-01
(PID.TID 0000.0001) %MON XC_mean                      =   5.2000000000000E+00
(PID.TID 0000.0001) %MON XC_sd                        =   3.0016662039607E+00
(PID.TID 0000.0001) %MON XG_max                       =   1.0200000000000E+01
(PID.TID 0000.0001) %MON XG_min                       =   0.0000000000000E+00
(PID.TID 0000.0001) %MON XG_mean                      =   5.1000000000000E+00
(PID.TID 0000.0001) %MON XG_sd                        =   3.0016662039607E+00
(PID.TID 0000.0001) %MON DXC_max                      =   2.0000000000000E-01
(PID.TID 0000.0001) %MON DXC_min                      =   2.0000000000000E-01
(PID.TID 0000.0001) %MON DXC_mean                     =   2.0000000000000E-01
(PID.TID 0000.0001) %MON DXC_sd                       =   0.0000000000000E+00
(PID.TID 0000.0001) %MON DXF_max                      =   2.0000000000000E-01
(PID.TID 0000.0001) %MON DXF_min                      =   2.0000000000000E-01
(PID.TID 0000.0001) %MON DXF_mean                     =   2.0000000000000E-01
(PID.TID 0000.0001) %MON DXF_sd                       =   0.0000000000000E+00
(PID.TID 0000.0001) %MON DXG_max                      =   2.0000000000000E-01
(PID.TID 0000.0001) %MON DXG_min                      =   2.0000000000000E-01
(PID.TID 0000.0001) %MON DXG_mean                     =   2.0000000000000E-01
(PID.TID 0000.0001) %MON DXG_sd                       =   0.0000000000000E+00
(PID.TID 0000.0001) %MON DXV_max                      =   2.0000000000000E-01
(PID.TID 0000.0001) %MON DXV_min                      =   2.0000000000000E-01
(PID.TID 0000.0001) %MON DXV_mean                     =   2.0000000000000E-01
(PID.TID 0000.0001) %MON DXV_sd                       =   0.0000000000000E+00
(PID.TID 0000.0001) %MON YC_max                       =   1.0000000000000E-01
(PID.TID 0000.0001) %MON YC_min                       =   1.0000000000000E-01
(PID.TID 0000.0001) %MON YC_mean                      =   1.0000000000000E-01
(PID.TID 0000.0001) %MON YC_sd                        =   0.0000000000000E+00
(PID.TID 0000.0001) %MON YG_max                       =   0.0000000000000E+00
(PID.TID 0000.0001) %MON YG_min                       =   0.0000000000000E+00
(PID.TID 0000.0001) %MON YG_mean                      =   0.0000000000000E+00
(PID.TID 0000.0001) %MON YG_sd                        =   0.0000000000000E+00
(PID.TID 0000.0001) %MON DYC_max                      =   2.0000000000000E-01
(PID.TID 0000.0001) %MON DYC_min                      =   2.0000000000000E-01
(PID.TID 0000.0001) %MON DYC_mean                     =   2.0000000000000E-01
(PID.TID 0000.0001) %MON DYC_sd                       =   0.0000000000000E+00
(PID.TID 0000.0001) %MON DYF_max                      =   2.0000000000000E-01
(PID.TID 0000.0001) %MON DYF_min                      =   2.0000000000000E-01
(PID.TID 0000.0001) %MON DYF_mean                     =   2.0000000000000E-01
(PID.TID 0000.0001) %MON DYF_sd                       =   0.0000000000000E+00
(PID.TID 0000.0001) %MON DYG_max                      =   2.0000000000000E-01
(PID.TID 0000.0001) %MON DYG_min                      =   2.0000000000000E-01
(PID.TID 0000.0001) %MON DYG_mean                     =   2.0000000000000E-01
(PID.TID 0000.0001) %MON DYG_sd                       =   0.0000000000000E+00
(PID.TID 0000.0001) %MON DYU_max                      =   2.0000000000000E-01
(PID.TID 0000.0001) %MON DYU_min                      =   2.0000000000000E-01
(PID.TID 0000.0001) %MON DYU_mean                     =   2.0000000000000E-01
(PID.TID 0000.0001) %MON DYU_sd                       =   0.0000000000000E+00
(PID.TID 0000.0001) %MON RA_max                       =   4.0000000000000E-02
(PID.TID 0000.0001) %MON RA_min                       =   4.0000000000000E-02
(PID.TID 0000.0001) %MON RA_mean                      =   4.0000000000000E-02
(PID.TID 0000.0001) %MON RA_sd                        =   1.3877787807814E-17
(PID.TID 0000.0001) %MON RAW_max                      =   4.0000000000000E-02
(PID.TID 0000.0001) %MON RAW_min                      =   4.0000000000000E-02
(PID.TID 0000.0001) %MON RAW_mean                     =   4.0000000000000E-02
(PID.TID 0000.0001) %MON RAW_sd                       =   1.3877787807814E-17
(PID.TID 0000.0001) %MON RAS_max                      =   4.0000000000000E-02
(PID.TID 0000.0001) %MON RAS_min                      =   4.0000000000000E-02
(PID.TID 0000.0001) %MON RAS_mean                     =   4.0000000000000E-02
(PID.TID 0000.0001) %MON RAS_sd                       =   1.3877787807814E-17
(PID.TID 0000.0001) %MON RAZ_max                      =   4.0000000000000E-02
(PID.TID 0000.0001) %MON RAZ_min                      =   4.0000000000000E-02
(PID.TID 0000.0001) %MON RAZ_mean                     =   4.0000000000000E-02
(PID.TID 0000.0001) %MON RAZ_sd                       =   1.3877787807814E-17
(PID.TID 0000.0001) %MON AngleCS_max                  =   1.0000000000000E+00
(PID.TID 0000.0001) %MON AngleCS_min                  =   1.0000000000000E+00
(PID.TID 0000.0001) %MON AngleCS_mean                 =   1.0000000000000E+00
(PID.TID 0000.0001) %MON AngleCS_sd                   =   0.0000000000000E+00
(PID.TID 0000.0001) %MON AngleSN_max                  =   0.0000000000000E+00
(PID.TID 0000.0001) %MON AngleSN_min                  =   0.0000000000000E+00
(PID.TID 0000.0001) %MON AngleSN_mean                 =   0.0000000000000E+00
(PID.TID 0000.0001) %MON AngleSN_sd                   =   0.0000000000000E+00
(PID.TID 0000.0001)  MDS_READ_FIELD: opening global file: topo_flat.bin
(PID.TID 0000.0001) GAD_INIT_FIXED: GAD_OlMinSize=  0  0  1
(PID.TID 0000.0001) 
(PID.TID 0000.0001) // ===================================
(PID.TID 0000.0001) // GAD parameters :
(PID.TID 0000.0001) // ===================================
(PID.TID 0000.0001) tempAdvScheme =   /* Temp. Horiz.Advection scheme selector */
(PID.TID 0000.0001)                       2
(PID.TID 0000.0001)     ;
(PID.TID 0000.0001) tempVertAdvScheme =   /* Temp. Vert. Advection scheme selector */
(PID.TID 0000.0001)                       2
(PID.TID 0000.0001)     ;
(PID.TID 0000.0001) tempMultiDimAdvec =   /* use Muti-Dim Advec method for Temp */
(PID.TID 0000.0001)                   F
(PID.TID 0000.0001)     ;
(PID.TID 0000.0001) tempSOM_Advection = /* use 2nd Order Moment Advection for Temp */
(PID.TID 0000.0001)                   F
(PID.TID 0000.0001)     ;
(PID.TID 0000.0001) AdamsBashforthGt = /* apply Adams-Bashforth extrapolation on Gt */
(PID.TID 0000.0001)                   F
(PID.TID 0000.0001)     ;
(PID.TID 0000.0001) AdamsBashforth_T = /* apply Adams-Bashforth extrapolation on Temp */
(PID.TID 0000.0001)                   F
(PID.TID 0000.0001)     ;
(PID.TID 0000.0001) saltAdvScheme =   /* Salt. Horiz.advection scheme selector */
(PID.TID 0000.0001)                       2
(PID.TID 0000.0001)     ;
(PID.TID 0000.0001) saltVertAdvScheme =   /* Salt. Vert. Advection scheme selector */
(PID.TID 0000.0001)                       2
(PID.TID 0000.0001)     ;
(PID.TID 0000.0001) saltMultiDimAdvec =   /* use Muti-Dim Advec method for Salt */
(PID.TID 0000.0001)                   F
(PID.TID 0000.0001)     ;
(PID.TID 0000.0001) saltSOM_Advection = /* use 2nd Order Moment Advection for Salt */
(PID.TID 0000.0001)                   F
(PID.TID 0000.0001)     ;
(PID.TID 0000.0001) AdamsBashforthGs = /* apply Adams-Bashforth extrapolation on Gs */
(PID.TID 0000.0001)                   F
(PID.TID 0000.0001)     ;
(PID.TID 0000.0001) AdamsBashforth_S = /* apply Adams-Bashforth extrapolation on Salt */
(PID.TID 0000.0001)                   F
(PID.TID 0000.0001)     ;
(PID.TID 0000.0001) // ===================================
(PID.TID 0000.0001) ------------------------------------------------------------
(PID.TID 0000.0001) DIAGNOSTICS_SET_LEVELS: done
(PID.TID 0000.0001)  Total Nb of available Diagnostics: ndiagt=   203
(PID.TID 0000.0001)  write list of available Diagnostics to file: available_diagnostics.log
(PID.TID 0000.0001) SETDIAG: Allocate  1 x  1 Levels for Diagnostic #    23 ETAN
(PID.TID 0000.0001) SETDIAG: Allocate  1 x  1 Levels for Diagnostic #    24 ETANSQ
(PID.TID 0000.0001) SETDIAG: Allocate  1 x  1 Levels for Diagnostic #    25 DETADT2
(PID.TID 0000.0001)   space allocated for all diagnostics:       3 levels
(PID.TID 0000.0001) DIAGNOSTICS_SET_POINTERS: Set levels for Outp.Stream: surfDiag
(PID.TID 0000.0001)  Levels:       1.
(PID.TID 0000.0001) DIAGNOSTICS_SET_POINTERS: done, use       3 levels (numDiags =     500 )
(PID.TID 0000.0001) ------------------------------------------------------------
(PID.TID 0000.0001) DIAGSTATS_SET_REGIONS: define no region
(PID.TID 0000.0001) ------------------------------------------------------------
(PID.TID 0000.0001) SETDIAG: Allocate  1 Levels for Stats-Diag #    23 ETAN
(PID.TID 0000.0001) SETDIAG: Allocate  1 Levels for Stats-Diag #    24 ETANSQ
(PID.TID 0000.0001) SETDIAG: Allocate  1 Levels for Stats-Diag #    25 DETADT2
(PID.TID 0000.0001) SETDIAG: Allocate 50 Levels for Stats-Diag #    30 UVEL
(PID.TID 0000.0001) SETDIAG: Allocate 50 Levels for Stats-Diag #    32 WVEL
(PID.TID 0000.0001) SETDIAG: Allocate 50 Levels for Stats-Diag #    77 PHI_NH
(PID.TID 0000.0001)   space allocated for all stats-diags:     153 levels
(PID.TID 0000.0001) DIAGSTATS_SET_POINTERS: done, use     153 levels (diagSt_size=    1000 )
(PID.TID 0000.0001) ------------------------------------------------------------
(PID.TID 0000.0001) %MON fCori_max                    =   0.0000000000000E+00
(PID.TID 0000.0001) %MON fCori_min                    =   0.0000000000000E+00
(PID.TID 0000.0001) %MON fCori_mean                   =   0.0000000000000E+00
(PID.TID 0000.0001) %MON fCori_sd                     =   0.0000000000000E+00
(PID.TID 0000.0001) %MON fCoriG_max                   =   0.0000000000000E+00
(PID.TID 0000.0001) %MON fCoriG_min                   =   0.0000000000000E+00
(PID.TID 0000.0001) %MON fCoriG_mean                  =   0.0000000000000E+00
(PID.TID 0000.0001) %MON fCoriG_sd                    =   0.0000000000000E+00
(PID.TID 0000.0001) %MON fCoriCos_max                 =   0.0000000000000E+00
(PID.TID 0000.0001) %MON fCoriCos_min                 =   0.0000000000000E+00
(PID.TID 0000.0001) %MON fCoriCos_mean                =   0.0000000000000E+00
(PID.TID 0000.0001) %MON fCoriCos_sd                  =   0.0000000000000E+00
(PID.TID 0000.0001) INI_CG2D: CG2D normalisation factor =  4.0000000000000008E-01
(PID.TID 0000.0001) INI_CG2D: cg2dTolerance = 8.000000000000005E-13 (Area=2.0000000000E+00)
(PID.TID 0000.0001) 
(PID.TID 0000.0001) INI_CG3D: CG3D normalisation factor =  1.9999999999999996E+01
(PID.TID 0000.0001) INI_CG3D: cg3dTolerance = 6.000000000000002E-14 (Area=2.0000000000E+00)
(PID.TID 0000.0001) 
(PID.TID 0000.0001) // =======================================================
(PID.TID 0000.0001) // Model configuration
(PID.TID 0000.0001) // =======================================================
(PID.TID 0000.0001) //
(PID.TID 0000.0001) // "Physical" paramters ( PARM01 in namelist )
(PID.TID 0000.0001) //
(PID.TID 0000.0001) buoyancyRelation = /* Type of relation to get Buoyancy */
(PID.TID 0000.0001)               'OCEANIC'
(PID.TID 0000.0001)     ;
(PID.TID 0000.0001) fluidIsAir   =  /* fluid major constituent is Air */
(PID.TID 0000.0001)                   F
(PID.TID 0000.0001)     ;
(PID.TID 0000.0001) fluidIsWater =  /* fluid major constituent is Water */
(PID.TID 0000.0001)                   T
(PID.TID 0000.0001)     ;
(PID.TID 0000.0001) usingPCoords =  /* use p (or p*) vertical coordinate */
(PID.TID 0000.0001)                   F
(PID.TID 0000.0001)     ;
(PID.TID 0000.0001) usingZCoords =  /* use z (or z*) vertical coordinate */
(PID.TID 0000.0001)                   T
(PID.TID 0000.0001)     ;
(PID.TID 0000.0001) tRef =   /* Reference temperature profile ( oC or K ) */
(PID.TID 0000.0001)    50 @  1.000000000000000E+01              /* K =  1: 50 */
(PID.TID 0000.0001)     ;
(PID.TID 0000.0001) sRef =   /* Reference salinity profile ( g/kg ) */
(PID.TID 0000.0001)    50 @  3.500000000000000E+01              /* K =  1: 50 */
(PID.TID 0000.0001)     ;
(PID.TID 0000.0001) rhoRef =   /* Density vertical profile from (Ref,sRef)( kg/m^3 ) */
(PID.TID 0000.0001)    50 @  9.998000000000000E+02              /* K =  1: 50 */
(PID.TID 0000.0001)     ;
(PID.TID 0000.0001) dBdrRef = /* Vertical grad. of reference buoyancy [(m/s/r)^2] */
(PID.TID 0000.0001)    50 @  0.000000000000000E+00              /* K =  1: 50 */
(PID.TID 0000.0001)     ;
(PID.TID 0000.0001) useStrainTensionVisc= /* Use StrainTension Form of Viscous Operator */
(PID.TID 0000.0001)                   F
(PID.TID 0000.0001)     ;
(PID.TID 0000.0001) useVariableVisc = /* Use variable horizontal viscosity */
(PID.TID 0000.0001)                   F
(PID.TID 0000.0001)     ;
(PID.TID 0000.0001) useHarmonicVisc = /* Use harmonic horizontal viscosity */
(PID.TID 0000.0001)                   T
(PID.TID 0000.0001)     ;
(PID.TID 0000.0001) useBiharmonicVisc= /* Use biharmonic horiz.  viscosity */
(PID.TID 0000.0001)                   F
(PID.TID 0000.0001)     ;
(PID.TID 0000.0001) useSmag3D = /* Use isotropic 3-D Smagorinsky viscosity */
(PID.TID 0000.0001)                   F
(PID.TID 0000.0001)     ;
(PID.TID 0000.0001) viscAh  =   /* Lateral harmonic viscosity ( m^2/s ) */
(PID.TID 0000.0001)                 1.000000000000000E-06
(PID.TID 0000.0001)     ;
(PID.TID 0000.0001) viscAhW =   /* Lateral harmonic viscosity in W eq. ( m^2/s ) */
(PID.TID 0000.0001)                 1.000000000000000E-06
(PID.TID 0000.0001)     ;
(PID.TID 0000.0001) viscA4  =   /* Lateral biharmonic viscosity ( m^4/s ) */
(PID.TID 0000.0001)                 0.000000000000000E+00
(PID.TID 0000.0001)     ;
(PID.TID 0000.0001) viscA4W =   /* Lateral biharmonic viscosity in W eq. ( m^2/s ) */
(PID.TID 0000.0001)                 0.000000000000000E+00
(PID.TID 0000.0001)     ;
(PID.TID 0000.0001) no_slip_sides =  /* Viscous BCs: No-slip sides */
(PID.TID 0000.0001)                   F
(PID.TID 0000.0001)     ;
(PID.TID 0000.0001) sideDragFactor = /* side-drag scaling factor (non-dim) */
(PID.TID 0000.0001)                 2.000000000000000E+00
(PID.TID 0000.0001)     ;
(PID.TID 0000.0001) viscArNr = /* vertical profile of vertical viscosity ( m^2/s )*/
(PID.TID 0000.0001)    50 @  1.000000000000000E-06              /* K =  1: 50 */
(PID.TID 0000.0001)     ;
(PID.TID 0000.0001) no_slip_bottom =  /* Viscous BCs: No-slip bottom */
(PID.TID 0000.0001)                   F
(PID.TID 0000.0001)     ;
(PID.TID 0000.0001) bottomVisc_pCell = /* Partial-cell in bottom Visc. BC */
(PID.TID 0000.0001)                   F
(PID.TID 0000.0001)     ;
(PID.TID 0000.0001) bottomDragLinear = /* linear bottom-drag coefficient ( m/s ) */
(PID.TID 0000.0001)                 0.000000000000000E+00
(PID.TID 0000.0001)     ;
(PID.TID 0000.0001) bottomDragQuadratic = /* quadratic bottom-drag coefficient (-) */
(PID.TID 0000.0001)                 0.000000000000000E+00
(PID.TID 0000.0001)     ;
(PID.TID 0000.0001) selectBotDragQuadr = /* select quadratic bottom drag options */
(PID.TID 0000.0001)                      -1
(PID.TID 0000.0001)     ;
(PID.TID 0000.0001) diffKhT =   /* Laplacian diffusion of heat laterally ( m^2/s ) */
(PID.TID 0000.0001)                 0.000000000000000E+00
(PID.TID 0000.0001)     ;
(PID.TID 0000.0001) diffK4T =   /* Biharmonic diffusion of heat laterally ( m^4/s ) */
(PID.TID 0000.0001)                 0.000000000000000E+00
(PID.TID 0000.0001)     ;
(PID.TID 0000.0001) diffKhS =   /* Laplacian diffusion of salt laterally ( m^2/s ) */
(PID.TID 0000.0001)                 0.000000000000000E+00
(PID.TID 0000.0001)     ;
(PID.TID 0000.0001) diffK4S =   /* Biharmonic diffusion of salt laterally ( m^4/s ) */
(PID.TID 0000.0001)                 0.000000000000000E+00
(PID.TID 0000.0001)     ;
(PID.TID 0000.0001) diffKrNrT = /* vertical profile of vertical diffusion of Temp ( m^2/s )*/
(PID.TID 0000.0001)    50 @  0.000000000000000E+00              /* K =  1: 50 */
(PID.TID 0000.0001)     ;
(PID.TID 0000.0001) diffKrNrS = /* vertical profile of vertical diffusion of Salt ( m^2/s )*/
(PID.TID 0000.0001)    50 @  0.000000000000000E+00              /* K =  1: 50 */
(PID.TID 0000.0001)     ;
(PID.TID 0000.0001) diffKrBL79surf = /* Surface diffusion for Bryan and Lewis 79 ( m^2/s ) */
(PID.TID 0000.0001)                 0.000000000000000E+00
(PID.TID 0000.0001)     ;
(PID.TID 0000.0001) diffKrBL79deep = /* Deep diffusion for Bryan and Lewis 1979 ( m^2/s ) */
(PID.TID 0000.0001)                 0.000000000000000E+00
(PID.TID 0000.0001)     ;
(PID.TID 0000.0001) diffKrBL79scl = /* Depth scale for Bryan and Lewis 1979 ( m ) */
(PID.TID 0000.0001)                 2.000000000000000E+02
(PID.TID 0000.0001)     ;
(PID.TID 0000.0001) diffKrBL79Ho = /* Turning depth for Bryan and Lewis 1979 ( m ) */
(PID.TID 0000.0001)                -2.000000000000000E+03
(PID.TID 0000.0001)     ;
(PID.TID 0000.0001) ivdc_kappa = /* Implicit Vertical Diffusivity for Convection ( m^2/s) */
(PID.TID 0000.0001)                 0.000000000000000E+00
(PID.TID 0000.0001)     ;
(PID.TID 0000.0001) hMixCriteria=  /* Criteria for mixed-layer diagnostic */
(PID.TID 0000.0001)                -8.000000000000000E-01
(PID.TID 0000.0001)     ;
(PID.TID 0000.0001) dRhoSmall =  /* Parameter for mixed-layer diagnostic */
(PID.TID 0000.0001)                 1.000000000000000E-06
(PID.TID 0000.0001)     ;
(PID.TID 0000.0001) hMixSmooth=  /* Smoothing parameter for mixed-layer diagnostic */
(PID.TID 0000.0001)                 0.000000000000000E+00
(PID.TID 0000.0001)     ;
(PID.TID 0000.0001) eosType =  /* Type of Equation of State */
(PID.TID 0000.0001)               'LINEAR'
(PID.TID 0000.0001)     ;
(PID.TID 0000.0001) tAlpha = /* Linear EOS thermal expansion coefficient ( 1/oC ) */
(PID.TID 0000.0001)                 0.000000000000000E+00
(PID.TID 0000.0001)     ;
(PID.TID 0000.0001) sBeta  = /* Linear EOS haline contraction coefficient ( 1/(g/kg) ) */
(PID.TID 0000.0001)                 0.000000000000000E+00
(PID.TID 0000.0001)     ;
(PID.TID 0000.0001) rhoNil    = /* Reference density for Linear EOS ( kg/m^3 ) */
(PID.TID 0000.0001)                 9.998000000000000E+02
(PID.TID 0000.0001)     ;
(PID.TID 0000.0001) selectP_inEOS_Zc = /* select pressure to use in EOS (0,1,2,3) */
(PID.TID 0000.0001)                       0
(PID.TID 0000.0001)     0= -g*rhoConst*z ; 1= pRef (from tRef,sRef); 2= Hyd P ; 3= Hyd+NH P
(PID.TID 0000.0001)     ;
(PID.TID 0000.0001) surf_pRef = /* Surface reference pressure ( Pa ) */
(PID.TID 0000.0001)                 1.013250000000000E+05
(PID.TID 0000.0001)     ;
(PID.TID 0000.0001) HeatCapacity_Cp =  /* Specific heat capacity ( J/kg/K ) */
(PID.TID 0000.0001)                 3.994000000000000E+03
(PID.TID 0000.0001)     ;
(PID.TID 0000.0001) celsius2K = /* 0 degree Celsius converted to Kelvin ( K ) */
(PID.TID 0000.0001)                 2.731500000000000E+02
(PID.TID 0000.0001)     ;
(PID.TID 0000.0001) rhoConst  = /* Reference density (Boussinesq)  ( kg/m^3 ) */
(PID.TID 0000.0001)                 9.998000000000000E+02
(PID.TID 0000.0001)     ;
(PID.TID 0000.0001) rhoFacC = /* normalized Reference density @ cell-Center (-) */
(PID.TID 0000.0001)    50 @  1.000000000000000E+00              /* K =  1: 50 */
(PID.TID 0000.0001)     ;
(PID.TID 0000.0001) rhoFacF = /* normalized Reference density @ W-Interface (-) */
(PID.TID 0000.0001)    51 @  1.000000000000000E+00              /* K =  1: 51 */
(PID.TID 0000.0001)     ;
(PID.TID 0000.0001) rhoConstFresh = /* Fresh-water reference density ( kg/m^3 ) */
(PID.TID 0000.0001)                 9.998000000000000E+02
(PID.TID 0000.0001)     ;
(PID.TID 0000.0001) gravity =   /* Gravitational acceleration ( m/s^2 ) */
(PID.TID 0000.0001)                 1.000000000000000E+01
(PID.TID 0000.0001)     ;
(PID.TID 0000.0001) gBaro =   /* Barotropic gravity ( m/s^2 ) */
(PID.TID 0000.0001)                 1.000000000000000E+01
(PID.TID 0000.0001)     ;
(PID.TID 0000.0001) gravFacC = /* gravity factor (vs surf.) @ cell-Center (-) */
(PID.TID 0000.0001)    50 @  1.000000000000000E+00              /* K =  1: 50 */
(PID.TID 0000.0001)     ;
(PID.TID 0000.0001) gravFacF = /* gravity factor (vs surf.) @ W-Interface (-) */
(PID.TID 0000.0001)    51 @  1.000000000000000E+00              /* K =  1: 51 */
(PID.TID 0000.0001)     ;
(PID.TID 0000.0001) rotationPeriod =   /* Rotation Period ( s ) */
(PID.TID 0000.0001)                 8.616400000000000E+04
(PID.TID 0000.0001)     ;
(PID.TID 0000.0001) omega =   /* Angular velocity ( rad/s ) */
(PID.TID 0000.0001)                 7.292123516990375E-05
(PID.TID 0000.0001)     ;
(PID.TID 0000.0001) f0 =   /* Reference coriolis parameter ( 1/s ) */
(PID.TID 0000.0001)                 0.000000000000000E+00
(PID.TID 0000.0001)     ;
(PID.TID 0000.0001) beta =   /* Beta ( 1/(m.s) ) */
(PID.TID 0000.0001)                 0.000000000000000E+00
(PID.TID 0000.0001)     ;
(PID.TID 0000.0001) fPrime =   /* Second coriolis parameter ( 1/s ) */
(PID.TID 0000.0001)                 0.000000000000000E+00
(PID.TID 0000.0001)     ;
(PID.TID 0000.0001) rigidLid =   /* Rigid lid on/off flag */
(PID.TID 0000.0001)                   F
(PID.TID 0000.0001)     ;
(PID.TID 0000.0001) implicitFreeSurface =   /* Implicit free surface on/off flag */
(PID.TID 0000.0001)                   T
(PID.TID 0000.0001)     ;
(PID.TID 0000.0001) freeSurfFac =   /* Implicit free surface factor */
(PID.TID 0000.0001)                 1.000000000000000E+00
(PID.TID 0000.0001)     ;
(PID.TID 0000.0001) implicSurfPress =  /* Surface Pressure implicit factor (0-1) */
(PID.TID 0000.0001)                 5.000000000000000E-01
(PID.TID 0000.0001)     ;
(PID.TID 0000.0001) implicDiv2DFlow =  /* Barot. Flow Div. implicit factor (0-1) */
(PID.TID 0000.0001)                 5.000000000000000E-01
(PID.TID 0000.0001)     ;
(PID.TID 0000.0001) uniformLin_PhiSurf = /* use uniform Bo_surf on/off flag */
(PID.TID 0000.0001)                   T
(PID.TID 0000.0001)     ;
(PID.TID 0000.0001) uniformFreeSurfLev = /* free-surface level-index is uniform */
(PID.TID 0000.0001)                   T
(PID.TID 0000.0001)     ;
(PID.TID 0000.0001) sIceLoadFac =  /* scale factor for sIceLoad (0-1) */
(PID.TID 0000.0001)                 1.000000000000000E+00
(PID.TID 0000.0001)     ;
(PID.TID 0000.0001) hFacMin =   /* minimum partial cell factor (hFac) */
(PID.TID 0000.0001)                 2.000000000000000E-01
(PID.TID 0000.0001)     ;
(PID.TID 0000.0001) hFacMinDr = /* minimum partial cell thickness ( m) */
(PID.TID 0000.0001)                 0.000000000000000E+00
(PID.TID 0000.0001)     ;
(PID.TID 0000.0001) exactConserv =  /* Exact Volume Conservation on/off flag */
(PID.TID 0000.0001)                   T
(PID.TID 0000.0001)     ;
(PID.TID 0000.0001) linFSConserveTr = /* Tracer correction for Lin Free Surface on/off flag */
(PID.TID 0000.0001)                   F
(PID.TID 0000.0001)     ;
(PID.TID 0000.0001) nonlinFreeSurf = /* Non-linear Free Surf. options (-1,0,1,2,3)*/
(PID.TID 0000.0001)                       0
(PID.TID 0000.0001)      -1,0= Off ; 1,2,3= On, 2=+rescale gU,gV, 3=+update cg2d solv.
(PID.TID 0000.0001)     ;
(PID.TID 0000.0001) hFacInf =   /* lower threshold for hFac (nonlinFreeSurf only)*/
(PID.TID 0000.0001)                 2.000000000000000E-01
(PID.TID 0000.0001)     ;
(PID.TID 0000.0001) hFacSup =   /* upper threshold for hFac (nonlinFreeSurf only)*/
(PID.TID 0000.0001)                 2.000000000000000E+00
(PID.TID 0000.0001)     ;
(PID.TID 0000.0001) select_rStar = /* r* Vertical coord. options (=0 r coord.; >0 uses r*)*/
(PID.TID 0000.0001)                       0
(PID.TID 0000.0001)     ;
(PID.TID 0000.0001) useRealFreshWaterFlux = /* Real Fresh Water Flux on/off flag*/
(PID.TID 0000.0001)                   F
(PID.TID 0000.0001)     ;
(PID.TID 0000.0001) temp_EvPrRn = /* Temp. of Evap/Prec/R (UNSET=use local T)(oC)*/
(PID.TID 0000.0001)                 1.234567000000000E+05
(PID.TID 0000.0001)     ;
(PID.TID 0000.0001) salt_EvPrRn = /* Salin. of Evap/Prec/R (UNSET=use local S)(g/kg)*/
(PID.TID 0000.0001)                 0.000000000000000E+00
(PID.TID 0000.0001)     ;
(PID.TID 0000.0001) selectAddFluid = /* option for mass source/sink of fluid (=0: off) */
(PID.TID 0000.0001)                       0
(PID.TID 0000.0001)     ;
(PID.TID 0000.0001) temp_addMass = /* Temp. of addMass array (UNSET=use local T)(oC)*/
(PID.TID 0000.0001)                 1.234567000000000E+05
(PID.TID 0000.0001)     ;
(PID.TID 0000.0001) salt_addMass = /* Salin. of addMass array (UNSET=use local S)(g/kg)*/
(PID.TID 0000.0001)                 0.000000000000000E+00
(PID.TID 0000.0001)     ;
(PID.TID 0000.0001) convertFW2Salt = /* convert F.W. Flux to Salt Flux (-1=use local S)(g/kg)*/
(PID.TID 0000.0001)                 3.500000000000000E+01
(PID.TID 0000.0001)     ;
(PID.TID 0000.0001) use3Dsolver = /* use 3-D pressure solver on/off flag */
(PID.TID 0000.0001)                   T
(PID.TID 0000.0001)     ;
(PID.TID 0000.0001) nonHydrostatic =  /* Non-Hydrostatic on/off flag */
(PID.TID 0000.0001)                   T
(PID.TID 0000.0001)     ;
(PID.TID 0000.0001) nh_Am2 = /* Non-Hydrostatic terms scaling factor */
(PID.TID 0000.0001)                 1.000000000000000E+00
(PID.TID 0000.0001)     ;
(PID.TID 0000.0001) implicitNHPress = /* Non-Hyd Pressure implicit factor (0-1)*/
(PID.TID 0000.0001)                 5.000000000000000E-01
(PID.TID 0000.0001)     ;
(PID.TID 0000.0001) selectNHfreeSurf = /* Non-Hyd (free-)Surface option */
(PID.TID 0000.0001)                       1
(PID.TID 0000.0001)     ;
(PID.TID 0000.0001) quasiHydrostatic = /* Quasi-Hydrostatic on/off flag */
(PID.TID 0000.0001)                   F
(PID.TID 0000.0001)     ;
(PID.TID 0000.0001) calc_wVelocity = /* vertical velocity calculation on/off flag */
(PID.TID 0000.0001)                   T
(PID.TID 0000.0001)     ;
(PID.TID 0000.0001) momStepping =  /* Momentum equation on/off flag */
(PID.TID 0000.0001)                   T
(PID.TID 0000.0001)     ;
(PID.TID 0000.0001) vectorInvariantMomentum= /* Vector-Invariant Momentum on/off */
(PID.TID 0000.0001)                   F
(PID.TID 0000.0001)     ;
(PID.TID 0000.0001) momAdvection =  /* Momentum advection on/off flag */
(PID.TID 0000.0001)                   T
(PID.TID 0000.0001)     ;
(PID.TID 0000.0001) momViscosity =  /* Momentum viscosity on/off flag */
(PID.TID 0000.0001)                   T
(PID.TID 0000.0001)     ;
(PID.TID 0000.0001) momImplVertAdv= /* Momentum implicit vert. advection on/off*/
(PID.TID 0000.0001)                   F
(PID.TID 0000.0001)     ;
(PID.TID 0000.0001) implicitViscosity = /* Implicit viscosity on/off flag */
(PID.TID 0000.0001)                   F
(PID.TID 0000.0001)     ;
(PID.TID 0000.0001) selectImplicitDrag= /* Implicit bot Drag options (0,1,2)*/
(PID.TID 0000.0001)                       0
(PID.TID 0000.0001)     0= Expl. ; 1= Impl. on provis. Vel ; 2= Fully Impl (with surf.P)
(PID.TID 0000.0001)     ;
(PID.TID 0000.0001) selectMetricTerms= /* Scheme selector for Horizontal Metric Terms */
(PID.TID 0000.0001)                       0
(PID.TID 0000.0001)    = 0 : Off (ignore Spherical/Cylindrical Metric Terms)
(PID.TID 0000.0001)    = 1 : original discretization
(PID.TID 0000.0001)    = 2 : using (Spherical) grid-spacing
(PID.TID 0000.0001)    = 3 : as 2 but gU-Metric inside Advection
(PID.TID 0000.0001)     ;
(PID.TID 0000.0001) useNHMTerms = /* Non-Hydrostatic Metric-Terms on/off */
(PID.TID 0000.0001)                   F
(PID.TID 0000.0001)     ;
(PID.TID 0000.0001) useCoriolis =  /* Coriolis on/off flag */
(PID.TID 0000.0001)                   T
(PID.TID 0000.0001)     ;
(PID.TID 0000.0001) useCDscheme =  /* CD scheme on/off flag */
(PID.TID 0000.0001)                   F
(PID.TID 0000.0001)     ;
(PID.TID 0000.0001) selectCoriMap = /* Coriolis Map options (0,1,2,3)*/
(PID.TID 0000.0001)                       1
(PID.TID 0000.0001)     0= f-Plane ; 1= Beta-Plane ; 2= Spherical ; 3= read from file
(PID.TID 0000.0001)     ;
(PID.TID 0000.0001) select3dCoriScheme= /* Scheme selector for 3-D Coriolis-Term */
(PID.TID 0000.0001)                       0
(PID.TID 0000.0001)    = 0 : Off (ignore 3-D Coriolis Terms in Omega.Cos(Lat) )
(PID.TID 0000.0001)    = 1 : original discretization ; = 2 : using averaged Transport
(PID.TID 0000.0001)    = 3 : same as 2 with hFac in gW_Cor
(PID.TID 0000.0001)     ;
(PID.TID 0000.0001) selectCoriScheme= /* Scheme selector for Coriolis-Term */
(PID.TID 0000.0001)                       0
(PID.TID 0000.0001)    = 0 : original discretization (simple averaging, no hFac)
(PID.TID 0000.0001)    = 1 : Wet-point averaging (Jamar & Ozer 1986)
(PID.TID 0000.0001)    = 2 : energy conserving scheme (no hFac weight)
(PID.TID 0000.0001)    = 3 : energy conserving scheme using Wet-point averaging
(PID.TID 0000.0001)    = 4 : hFac weighted average (Angular Mom. conserving)
(PID.TID 0000.0001)     ;
(PID.TID 0000.0001) momForcing =  /* Momentum forcing on/off flag */
(PID.TID 0000.0001)                   T
(PID.TID 0000.0001)     ;
(PID.TID 0000.0001) momTidalForcing = /* Momentum Tidal forcing on/off flag */
(PID.TID 0000.0001)                   T
(PID.TID 0000.0001)     ;
(PID.TID 0000.0001) momPressureForcing =  /* Momentum pressure term on/off flag */
(PID.TID 0000.0001)                   T
(PID.TID 0000.0001)     ;
(PID.TID 0000.0001) implicitIntGravWave= /* Implicit Internal Gravity Wave flag */
(PID.TID 0000.0001)                   F
(PID.TID 0000.0001)     ;
(PID.TID 0000.0001) staggerTimeStep =    /* Stagger time stepping on/off flag */
(PID.TID 0000.0001)                   F
(PID.TID 0000.0001)     ;
(PID.TID 0000.0001) doResetHFactors = /* reset thickness factors @ each time-step */
(PID.TID 0000.0001)                   F
(PID.TID 0000.0001)     ;
(PID.TID 0000.0001) multiDimAdvection =  /* enable/disable Multi-Dim Advection */
(PID.TID 0000.0001)                   T
(PID.TID 0000.0001)     ;
(PID.TID 0000.0001) useMultiDimAdvec =   /* Multi-Dim Advection is/is-not used */
(PID.TID 0000.0001)                   F
(PID.TID 0000.0001)     ;
(PID.TID 0000.0001) implicitDiffusion = /* Implicit Diffusion on/off flag */
(PID.TID 0000.0001)                   F
(PID.TID 0000.0001)     ;
(PID.TID 0000.0001) tempStepping =  /* Temperature equation on/off flag */
(PID.TID 0000.0001)                   F
(PID.TID 0000.0001)     ;
(PID.TID 0000.0001) tempAdvection = /* Temperature advection on/off flag */
(PID.TID 0000.0001)                   F
(PID.TID 0000.0001)     ;
(PID.TID 0000.0001) tempImplVertAdv = /* Temp. implicit vert. advection on/off */
(PID.TID 0000.0001)                   F
(PID.TID 0000.0001)     ;
(PID.TID 0000.0001) tempForcing  =  /* Temperature forcing on/off flag */
(PID.TID 0000.0001)                   F
(PID.TID 0000.0001)     ;
(PID.TID 0000.0001) selectPenetratingSW = /* short wave penetration selector */
(PID.TID 0000.0001)                       0
(PID.TID 0000.0001)     ;
(PID.TID 0000.0001) doThetaClimRelax = /* apply SST relaxation on/off flag */
(PID.TID 0000.0001)                   F
(PID.TID 0000.0001)     ;
(PID.TID 0000.0001) tempIsActiveTr = /* Temp. is a dynamically Active Tracer */
(PID.TID 0000.0001)                   F
(PID.TID 0000.0001)     ;
(PID.TID 0000.0001) saltStepping =  /* Salinity equation on/off flag */
(PID.TID 0000.0001)                   F
(PID.TID 0000.0001)     ;
(PID.TID 0000.0001) saltAdvection = /* Salinity advection on/off flag */
(PID.TID 0000.0001)                   F
(PID.TID 0000.0001)     ;
(PID.TID 0000.0001) saltImplVertAdv = /* Sali. implicit vert. advection on/off */
(PID.TID 0000.0001)                   F
(PID.TID 0000.0001)     ;
(PID.TID 0000.0001) saltForcing  =  /* Salinity forcing on/off flag */
(PID.TID 0000.0001)                   F
(PID.TID 0000.0001)     ;
(PID.TID 0000.0001) doSaltClimRelax = /* apply SSS relaxation on/off flag */
(PID.TID 0000.0001)                   F
(PID.TID 0000.0001)     ;
(PID.TID 0000.0001) saltIsActiveTr = /* Salt  is a dynamically Active Tracer */
(PID.TID 0000.0001)                   F
(PID.TID 0000.0001)     ;
(PID.TID 0000.0001)  readBinaryPrec = /* Precision used for reading binary files */
(PID.TID 0000.0001)                      64
(PID.TID 0000.0001)     ;
(PID.TID 0000.0001) writeBinaryPrec = /* Precision used for writing binary files */
(PID.TID 0000.0001)                      32
(PID.TID 0000.0001)     ;
(PID.TID 0000.0001)  rwSuffixType =   /* select format of mds file suffix */
(PID.TID 0000.0001)                       0
(PID.TID 0000.0001)    = 0 : myIter (I10.10) ;   = 1 : 100*myTime (100th sec) ;
(PID.TID 0000.0001)    = 2 : myTime (seconds);   = 3 : myTime/360 (10th of hr);
(PID.TID 0000.0001)    = 4 : myTime/3600 (hours)
(PID.TID 0000.0001)     ;
(PID.TID 0000.0001)  globalFiles = /* write "global" (=not per tile) files */
(PID.TID 0000.0001)                   F
(PID.TID 0000.0001)     ;
(PID.TID 0000.0001)  useSingleCpuIO = /* only master MPI process does I/O */
(PID.TID 0000.0001)                   F
(PID.TID 0000.0001)     ;
(PID.TID 0000.0001)  useSingleCpuInput = /* only master process reads input */
(PID.TID 0000.0001)                   F
(PID.TID 0000.0001)     ;
(PID.TID 0000.0001) /* debLev[*]  : level of debug & auxiliary message printing */
(PID.TID 0000.0001) debLevZero =  0 ; /* level of disabled aux. msg printing */
(PID.TID 0000.0001)    debLevA =  1 ; /* level of minimum  aux. msg printing */
(PID.TID 0000.0001)    debLevB =  2 ; /* level of low aux. print (report read-file opening)*/
(PID.TID 0000.0001)    debLevC =  3 ; /* level of moderate debug prt (most pkgs debug msg) */
(PID.TID 0000.0001)    debLevD =  4 ; /* level of enhanced debug prt (add DEBUG_STATS prt) */
(PID.TID 0000.0001)    debLevE =  5 ; /* level of extensive debug printing */
(PID.TID 0000.0001) debugLevel =  /* select debug printing level */
(PID.TID 0000.0001)                       2
(PID.TID 0000.0001)     ;
(PID.TID 0000.0001)  plotLevel =  /* select PLOT_FIELD printing level */
(PID.TID 0000.0001)                       0
(PID.TID 0000.0001)     ;
(PID.TID 0000.0001) //
(PID.TID 0000.0001) // Elliptic solver(s) paramters ( PARM02 in namelist )
(PID.TID 0000.0001) //
(PID.TID 0000.0001) cg2dMaxIters =   /* Upper limit on 2d con. grad iterations  */
(PID.TID 0000.0001)                     200
(PID.TID 0000.0001)     ;
(PID.TID 0000.0001) cg2dMinItersNSA =   /* Minimum number of iterations of 2d con. grad solver  */
(PID.TID 0000.0001)                       0
(PID.TID 0000.0001)     ;
(PID.TID 0000.0001) cg2dUseMinResSol= /* use cg2d last-iter(=0) / min-resid.(=1) solution */
(PID.TID 0000.0001)                       0
(PID.TID 0000.0001)     ;
(PID.TID 0000.0001) cg2dTargetResidual =   /* 2d con. grad target residual  */
(PID.TID 0000.0001)                 1.000000000000000E-07
(PID.TID 0000.0001)     ;
(PID.TID 0000.0001) cg2dTargetResWunit =   /* CG2d target residual [W units] */
(PID.TID 0000.0001)                 1.000000000000000E-14
(PID.TID 0000.0001)     ;
(PID.TID 0000.0001) cg2dPreCondFreq =   /* Freq. for updating cg2d preconditioner */
(PID.TID 0000.0001)                       1
(PID.TID 0000.0001)     ;
(PID.TID 0000.0001) useSRCGSolver =  /* use single reduction CG solver(s) */
(PID.TID 0000.0001)                   F
(PID.TID 0000.0001)     ;
(PID.TID 0000.0001) useNSACGSolver =  /* use not-self-adjoint CG solver */
(PID.TID 0000.0001)                   F
(PID.TID 0000.0001)     ;
(PID.TID 0000.0001) printResidualFreq = /* Freq. for printing CG residual */
(PID.TID 0000.0001)                      -1
(PID.TID 0000.0001)     ;
(PID.TID 0000.0001) cg3dMaxIters =   /* Upper limit on CG3d iterations  */
(PID.TID 0000.0001)                     400
(PID.TID 0000.0001)     ;
(PID.TID 0000.0001) cg3dTargetResidual =   /* CG3d target residual [normalise RHS] */
(PID.TID 0000.0001)                 1.000000000000000E-07
(PID.TID 0000.0001)     ;
(PID.TID 0000.0001) cg3dTargetResWunit =   /* CG3d target residual [W units] */
(PID.TID 0000.0001)                 1.500000000000000E-17
(PID.TID 0000.0001)     ;
(PID.TID 0000.0001) //
(PID.TID 0000.0001) // Time stepping paramters ( PARM03 in namelist )
(PID.TID 0000.0001) //
(PID.TID 0000.0001) deltaTMom =   /* Momentum equation timestep ( s ) */
(PID.TID 0000.0001)                 5.000000000000000E-03
(PID.TID 0000.0001)     ;
(PID.TID 0000.0001) deltaTFreeSurf = /* FreeSurface equation timestep ( s ) */
(PID.TID 0000.0001)                 5.000000000000000E-03
(PID.TID 0000.0001)     ;
(PID.TID 0000.0001) dTtracerLev =  /* Tracer equation timestep ( s ) */
(PID.TID 0000.0001)    50 @  5.000000000000000E-03              /* K =  1: 50 */
(PID.TID 0000.0001)     ;
(PID.TID 0000.0001) deltaTClock  =   /* Model clock timestep ( s ) */
(PID.TID 0000.0001)                 5.000000000000000E-03
(PID.TID 0000.0001)     ;
(PID.TID 0000.0001) cAdjFreq =   /* Convective adjustment interval ( s ) */
(PID.TID 0000.0001)                 0.000000000000000E+00
(PID.TID 0000.0001)     ;
(PID.TID 0000.0001) momForcingOutAB = /* =1: take Momentum Forcing out of Adams-Bash. stepping */
(PID.TID 0000.0001)                       0
(PID.TID 0000.0001)     ;
(PID.TID 0000.0001) tracForcingOutAB = /* =1: take T,S,pTr Forcing out of Adams-Bash. stepping */
(PID.TID 0000.0001)                       0
(PID.TID 0000.0001)     ;
(PID.TID 0000.0001) momDissip_In_AB = /* put Dissipation Tendency in Adams-Bash. stepping */
(PID.TID 0000.0001)                   F
(PID.TID 0000.0001)     ;
(PID.TID 0000.0001) doAB_onGtGs = /* apply AB on Tendencies (rather than on T,S)*/
(PID.TID 0000.0001)                   T
(PID.TID 0000.0001)     ;
(PID.TID 0000.0001) abEps =   /* Adams-Bashforth-2 stabilizing weight */
(PID.TID 0000.0001)                 1.000000000000000E-02
(PID.TID 0000.0001)     ;
(PID.TID 0000.0001) alph_AB =   /* Adams-Bashforth-3 primary factor */
(PID.TID 0000.0001)                 5.000000000000000E-01
(PID.TID 0000.0001)     ;
(PID.TID 0000.0001) beta_AB =   /* Adams-Bashforth-3 secondary factor */
(PID.TID 0000.0001)                 2.811050000000000E-01
(PID.TID 0000.0001)     ;
(PID.TID 0000.0001) startFromPickupAB2= /* start from AB-2 pickup */
(PID.TID 0000.0001)                   F
(PID.TID 0000.0001)     ;
(PID.TID 0000.0001) applyExchUV_early = /* Apply EXCH to U,V earlier in time-step */
(PID.TID 0000.0001)                   F
(PID.TID 0000.0001)     ;
(PID.TID 0000.0001) pickupStrictlyMatch= /* stop if pickup do not strictly match */
(PID.TID 0000.0001)                   T
(PID.TID 0000.0001)     ;
(PID.TID 0000.0001) nIter0   =   /* Run starting timestep number */
(PID.TID 0000.0001)                       1
(PID.TID 0000.0001)     ;
(PID.TID 0000.0001) nTimeSteps = /* Number of timesteps */
(PID.TID 0000.0001)                      11
(PID.TID 0000.0001)     ;
(PID.TID 0000.0001) nEndIter =   /* Run ending timestep number */
(PID.TID 0000.0001)                      12
(PID.TID 0000.0001)     ;
(PID.TID 0000.0001) baseTime =   /* Model base time ( s ) */
(PID.TID 0000.0001)                 0.000000000000000E+00
(PID.TID 0000.0001)     ;
(PID.TID 0000.0001) startTime =  /* Run start time ( s ) */
(PID.TID 0000.0001)                 5.000000000000000E-03
(PID.TID 0000.0001)     ;
(PID.TID 0000.0001) endTime  =   /* Integration ending time ( s ) */
(PID.TID 0000.0001)                 6.000000000000000E-02
(PID.TID 0000.0001)     ;
(PID.TID 0000.0001) pChkPtFreq = /* Permanent restart/pickup file interval ( s ) */
(PID.TID 0000.0001)                 0.000000000000000E+00
(PID.TID 0000.0001)     ;
(PID.TID 0000.0001) chkPtFreq  = /* Rolling restart/pickup file interval ( s ) */
(PID.TID 0000.0001)                 0.000000000000000E+00
(PID.TID 0000.0001)     ;
(PID.TID 0000.0001) pickup_write_mdsio =   /* Model IO flag. */
(PID.TID 0000.0001)                   T
(PID.TID 0000.0001)     ;
(PID.TID 0000.0001) pickup_read_mdsio =   /* Model IO flag. */
(PID.TID 0000.0001)                   T
(PID.TID 0000.0001)     ;
(PID.TID 0000.0001) writePickupAtEnd =   /* Model IO flag. */
(PID.TID 0000.0001)                   T
(PID.TID 0000.0001)     ;
(PID.TID 0000.0001) dumpFreq =   /* Model state write out interval ( s ). */
(PID.TID 0000.0001)                 5.000000000000000E+00
(PID.TID 0000.0001)     ;
(PID.TID 0000.0001) dumpInitAndLast= /* write out Initial & Last iter. model state */
(PID.TID 0000.0001)                   T
(PID.TID 0000.0001)     ;
(PID.TID 0000.0001) snapshot_mdsio =   /* Model IO flag. */
(PID.TID 0000.0001)                   T
(PID.TID 0000.0001)     ;
(PID.TID 0000.0001) monitorFreq =   /* Monitor output interval ( s ). */
(PID.TID 0000.0001)                 5.000000000000000E-03
(PID.TID 0000.0001)     ;
(PID.TID 0000.0001) monitorSelect = /* select group of variables to monitor */
(PID.TID 0000.0001)                       1
(PID.TID 0000.0001)     ;
(PID.TID 0000.0001) monitor_stdio =   /* Model IO flag. */
(PID.TID 0000.0001)                   T
(PID.TID 0000.0001)     ;
(PID.TID 0000.0001) externForcingPeriod =   /* forcing period (s) */
(PID.TID 0000.0001)                 0.000000000000000E+00
(PID.TID 0000.0001)     ;
(PID.TID 0000.0001) externForcingCycle =   /* period of the cyle (s). */
(PID.TID 0000.0001)                 0.000000000000000E+00
(PID.TID 0000.0001)     ;
(PID.TID 0000.0001) tauThetaClimRelax =   /* relaxation time scale (s) */
(PID.TID 0000.0001)                 0.000000000000000E+00
(PID.TID 0000.0001)     ;
(PID.TID 0000.0001) tauSaltClimRelax =   /* relaxation time scale (s) */
(PID.TID 0000.0001)                 0.000000000000000E+00
(PID.TID 0000.0001)     ;
(PID.TID 0000.0001) latBandClimRelax =   /* max. Lat. where relaxation */
(PID.TID 0000.0001)                 6.000000000000001E-01
(PID.TID 0000.0001)     ;
(PID.TID 0000.0001) //
(PID.TID 0000.0001) // Gridding paramters ( PARM04 in namelist )
(PID.TID 0000.0001) //
(PID.TID 0000.0001) usingCartesianGrid = /* Cartesian coordinates flag ( True/False ) */
(PID.TID 0000.0001)                   T
(PID.TID 0000.0001)     ;
(PID.TID 0000.0001) usingCylindricalGrid = /* Cylindrical coordinates flag ( True/False ) */
(PID.TID 0000.0001)                   F
(PID.TID 0000.0001)     ;
(PID.TID 0000.0001) usingSphericalPolarGrid = /* Spherical coordinates flag ( True/False ) */
(PID.TID 0000.0001)                   F
(PID.TID 0000.0001)     ;
(PID.TID 0000.0001) usingCurvilinearGrid = /* Curvilinear coordinates flag ( True/False ) */
(PID.TID 0000.0001)                   F
(PID.TID 0000.0001)     ;
(PID.TID 0000.0001) useMin4hFacEdges = /* set hFacW,S as minimum of adjacent hFacC factor */
(PID.TID 0000.0001)                   F
(PID.TID 0000.0001)     ;
(PID.TID 0000.0001) interViscAr_pCell = /* account for partial-cell in interior vert. viscosity */
(PID.TID 0000.0001)                   F
(PID.TID 0000.0001)     ;
(PID.TID 0000.0001) interDiffKr_pCell = /* account for partial-cell in interior vert. diffusion */
(PID.TID 0000.0001)                   F
(PID.TID 0000.0001)     ;
(PID.TID 0000.0001) pCellMix_select = /* option to enhance mixing near surface & bottom */
(PID.TID 0000.0001)                       0
(PID.TID 0000.0001)     ;
(PID.TID 0000.0001) selectSigmaCoord = /* Hybrid-Sigma Vert. Coordinate option */
(PID.TID 0000.0001)                       0
(PID.TID 0000.0001)     ;
(PID.TID 0000.0001) rSigmaBnd = /* r/sigma transition ( units of r ==  m ) */
(PID.TID 0000.0001)                 1.234567000000000E+05
(PID.TID 0000.0001)     ;
(PID.TID 0000.0001) rkSign =   /* index orientation relative to vertical coordinate */
(PID.TID 0000.0001)                -1.000000000000000E+00
(PID.TID 0000.0001)     ;
(PID.TID 0000.0001) gravitySign = /* gravity orientation relative to vertical coordinate */
(PID.TID 0000.0001)                -1.000000000000000E+00
(PID.TID 0000.0001)     ;
(PID.TID 0000.0001) seaLev_Z =  /* reference height of sea-level [m] */
(PID.TID 0000.0001)                 0.000000000000000E+00
(PID.TID 0000.0001)     ;
(PID.TID 0000.0001) top_Pres =  /* reference pressure at the top [Pa] */
(PID.TID 0000.0001)                 0.000000000000000E+00
(PID.TID 0000.0001)     ;
(PID.TID 0000.0001) mass2rUnit = /* convert mass per unit area [kg/m2] to r-units [m] */
(PID.TID 0000.0001)                 1.000200040008002E-03
(PID.TID 0000.0001)     ;
(PID.TID 0000.0001) rUnit2mass = /* convert r-units [m] to mass per unit area [kg/m2] */
(PID.TID 0000.0001)                 9.998000000000000E+02
(PID.TID 0000.0001)     ;
(PID.TID 0000.0001) drC =   /* C spacing ( units of r ) */
(PID.TID 0000.0001)                 1.000000000000000E-01,      /* K =  1 */
(PID.TID 0000.0001)    49 @  2.000000000000000E-01,             /* K =  2: 50 */
(PID.TID 0000.0001)                 1.000000000000000E-01       /* K = 51 */
(PID.TID 0000.0001)     ;
(PID.TID 0000.0001) drF =   /* W spacing ( units of r ) */
(PID.TID 0000.0001)    50 @  2.000000000000000E-01              /* K =  1: 50 */
(PID.TID 0000.0001)     ;
(PID.TID 0000.0001) delX = /* U spacing ( m - cartesian, degrees - spherical ) */
(PID.TID 0000.0001)    52 @  2.000000000000000E-01              /* I =  1: 52 */
(PID.TID 0000.0001)     ;
(PID.TID 0000.0001) delY = /* V spacing ( m - cartesian, degrees - spherical ) */
(PID.TID 0000.0001)                 2.000000000000000E-01       /* J =  1 */
(PID.TID 0000.0001)     ;
(PID.TID 0000.0001) xgOrigin = /* X-axis origin of West  edge (cartesian: m, lat-lon: deg) */
(PID.TID 0000.0001)                 0.000000000000000E+00
(PID.TID 0000.0001)     ;
(PID.TID 0000.0001) ygOrigin = /* Y-axis origin of South edge (cartesian: m, lat-lon: deg) */
(PID.TID 0000.0001)                 0.000000000000000E+00
(PID.TID 0000.0001)     ;
(PID.TID 0000.0001) rSphere =  /* Radius ( ignored - cartesian, m - spherical ) */
(PID.TID 0000.0001)                 6.370000000000000E+06
(PID.TID 0000.0001)     ;
(PID.TID 0000.0001) deepAtmosphere = /* Deep/Shallow Atmosphere flag (True/False) */
(PID.TID 0000.0001)                   F
(PID.TID 0000.0001)     ;
(PID.TID 0000.0001) xC =  /* xC(:,1,:,1) : P-point X coord ( deg. or m if cartesian) */
(PID.TID 0000.0001)                 1.000000000000000E-01,      /* I =  1 */
(PID.TID 0000.0001)                 3.000000000000000E-01,      /* I =  2 */
(PID.TID 0000.0001)                 5.000000000000000E-01,      /* I =  3 */
(PID.TID 0000.0001)                 7.000000000000000E-01,      /* I =  4 */
(PID.TID 0000.0001)                 9.000000000000000E-01,      /* I =  5 */
(PID.TID 0000.0001)                 1.100000000000000E+00,      /* I =  6 */
(PID.TID 0000.0001)                 1.300000000000000E+00,      /* I =  7 */
(PID.TID 0000.0001)                 1.500000000000000E+00,      /* I =  8 */
(PID.TID 0000.0001)                 1.700000000000000E+00,      /* I =  9 */
(PID.TID 0000.0001)                 1.900000000000000E+00,      /* I = 10 */
(PID.TID 0000.0001)                 2.100000000000000E+00,      /* I = 11 */
(PID.TID 0000.0001)                 2.300000000000000E+00,      /* I = 12 */
(PID.TID 0000.0001)                 2.500000000000000E+00,      /* I = 13 */
(PID.TID 0000.0001)                 2.700000000000000E+00,      /* I = 14 */
(PID.TID 0000.0001)                 2.900000000000000E+00,      /* I = 15 */
(PID.TID 0000.0001)                 3.100000000000001E+00,      /* I = 16 */
(PID.TID 0000.0001)                 3.300000000000001E+00,      /* I = 17 */
(PID.TID 0000.0001)                 3.500000000000001E+00,      /* I = 18 */
(PID.TID 0000.0001)                 3.700000000000001E+00,      /* I = 19 */
(PID.TID 0000.0001)                 3.900000000000001E+00,      /* I = 20 */
(PID.TID 0000.0001)                 4.100000000000001E+00,      /* I = 21 */
(PID.TID 0000.0001)                 4.300000000000001E+00,      /* I = 22 */
(PID.TID 0000.0001)                 4.500000000000002E+00,      /* I = 23 */
(PID.TID 0000.0001)                 4.700000000000001E+00,      /* I = 24 */
(PID.TID 0000.0001)                 4.900000000000002E+00,      /* I = 25 */
(PID.TID 0000.0001)                 5.100000000000001E+00,      /* I = 26 */
(PID.TID 0000.0001)                 5.300000000000002E+00,      /* I = 27 */
(PID.TID 0000.0001)                 5.500000000000002E+00,      /* I = 28 */
(PID.TID 0000.0001)                 5.700000000000003E+00,      /* I = 29 */
(PID.TID 0000.0001)                 5.900000000000003E+00,      /* I = 30 */
(PID.TID 0000.0001)                 6.100000000000003E+00,      /* I = 31 */
(PID.TID 0000.0001)                 6.300000000000002E+00,      /* I = 32 */
(PID.TID 0000.0001)                 6.500000000000004E+00,      /* I = 33 */
(PID.TID 0000.0001)                 6.700000000000003E+00,      /* I = 34 */
(PID.TID 0000.0001)                 6.900000000000004E+00,      /* I = 35 */
(PID.TID 0000.0001)                 7.100000000000003E+00,      /* I = 36 */
(PID.TID 0000.0001)                 7.300000000000004E+00,      /* I = 37 */
(PID.TID 0000.0001)                 7.500000000000004E+00,      /* I = 38 */
(PID.TID 0000.0001)                 7.700000000000005E+00,      /* I = 39 */
(PID.TID 0000.0001)                 7.900000000000004E+00,      /* I = 40 */
(PID.TID 0000.0001)                 8.100000000000003E+00,      /* I = 41 */
(PID.TID 0000.0001)                 8.300000000000002E+00,      /* I = 42 */
(PID.TID 0000.0001)                 8.500000000000002E+00,      /* I = 43 */
(PID.TID 0000.0001)                 8.700000000000001E+00,      /* I = 44 */
(PID.TID 0000.0001)                 8.900000000000000E+00,      /* I = 45 */
(PID.TID 0000.0001)                 9.100000000000000E+00,      /* I = 46 */
(PID.TID 0000.0001)                 9.299999999999999E+00,      /* I = 47 */
(PID.TID 0000.0001)                 9.499999999999998E+00,      /* I = 48 */
(PID.TID 0000.0001)                 9.699999999999998E+00,      /* I = 49 */
(PID.TID 0000.0001)                 9.899999999999997E+00,      /* I = 50 */
(PID.TID 0000.0001)                 1.010000000000000E+01,      /* I = 51 */
(PID.TID 0000.0001)                 1.030000000000000E+01       /* I = 52 */
(PID.TID 0000.0001)     ;
(PID.TID 0000.0001) yC =  /* yC(1,:,1,:) : P-point Y coord ( deg. or m if cartesian) */
(PID.TID 0000.0001)                 1.000000000000000E-01       /* J =  1 */
(PID.TID 0000.0001)     ;
(PID.TID 0000.0001) rcoord = /* P-point R coordinate (  units of r ) */
(PID.TID 0000.0001)                -1.000000000000000E-01,      /* K =  1 */
(PID.TID 0000.0001)                -3.000000000000000E-01,      /* K =  2 */
(PID.TID 0000.0001)                -5.000000000000000E-01,      /* K =  3 */
(PID.TID 0000.0001)                -7.000000000000000E-01,      /* K =  4 */
(PID.TID 0000.0001)                -8.999999999999999E-01,      /* K =  5 */
(PID.TID 0000.0001)                -1.100000000000000E+00,      /* K =  6 */
(PID.TID 0000.0001)                -1.300000000000000E+00,      /* K =  7 */
(PID.TID 0000.0001)                -1.500000000000000E+00,      /* K =  8 */
(PID.TID 0000.0001)                -1.700000000000000E+00,      /* K =  9 */
(PID.TID 0000.0001)                -1.900000000000000E+00,      /* K = 10 */
(PID.TID 0000.0001)                -2.100000000000000E+00,      /* K = 11 */
(PID.TID 0000.0001)                -2.300000000000000E+00,      /* K = 12 */
(PID.TID 0000.0001)                -2.500000000000000E+00,      /* K = 13 */
(PID.TID 0000.0001)                -2.700000000000000E+00,      /* K = 14 */
(PID.TID 0000.0001)                -2.900000000000000E+00,      /* K = 15 */
(PID.TID 0000.0001)                -3.100000000000001E+00,      /* K = 16 */
(PID.TID 0000.0001)                -3.300000000000001E+00,      /* K = 17 */
(PID.TID 0000.0001)                -3.500000000000001E+00,      /* K = 18 */
(PID.TID 0000.0001)                -3.700000000000001E+00,      /* K = 19 */
(PID.TID 0000.0001)                -3.900000000000001E+00,      /* K = 20 */
(PID.TID 0000.0001)                -4.100000000000001E+00,      /* K = 21 */
(PID.TID 0000.0001)                -4.300000000000002E+00,      /* K = 22 */
(PID.TID 0000.0001)                -4.500000000000002E+00,      /* K = 23 */
(PID.TID 0000.0001)                -4.700000000000002E+00,      /* K = 24 */
(PID.TID 0000.0001)                -4.900000000000002E+00,      /* K = 25 */
(PID.TID 0000.0001)                -5.100000000000002E+00,      /* K = 26 */
(PID.TID 0000.0001)                -5.300000000000002E+00,      /* K = 27 */
(PID.TID 0000.0001)                -5.500000000000003E+00,      /* K = 28 */
(PID.TID 0000.0001)                -5.700000000000003E+00,      /* K = 29 */
(PID.TID 0000.0001)                -5.900000000000003E+00,      /* K = 30 */
(PID.TID 0000.0001)                -6.100000000000003E+00,      /* K = 31 */
(PID.TID 0000.0001)                -6.300000000000003E+00,      /* K = 32 */
(PID.TID 0000.0001)                -6.500000000000004E+00,      /* K = 33 */
(PID.TID 0000.0001)                -6.700000000000004E+00,      /* K = 34 */
(PID.TID 0000.0001)                -6.900000000000004E+00,      /* K = 35 */
(PID.TID 0000.0001)                -7.100000000000004E+00,      /* K = 36 */
(PID.TID 0000.0001)                -7.300000000000004E+00,      /* K = 37 */
(PID.TID 0000.0001)                -7.500000000000004E+00,      /* K = 38 */
(PID.TID 0000.0001)                -7.700000000000005E+00,      /* K = 39 */
(PID.TID 0000.0001)                -7.900000000000005E+00,      /* K = 40 */
(PID.TID 0000.0001)                -8.100000000000005E+00,      /* K = 41 */
(PID.TID 0000.0001)                -8.300000000000004E+00,      /* K = 42 */
(PID.TID 0000.0001)                -8.500000000000004E+00,      /* K = 43 */
(PID.TID 0000.0001)                -8.700000000000003E+00,      /* K = 44 */
(PID.TID 0000.0001)                -8.900000000000002E+00,      /* K = 45 */
(PID.TID 0000.0001)                -9.100000000000001E+00,      /* K = 46 */
(PID.TID 0000.0001)                -9.300000000000001E+00,      /* K = 47 */
(PID.TID 0000.0001)                -9.500000000000000E+00,      /* K = 48 */
(PID.TID 0000.0001)                -9.699999999999999E+00,      /* K = 49 */
(PID.TID 0000.0001)                -9.899999999999999E+00       /* K = 50 */
(PID.TID 0000.0001)     ;
(PID.TID 0000.0001) rF =   /* W-Interf. R coordinate (  units of r ) */
(PID.TID 0000.0001)                 0.000000000000000E+00,      /* K =  1 */
(PID.TID 0000.0001)                -2.000000000000000E-01,      /* K =  2 */
(PID.TID 0000.0001)                -4.000000000000000E-01,      /* K =  3 */
(PID.TID 0000.0001)                -6.000000000000001E-01,      /* K =  4 */
(PID.TID 0000.0001)                -8.000000000000000E-01,      /* K =  5 */
(PID.TID 0000.0001)                -1.000000000000000E+00,      /* K =  6 */
(PID.TID 0000.0001)                -1.200000000000000E+00,      /* K =  7 */
(PID.TID 0000.0001)                -1.400000000000000E+00,      /* K =  8 */
(PID.TID 0000.0001)                -1.600000000000000E+00,      /* K =  9 */
(PID.TID 0000.0001)                -1.800000000000000E+00,      /* K = 10 */
(PID.TID 0000.0001)                -2.000000000000000E+00,      /* K = 11 */
(PID.TID 0000.0001)                -2.200000000000000E+00,      /* K = 12 */
(PID.TID 0000.0001)                -2.400000000000000E+00,      /* K = 13 */
(PID.TID 0000.0001)                -2.600000000000000E+00,      /* K = 14 */
(PID.TID 0000.0001)                -2.800000000000000E+00,      /* K = 15 */
(PID.TID 0000.0001)                -3.000000000000000E+00,      /* K = 16 */
(PID.TID 0000.0001)                -3.200000000000001E+00,      /* K = 17 */
(PID.TID 0000.0001)                -3.400000000000001E+00,      /* K = 18 */
(PID.TID 0000.0001)                -3.600000000000001E+00,      /* K = 19 */
(PID.TID 0000.0001)                -3.800000000000001E+00,      /* K = 20 */
(PID.TID 0000.0001)                -4.000000000000001E+00,      /* K = 21 */
(PID.TID 0000.0001)                -4.200000000000001E+00,      /* K = 22 */
(PID.TID 0000.0001)                -4.400000000000001E+00,      /* K = 23 */
(PID.TID 0000.0001)                -4.600000000000001E+00,      /* K = 24 */
(PID.TID 0000.0001)                -4.800000000000002E+00,      /* K = 25 */
(PID.TID 0000.0001)                -5.000000000000002E+00,      /* K = 26 */
(PID.TID 0000.0001)                -5.200000000000002E+00,      /* K = 27 */
(PID.TID 0000.0001)                -5.400000000000002E+00,      /* K = 28 */
(PID.TID 0000.0001)                -5.600000000000002E+00,      /* K = 29 */
(PID.TID 0000.0001)                -5.800000000000002E+00,      /* K = 30 */
(PID.TID 0000.0001)                -6.000000000000003E+00,      /* K = 31 */
(PID.TID 0000.0001)                -6.200000000000003E+00,      /* K = 32 */
(PID.TID 0000.0001)                -6.400000000000003E+00,      /* K = 33 */
(PID.TID 0000.0001)                -6.600000000000003E+00,      /* K = 34 */
(PID.TID 0000.0001)                -6.800000000000003E+00,      /* K = 35 */
(PID.TID 0000.0001)                -7.000000000000004E+00,      /* K = 36 */
(PID.TID 0000.0001)                -7.200000000000004E+00,      /* K = 37 */
(PID.TID 0000.0001)                -7.400000000000004E+00,      /* K = 38 */
(PID.TID 0000.0001)                -7.600000000000004E+00,      /* K = 39 */
(PID.TID 0000.0001)                -7.800000000000004E+00,      /* K = 40 */
(PID.TID 0000.0001)                -8.000000000000004E+00,      /* K = 41 */
(PID.TID 0000.0001)                -8.200000000000003E+00,      /* K = 42 */
(PID.TID 0000.0001)                -8.400000000000002E+00,      /* K = 43 */
(PID.TID 0000.0001)                -8.600000000000001E+00,      /* K = 44 */
(PID.TID 0000.0001)                -8.800000000000001E+00,      /* K = 45 */
(PID.TID 0000.0001)                -9.000000000000000E+00,      /* K = 46 */
(PID.TID 0000.0001)                -9.199999999999999E+00,      /* K = 47 */
(PID.TID 0000.0001)                -9.399999999999999E+00,      /* K = 48 */
(PID.TID 0000.0001)                -9.599999999999998E+00,      /* K = 49 */
(PID.TID 0000.0001)                -9.799999999999997E+00,      /* K = 50 */
(PID.TID 0000.0001)                -9.999999999999996E+00       /* K = 51 */
(PID.TID 0000.0001)     ;
(PID.TID 0000.0001) deepFacC = /* deep-model grid factor @ cell-Center (-) */
(PID.TID 0000.0001)    50 @  1.000000000000000E+00              /* K =  1: 50 */
(PID.TID 0000.0001)     ;
(PID.TID 0000.0001) deepFacF = /* deep-model grid factor @ W-Interface (-) */
(PID.TID 0000.0001)    51 @  1.000000000000000E+00              /* K =  1: 51 */
(PID.TID 0000.0001)     ;
(PID.TID 0000.0001) rotateGrid = /* use rotated grid ( True/False ) */
(PID.TID 0000.0001)                   F
(PID.TID 0000.0001)     ;
(PID.TID 0000.0001) phiEuler = /* Euler angle, rotation about original z-coordinate [rad] */
(PID.TID 0000.0001)                 0.000000000000000E+00
(PID.TID 0000.0001)     ;
(PID.TID 0000.0001) thetaEuler = /* Euler angle, rotation about new x-coordinate [rad] */
(PID.TID 0000.0001)                 0.000000000000000E+00
(PID.TID 0000.0001)     ;
(PID.TID 0000.0001) psiEuler = /* Euler angle, rotation about new z-coordinate [rad] */
(PID.TID 0000.0001)                 0.000000000000000E+00
(PID.TID 0000.0001)     ;
(PID.TID 0000.0001) dxF =  /* dxF(:,1,:,1) ( units: m ) */
(PID.TID 0000.0001)    52 @  2.000000000000000E-01              /* I =  1: 52 */
(PID.TID 0000.0001)     ;
(PID.TID 0000.0001) dxF =  /* dxF(1,:,1,:) ( units: m ) */
(PID.TID 0000.0001)                 2.000000000000000E-01       /* J =  1 */
(PID.TID 0000.0001)     ;
(PID.TID 0000.0001) dyF =  /* dyF(:,1,:,1) ( units: m ) */
(PID.TID 0000.0001)    52 @  2.000000000000000E-01              /* I =  1: 52 */
(PID.TID 0000.0001)     ;
(PID.TID 0000.0001) dyF =  /* dyF(1,:,1,:) ( units: m ) */
(PID.TID 0000.0001)                 2.000000000000000E-01       /* J =  1 */
(PID.TID 0000.0001)     ;
(PID.TID 0000.0001) dxG =  /* dxG(:,1,:,1) ( units: m ) */
(PID.TID 0000.0001)    52 @  2.000000000000000E-01              /* I =  1: 52 */
(PID.TID 0000.0001)     ;
(PID.TID 0000.0001) dxG =  /* dxG(1,:,1,:) ( units: m ) */
(PID.TID 0000.0001)                 2.000000000000000E-01       /* J =  1 */
(PID.TID 0000.0001)     ;
(PID.TID 0000.0001) dyG =  /* dyG(:,1,:,1) ( units: m ) */
(PID.TID 0000.0001)    52 @  2.000000000000000E-01              /* I =  1: 52 */
(PID.TID 0000.0001)     ;
(PID.TID 0000.0001) dyG =  /* dyG(1,:,1,:) ( units: m ) */
(PID.TID 0000.0001)                 2.000000000000000E-01       /* J =  1 */
(PID.TID 0000.0001)     ;
(PID.TID 0000.0001) dxC =  /* dxC(:,1,:,1) ( units: m ) */
(PID.TID 0000.0001)    52 @  2.000000000000000E-01              /* I =  1: 52 */
(PID.TID 0000.0001)     ;
(PID.TID 0000.0001) dxC =  /* dxC(1,:,1,:) ( units: m ) */
(PID.TID 0000.0001)                 2.000000000000000E-01       /* J =  1 */
(PID.TID 0000.0001)     ;
(PID.TID 0000.0001) dyC =  /* dyC(:,1,:,1) ( units: m ) */
(PID.TID 0000.0001)    52 @  2.000000000000000E-01              /* I =  1: 52 */
(PID.TID 0000.0001)     ;
(PID.TID 0000.0001) dyC =  /* dyC(1,:,1,:) ( units: m ) */
(PID.TID 0000.0001)                 2.000000000000000E-01       /* J =  1 */
(PID.TID 0000.0001)     ;
(PID.TID 0000.0001) dxV =  /* dxV(:,1,:,1) ( units: m ) */
(PID.TID 0000.0001)    52 @  2.000000000000000E-01              /* I =  1: 52 */
(PID.TID 0000.0001)     ;
(PID.TID 0000.0001) dxV =  /* dxV(1,:,1,:) ( units: m ) */
(PID.TID 0000.0001)                 2.000000000000000E-01       /* J =  1 */
(PID.TID 0000.0001)     ;
(PID.TID 0000.0001) dyU =  /* dyU(:,1,:,1) ( units: m ) */
(PID.TID 0000.0001)    52 @  2.000000000000000E-01              /* I =  1: 52 */
(PID.TID 0000.0001)     ;
(PID.TID 0000.0001) dyU =  /* dyU(1,:,1,:) ( units: m ) */
(PID.TID 0000.0001)                 2.000000000000000E-01       /* J =  1 */
(PID.TID 0000.0001)     ;
(PID.TID 0000.0001) rA  =  /* rA (:,1,:,1) ( units: m^2 ) */
(PID.TID 0000.0001)    52 @  4.000000000000001E-02              /* I =  1: 52 */
(PID.TID 0000.0001)     ;
(PID.TID 0000.0001) rA  =  /* rA (1,:,1,:) ( units: m^2 ) */
(PID.TID 0000.0001)                 4.000000000000001E-02       /* J =  1 */
(PID.TID 0000.0001)     ;
(PID.TID 0000.0001) rAw =  /* rAw(:,1,:,1) ( units: m^2 ) */
(PID.TID 0000.0001)    52 @  4.000000000000001E-02              /* I =  1: 52 */
(PID.TID 0000.0001)     ;
(PID.TID 0000.0001) rAw =  /* rAw(1,:,1,:) ( units: m^2 ) */
(PID.TID 0000.0001)                 4.000000000000001E-02       /* J =  1 */
(PID.TID 0000.0001)     ;
(PID.TID 0000.0001) rAs =  /* rAs(:,1,:,1) ( units: m^2 ) */
(PID.TID 0000.0001)    52 @  4.000000000000001E-02              /* I =  1: 52 */
(PID.TID 0000.0001)     ;
(PID.TID 0000.0001) rAs =  /* rAs(1,:,1,:) ( units: m^2 ) */
(PID.TID 0000.0001)                 4.000000000000001E-02       /* J =  1 */
(PID.TID 0000.0001)     ;
(PID.TID 0000.0001) globalArea = /* Integrated horizontal Area (m^2) */
(PID.TID 0000.0001)                 2.000000000000001E+00
(PID.TID 0000.0001)     ;
(PID.TID 0000.0001) // =======================================================
(PID.TID 0000.0001) // End of Model config. summary
(PID.TID 0000.0001) // =======================================================
(PID.TID 0000.0001) 
(PID.TID 0000.0001) == Packages configuration : Check & print summary ==
(PID.TID 0000.0001) 
(PID.TID 0000.0001) // =======================================================
(PID.TID 0000.0001) // Check Model config. (CONFIG_CHECK):
(PID.TID 0000.0001) // CONFIG_CHECK : Normal End
(PID.TID 0000.0001) // =======================================================
(PID.TID 0000.0001) 
(PID.TID 0000.0001)  MDS_READ_META: opening file: pickup.0000000001.meta
(PID.TID 0000.0001)  nRecords = 554 ; filePrec =  64 ; fileIter =         1
(PID.TID 0000.0001)     nDims =   2 , dims:
(PID.TID 0000.0001)    1:  52   1  52
(PID.TID 0000.0001)    2:   1   1   1
(PID.TID 0000.0001)     nFlds =  15 , nFl3D =  11 , fields:
(PID.TID 0000.0001)  >Uvel    < >Vvel    < >Theta   < >Salt    < >GuNm1   < >GuNm2   < >GvNm1   < >GvNm2   < >GwNm1   < >GwNm2   < >Phi_NHyd< >EtaN    < >dPhiNH  < >dEtaHdt < >EtaH    <
(PID.TID 0000.0001) missingVal=  1.00000000000000E+00 ; nTimRec =   1 , timeList:
(PID.TID 0000.0001)   5.000000000000E-03
(PID.TID 0000.0001) READ_MFLDS_3D_RL: read field: "Uvel    ", #   1 in fldList, rec=   1
(PID.TID 0000.0001)  MDS_READ_FIELD: opening global file: pickup.0000000001.data
(PID.TID 0000.0001) READ_MFLDS_3D_RL: read field: "Vvel    ", #   2 in fldList, rec=   2
(PID.TID 0000.0001)  MDS_READ_FIELD: opening global file: pickup.0000000001.data
(PID.TID 0000.0001) READ_MFLDS_3D_RL: read field: "Theta   ", #   3 in fldList, rec=   3
(PID.TID 0000.0001)  MDS_READ_FIELD: opening global file: pickup.0000000001.data
(PID.TID 0000.0001) READ_MFLDS_3D_RL: read field: "Salt    ", #   4 in fldList, rec=   4
(PID.TID 0000.0001)  MDS_READ_FIELD: opening global file: pickup.0000000001.data
(PID.TID 0000.0001) READ_MFLDS_3D_RL: read field: "GuNm1   ", #   5 in fldList, rec=   5
(PID.TID 0000.0001)  MDS_READ_FIELD: opening global file: pickup.0000000001.data
(PID.TID 0000.0001) READ_MFLDS_3D_RL: read field: "GuNm2   ", #   6 in fldList, rec=   6
(PID.TID 0000.0001)  MDS_READ_FIELD: opening global file: pickup.0000000001.data
(PID.TID 0000.0001) READ_MFLDS_3D_RL: read field: "GvNm1   ", #   7 in fldList, rec=   7
(PID.TID 0000.0001)  MDS_READ_FIELD: opening global file: pickup.0000000001.data
(PID.TID 0000.0001) READ_MFLDS_3D_RL: read field: "GvNm2   ", #   8 in fldList, rec=   8
(PID.TID 0000.0001)  MDS_READ_FIELD: opening global file: pickup.0000000001.data
(PID.TID 0000.0001) READ_MFLDS_3D_RL: read field: "GwNm1   ", #   9 in fldList, rec=   9
(PID.TID 0000.0001)  MDS_READ_FIELD: opening global file: pickup.0000000001.data
(PID.TID 0000.0001) READ_MFLDS_3D_RL: read field: "GwNm2   ", #  10 in fldList, rec=  10
(PID.TID 0000.0001)  MDS_READ_FIELD: opening global file: pickup.0000000001.data
(PID.TID 0000.0001) READ_MFLDS_3D_RL: read field: "Phi_NHyd", #  11 in fldList, rec=  11
(PID.TID 0000.0001)  MDS_READ_FIELD: opening global file: pickup.0000000001.data
(PID.TID 0000.0001) READ_MFLDS_3D_RL: read field: "EtaN    ", #  12 in fldList, rec= 551
(PID.TID 0000.0001)  MDS_READ_FIELD: opening global file: pickup.0000000001.data
(PID.TID 0000.0001) READ_MFLDS_3D_RL: read field: "dPhiNH  ", #  13 in fldList, rec= 552
(PID.TID 0000.0001)  MDS_READ_FIELD: opening global file: pickup.0000000001.data
(PID.TID 0000.0001) READ_MFLDS_3D_RL: read field: "dEtaHdt ", #  14 in fldList, rec= 553
(PID.TID 0000.0001)  MDS_READ_FIELD: opening global file: pickup.0000000001.data
(PID.TID 0000.0001) READ_MFLDS_CHECK: - normal end ; reset MFLDS file-name: pickup.0000000001
(PID.TID 0000.0001) INI_NH_FIELDS: dPhiNHstatus=   1
(PID.TID 0000.0001) DIAGSTATS_INI_IO: open file: dynStDiag.0000000001.txt , unit=     9
(PID.TID 0000.0001)  write diagnostics summary to file ioUnit:      6
Iter.Nb:         1 ; Time(s):  5.0000000000000E-03
------------------------------------------------------------------------
2D/3D diagnostics: Number of lists:     1
------------------------------------------------------------------------
listId=    1 ; file name: surfDiag
 nFlds, nActive,       freq     &     phase        , nLev               
    3  |    3  |        -0.250000         0.000000 |   1
 levels:   1
 diag# | name   |   ipt  |  iMate | kLev|   count |   mate.C|           
    23 |ETAN    |      1 |      0 |   1 |       0 |
    24 |ETANSQ  |      2 |      0 |   1 |       0 |
    25 |DETADT2 |      3 |      0 |   1 |       0 |
------------------------------------------------------------------------
Global & Regional Statistics diagnostics: Number of lists:     1
------------------------------------------------------------------------
listId=   1 ; file name: dynStDiag
 nFlds, nActive,       freq     &     phase        |                    
    6  |    6  |        -0.025000         0.005000 |
 Regions:   0
 diag# | name   |   ipt  |  iMate |    Volume   |   mate-Vol. |         
    23 |ETAN    |      1 |      0 | 0.00000E+00 |
    24 |ETANSQ  |      2 |      0 | 0.00000E+00 |
    25 |DETADT2 |      3 |      0 | 0.00000E+00 |
    30 |UVEL    |      4 |      0 | 0.00000E+00 |
    32 |WVEL    |     54 |      0 | 0.00000E+00 |
    77 |PHI_NH  |    104 |      0 | 0.00000E+00 |
------------------------------------------------------------------------
(PID.TID 0000.0001) // =======================================================
(PID.TID 0000.0001) // Model current state
(PID.TID 0000.0001) // =======================================================
(PID.TID 0000.0001) 
(PID.TID 0000.0001) // =======================================================
(PID.TID 0000.0001) // Begin MONITOR dynamic field statistics
(PID.TID 0000.0001) // =======================================================
(PID.TID 0000.0001) %MON time_tsnumber                =                     1
(PID.TID 0000.0001) %MON time_secondsf                =   5.0000000000000E-03
(PID.TID 0000.0001) %MON dynstat_eta_max              =   1.4992012255395E-01
(PID.TID 0000.0001) %MON dynstat_eta_min              =  -1.4992012255395E-01
(PID.TID 0000.0001) %MON dynstat_eta_mean             =  -3.0357660829594E-17
(PID.TID 0000.0001) %MON dynstat_eta_sd               =   1.0606187042477E-01
(PID.TID 0000.0001) %MON dynstat_eta_del2             =   5.6781083736970E-05
(PID.TID 0000.0001) %MON dynstat_uvel_max             =   2.2820327934741E-03
(PID.TID 0000.0001) %MON dynstat_uvel_min             =   1.2773418355233E-05
(PID.TID 0000.0001) %MON dynstat_uvel_mean            =   4.8497112845871E-04
(PID.TID 0000.0001) %MON dynstat_uvel_sd              =   4.7296447973673E-04
(PID.TID 0000.0001) %MON dynstat_uvel_del2            =   5.4003354935030E-08
(PID.TID 0000.0001) %MON dynstat_vvel_max             =   0.0000000000000E+00
(PID.TID 0000.0001) %MON dynstat_vvel_min             =   0.0000000000000E+00
(PID.TID 0000.0001) %MON dynstat_vvel_mean            =   0.0000000000000E+00
(PID.TID 0000.0001) %MON dynstat_vvel_sd              =   0.0000000000000E+00
(PID.TID 0000.0001) %MON dynstat_vvel_del2            =   0.0000000000000E+00
(PID.TID 0000.0001) %MON dynstat_wvel_max             =   2.3446003651965E-03
(PID.TID 0000.0001) %MON dynstat_wvel_min             =  -2.3446003651963E-03
(PID.TID 0000.0001) %MON dynstat_wvel_mean            =  -8.7612296766505E-20
(PID.TID 0000.0001) %MON dynstat_wvel_sd              =   6.5897859278819E-04
(PID.TID 0000.0001) %MON dynstat_wvel_del2            =   5.1205718822425E-08
(PID.TID 0000.0001) %MON dynstat_theta_max            =   1.0000000000000E+01
(PID.TID 0000.0001) %MON dynstat_theta_min            =   1.0000000000000E+01
(PID.TID 0000.0001) %MON dynstat_theta_mean           =   9.9999999999999E+00
(PID.TID 0000.0001) %MON dynstat_theta_sd             =   1.4921397450962E-13
(PID.TID 0000.0001) %MON dynstat_theta_del2           =   0.0000000000000E+00
(PID.TID 0000.0001) %MON dynstat_salt_max             =   3.5000000000000E+01
(PID.TID 0000.0001) %MON dynstat_salt_min             =   3.5000000000000E+01
(PID.TID 0000.0001) %MON dynstat_salt_mean            =   3.5000000000000E+01
(PID.TID 0000.0001) %MON dynstat_salt_sd              =   9.9475983006414E-14
(PID.TID 0000.0001) %MON dynstat_salt_del2            =   0.0000000000000E+00
(PID.TID 0000.0001) %MON advcfl_uvel_max              =   5.7050819836851E-05
(PID.TID 0000.0001) %MON advcfl_vvel_max              =   0.0000000000000E+00
(PID.TID 0000.0001) %MON advcfl_wvel_max              =   1.1723001825982E-04
(PID.TID 0000.0001) %MON advcfl_W_hf_max              =   5.5032758512782E-05
(PID.TID 0000.0001) %MON pe_b_mean                    =   5.6245601789999E-03
(PID.TID 0000.0001) %MON ke_max                       =   2.6012575202956E-06
(PID.TID 0000.0001) %MON ke_mean                      =   4.3981240226805E-07
(PID.TID 0000.0001) %MON ke_vol                       =   2.0000000000000E+01
(PID.TID 0000.0001) // =======================================================
(PID.TID 0000.0001) // End MONITOR dynamic field statistics
(PID.TID 0000.0001) // =======================================================
(PID.TID 0000.0001) SOLVE_FOR_PRESSURE: putPmEinXvector =    F
(PID.TID 0000.0001) SOLVE_FOR_PRESSURE: oldFreeSurfTerm =    F
 cg2d: Sum(rhs),rhsMax =   1.13686837721616E-12  9.59395000341632E+01
(PID.TID 0000.0001)      cg2d_init_res =   7.65130734643082E-02
(PID.TID 0000.0001)      cg2d_iters(min,last) =      -1       4
(PID.TID 0000.0001)      cg2d_last_res =   1.04358332456982E-13
 cg3d: Sum(rhs),rhsMax =  -4.96417082951339E-05  5.91582823576459E-03
(PID.TID 0000.0001)      cg3d_init_res =   6.29281787975108E-04
(PID.TID 0000.0001)      cg3d_iters (last) =                191
(PID.TID 0000.0001)      cg3d_last_res =   5.21282529607131E-14
(PID.TID 0000.0001) // =======================================================
(PID.TID 0000.0001) // Begin MONITOR dynamic field statistics
(PID.TID 0000.0001) // =======================================================
(PID.TID 0000.0001) %MON time_tsnumber                =                     2
(PID.TID 0000.0001) %MON time_secondsf                =   1.0000000000000E-02
(PID.TID 0000.0001) %MON dynstat_eta_max              =   1.4990253839600E-01
(PID.TID 0000.0001) %MON dynstat_eta_min              =  -1.4990253839392E-01
(PID.TID 0000.0001) %MON dynstat_eta_mean             =  -3.0357660829594E-17
(PID.TID 0000.0001) %MON dynstat_eta_sd               =   1.0604943040831E-01
(PID.TID 0000.0001) %MON dynstat_eta_del2             =   5.6774423873125E-05
(PID.TID 0000.0001) %MON dynstat_uvel_max             =   4.5639317385380E-03
(PID.TID 0000.0001) %MON dynstat_uvel_min             =   2.5546087607635E-05
(PID.TID 0000.0001) %MON dynstat_uvel_mean            =   9.6991381550885E-04
(PID.TID 0000.0001) %MON dynstat_uvel_sd              =   9.4590122177343E-04
(PID.TID 0000.0001) %MON dynstat_uvel_del2            =   1.0800354278870E-07
(PID.TID 0000.0001) %MON dynstat_vvel_max             =   0.0000000000000E+00
(PID.TID 0000.0001) %MON dynstat_vvel_min             =   0.0000000000000E+00
(PID.TID 0000.0001) %MON dynstat_vvel_mean            =   0.0000000000000E+00
(PID.TID 0000.0001) %MON dynstat_vvel_sd              =   0.0000000000000E+00
(PID.TID 0000.0001) %MON dynstat_vvel_del2            =   0.0000000000000E+00
(PID.TID 0000.0001) %MON dynstat_wvel_max             =   4.6890636461843E-03
(PID.TID 0000.0001) %MON dynstat_wvel_min             =  -4.6890628137495E-03
(PID.TID 0000.0001) %MON dynstat_wvel_mean            =  -2.1903074191626E-19
(PID.TID 0000.0001) %MON dynstat_wvel_sd              =   1.3179185397050E-03
(PID.TID 0000.0001) %MON dynstat_wvel_del2            =   1.0240843467778E-07
(PID.TID 0000.0001) %MON dynstat_theta_max            =   1.0000000000000E+01
(PID.TID 0000.0001) %MON dynstat_theta_min            =   1.0000000000000E+01
(PID.TID 0000.0001) %MON dynstat_theta_mean           =   9.9999999999999E+00
(PID.TID 0000.0001) %MON dynstat_theta_sd             =   1.4921397450962E-13
(PID.TID 0000.0001) %MON dynstat_theta_del2           =   0.0000000000000E+00
(PID.TID 0000.0001) %MON dynstat_salt_max             =   3.5000000000000E+01
(PID.TID 0000.0001) %MON dynstat_salt_min             =   3.5000000000000E+01
(PID.TID 0000.0001) %MON dynstat_salt_mean            =   3.5000000000000E+01
(PID.TID 0000.0001) %MON dynstat_salt_sd              =   9.9475983006414E-14
(PID.TID 0000.0001) %MON dynstat_salt_del2            =   0.0000000000000E+00
(PID.TID 0000.0001) %MON advcfl_uvel_max              =   1.1409829346345E-04
(PID.TID 0000.0001) %MON advcfl_vvel_max              =   0.0000000000000E+00
(PID.TID 0000.0001) %MON advcfl_wvel_max              =   2.3445318230921E-04
(PID.TID 0000.0001) %MON advcfl_W_hf_max              =   1.1006228985108E-04
(PID.TID 0000.0001) %MON pe_b_mean                    =   5.6232408449632E-03
(PID.TID 0000.0001) %MON ke_max                       =   1.0404420698478E-05
(PID.TID 0000.0001) %MON ke_mean                      =   1.7591464383877E-06
(PID.TID 0000.0001) %MON ke_vol                       =   2.0000000000000E+01
(PID.TID 0000.0001) // =======================================================
(PID.TID 0000.0001) // End MONITOR dynamic field statistics
(PID.TID 0000.0001) // =======================================================
 Compute Stats, Diag. #    23 "ETAN    " (list#  1) Parms "SM      M1      ", vol(  0 )= 2.000E+00
 Compute Stats, Diag. #    24 "ETANSQ  " (list#  1) Parms "SM P    M1      ", vol(  0 )= 2.000E+00
 Compute Stats, Diag. #    25 "DETADT2 " (list#  1) Parms "SM      M1      ", vol(  0 )= 2.000E+00
 Compute Stats, Diag. #    30 "UVEL    " (list#  1) Parms "UUR     MR      ", vol(  0 )= 1.960E+01
 Compute Stats, Diag. #    32 "WVEL    " (list#  1) Parms "WM      LR      ", vol(  0 )= 1.980E+01
 Compute Stats, Diag. #    77 "PHI_NH  " (list#  1) Parms "SMR     MR      ", vol(  0 )= 2.000E+01
 cg2d: Sum(rhs),rhsMax =   1.36424205265939E-12  9.59207441161457E+01
(PID.TID 0000.0001)      cg2d_init_res =   1.14038425961139E-01
(PID.TID 0000.0001)      cg2d_iters(min,last) =      -1       4
(PID.TID 0000.0001)      cg2d_last_res =   1.55540215945485E-13
 cg3d: Sum(rhs),rhsMax =  -1.50970103906189E-04  5.91489427166409E-03
(PID.TID 0000.0001)      cg3d_init_res =   4.10326853849903E-05
(PID.TID 0000.0001)      cg3d_iters (last) =                189
(PID.TID 0000.0001)      cg3d_last_res =   5.94635526317830E-14
(PID.TID 0000.0001) // =======================================================
(PID.TID 0000.0001) // Begin MONITOR dynamic field statistics
(PID.TID 0000.0001) // =======================================================
(PID.TID 0000.0001) %MON time_tsnumber                =                     3
(PID.TID 0000.0001) %MON time_secondsf                =   1.5000000000000E-02
(PID.TID 0000.0001) %MON dynstat_eta_max              =   1.4987323284561E-01
(PID.TID 0000.0001) %MON dynstat_eta_min              =  -1.4987323283096E-01
(PID.TID 0000.0001) %MON dynstat_eta_mean             =  -2.1684043449710E-17
(PID.TID 0000.0001) %MON dynstat_eta_sd               =   1.0602869802027E-01
(PID.TID 0000.0001) %MON dynstat_eta_del2             =   5.6763324620809E-05
(PID.TID 0000.0001) %MON dynstat_uvel_max             =   6.8454737955296E-03
(PID.TID 0000.0001) %MON dynstat_uvel_min             =   3.8316759308532E-05
(PID.TID 0000.0001) %MON dynstat_uvel_mean            =   1.4547806614070E-03
(PID.TID 0000.0001) %MON dynstat_uvel_sd              =   1.4187639998589E-03
(PID.TID 0000.0001) %MON dynstat_uvel_del2            =   1.6199528542215E-07
(PID.TID 0000.0001) %MON dynstat_vvel_max             =   0.0000000000000E+00
(PID.TID 0000.0001) %MON dynstat_vvel_min             =   0.0000000000000E+00
(PID.TID 0000.0001) %MON dynstat_vvel_mean            =   0.0000000000000E+00
(PID.TID 0000.0001) %MON dynstat_vvel_sd              =   0.0000000000000E+00
(PID.TID 0000.0001) %MON dynstat_vvel_del2            =   0.0000000000000E+00
(PID.TID 0000.0001) %MON dynstat_wvel_max             =   7.0331615376535E-03
(PID.TID 0000.0001) %MON dynstat_wvel_min             =  -7.0331573413196E-03
(PID.TID 0000.0001) %MON dynstat_wvel_mean            =   3.5044918706602E-19
(PID.TID 0000.0001) %MON dynstat_wvel_sd              =   1.9767554340031E-03
(PID.TID 0000.0001) %MON dynstat_wvel_del2            =   1.5360314286143E-07
(PID.TID 0000.0001) %MON dynstat_theta_max            =   1.0000000000000E+01
(PID.TID 0000.0001) %MON dynstat_theta_min            =   1.0000000000000E+01
(PID.TID 0000.0001) %MON dynstat_theta_mean           =   9.9999999999999E+00
(PID.TID 0000.0001) %MON dynstat_theta_sd             =   1.4921397450962E-13
(PID.TID 0000.0001) %MON dynstat_theta_del2           =   0.0000000000000E+00
(PID.TID 0000.0001) %MON dynstat_salt_max             =   3.5000000000000E+01
(PID.TID 0000.0001) %MON dynstat_salt_min             =   3.5000000000000E+01
(PID.TID 0000.0001) %MON dynstat_salt_mean            =   3.5000000000000E+01
(PID.TID 0000.0001) %MON dynstat_salt_sd              =   9.9475983006414E-14
(PID.TID 0000.0001) %MON dynstat_salt_del2            =   0.0000000000000E+00
(PID.TID 0000.0001) %MON advcfl_uvel_max              =   1.7113684488824E-04
(PID.TID 0000.0001) %MON advcfl_vvel_max              =   0.0000000000000E+00
(PID.TID 0000.0001) %MON advcfl_wvel_max              =   3.5165807688267E-04
(PID.TID 0000.0001) %MON advcfl_W_hf_max              =   1.6508321572390E-04
(PID.TID 0000.0001) %MON pe_b_mean                    =   5.6210424019373E-03
(PID.TID 0000.0001) %MON ke_max                       =   2.3407052919267E-05
(PID.TID 0000.0001) %MON ke_mean                      =   3.9575894621498E-06
(PID.TID 0000.0001) %MON ke_vol                       =   2.0000000000000E+01
(PID.TID 0000.0001) // =======================================================
(PID.TID 0000.0001) // End MONITOR dynamic field statistics
(PID.TID 0000.0001) // =======================================================
 cg2d: Sum(rhs),rhsMax =   1.36424205265939E-12  9.58944878315643E+01
(PID.TID 0000.0001)      cg2d_init_res =   1.51554861379782E-01
(PID.TID 0000.0001)      cg2d_iters(min,last) =      -1       4
(PID.TID 0000.0001)      cg2d_last_res =   2.06709937176224E-13
 cg3d: Sum(rhs),rhsMax =  -2.48133826898922E-04  5.91348867962569E-03
(PID.TID 0000.0001)      cg3d_init_res =   5.73308718265848E-05
(PID.TID 0000.0001)      cg3d_iters (last) =                190
(PID.TID 0000.0001)      cg3d_last_res =   5.04917218784370E-14
(PID.TID 0000.0001) // =======================================================
(PID.TID 0000.0001) // Begin MONITOR dynamic field statistics
(PID.TID 0000.0001) // =======================================================
(PID.TID 0000.0001) %MON time_tsnumber                =                     4
(PID.TID 0000.0001) %MON time_secondsf                =   2.0000000000000E-02
(PID.TID 0000.0001) %MON dynstat_eta_max              =   1.4983220820162E-01
(PID.TID 0000.0001) %MON dynstat_eta_min              =  -1.4983220814925E-01
(PID.TID 0000.0001) %MON dynstat_eta_mean             =  -4.3368086899420E-17
(PID.TID 0000.0001) %MON dynstat_eta_sd               =   1.0599967488181E-01
(PID.TID 0000.0001) %MON dynstat_eta_del2             =   5.6747786847913E-05
(PID.TID 0000.0001) %MON dynstat_uvel_max             =   9.1264805623595E-03
(PID.TID 0000.0001) %MON dynstat_uvel_min             =   5.1084434870414E-05
(PID.TID 0000.0001) %MON dynstat_uvel_mean            =   1.9395337527089E-03
(PID.TID 0000.0001) %MON dynstat_uvel_sd              =   1.8915158391644E-03
(PID.TID 0000.0001) %MON dynstat_uvel_del2            =   2.1597436103151E-07
(PID.TID 0000.0001) %MON dynstat_vvel_max             =   0.0000000000000E+00
(PID.TID 0000.0001) %MON dynstat_vvel_min             =   0.0000000000000E+00
(PID.TID 0000.0001) %MON dynstat_vvel_mean            =   0.0000000000000E+00
(PID.TID 0000.0001) %MON dynstat_vvel_sd              =   0.0000000000000E+00
(PID.TID 0000.0001) %MON dynstat_vvel_del2            =   0.0000000000000E+00
(PID.TID 0000.0001) %MON dynstat_wvel_max             =   9.3767111444712E-03
(PID.TID 0000.0001) %MON dynstat_wvel_min             =  -9.3767002564107E-03
(PID.TID 0000.0001) %MON dynstat_wvel_mean            =   0.0000000000000E+00
(PID.TID 0000.0001) %MON dynstat_wvel_sd              =   2.6354377589402E-03
(PID.TID 0000.0001) %MON dynstat_wvel_del2            =   2.0478584028172E-07
(PID.TID 0000.0001) %MON dynstat_theta_max            =   1.0000000000000E+01
(PID.TID 0000.0001) %MON dynstat_theta_min            =   1.0000000000000E+01
(PID.TID 0000.0001) %MON dynstat_theta_mean           =   9.9999999999999E+00
(PID.TID 0000.0001) %MON dynstat_theta_sd             =   1.4921397450962E-13
(PID.TID 0000.0001) %MON dynstat_theta_del2           =   0.0000000000000E+00
(PID.TID 0000.0001) %MON dynstat_salt_max             =   3.5000000000000E+01
(PID.TID 0000.0001) %MON dynstat_salt_min             =   3.5000000000000E+01
(PID.TID 0000.0001) %MON dynstat_salt_mean            =   3.5000000000000E+01
(PID.TID 0000.0001) %MON dynstat_salt_sd              =   9.9475983006414E-14
(PID.TID 0000.0001) %MON dynstat_salt_del2            =   0.0000000000000E+00
(PID.TID 0000.0001) %MON advcfl_uvel_max              =   2.2816201405899E-04
(PID.TID 0000.0001) %MON advcfl_vvel_max              =   0.0000000000000E+00
(PID.TID 0000.0001) %MON advcfl_wvel_max              =   4.6883555722356E-04
(PID.TID 0000.0001) %MON advcfl_W_hf_max              =   2.2009123406074E-04
(PID.TID 0000.0001) %MON pe_b_mean                    =   5.6179655375247E-03
(PID.TID 0000.0001) %MON ke_max                       =   4.1605093051622E-05
(PID.TID 0000.0001) %MON ke_mean                      =   7.0344538700939E-06
(PID.TID 0000.0001) %MON ke_vol                       =   2.0000000000000E+01
(PID.TID 0000.0001) // =======================================================
(PID.TID 0000.0001) // End MONITOR dynamic field statistics
(PID.TID 0000.0001) // =======================================================
 cg2d: Sum(rhs),rhsMax =   1.36424205265939E-12  9.58607332403501E+01
(PID.TID 0000.0001)      cg2d_init_res =   1.89059446178374E-01
(PID.TID 0000.0001)      cg2d_iters(min,last) =      -1       4
(PID.TID 0000.0001)      cg2d_last_res =   2.57863495002891E-13
 cg3d: Sum(rhs),rhsMax =  -4.15528925000963E-04  5.91177497865005E-03
(PID.TID 0000.0001)      cg3d_init_res =   7.38034739677716E-05
(PID.TID 0000.0001)      cg3d_iters (last) =                193
(PID.TID 0000.0001)      cg3d_last_res =   5.28118864729992E-14
(PID.TID 0000.0001) // =======================================================
(PID.TID 0000.0001) // Begin MONITOR dynamic field statistics
(PID.TID 0000.0001) // =======================================================
(PID.TID 0000.0001) %MON time_tsnumber                =                     5
(PID.TID 0000.0001) %MON time_secondsf                =   2.5000000000000E-02
(PID.TID 0000.0001) %MON dynstat_eta_max              =   1.4977946768159E-01
(PID.TID 0000.0001) %MON dynstat_eta_min              =  -1.4977946754697E-01
(PID.TID 0000.0001) %MON dynstat_eta_mean             =  -3.4694469519536E-17
(PID.TID 0000.0001) %MON dynstat_eta_sd               =   1.0596236326234E-01
(PID.TID 0000.0001) %MON dynstat_eta_del2             =   5.6727811769393E-05
(PID.TID 0000.0001) %MON dynstat_uvel_max             =   1.1406773678456E-02
(PID.TID 0000.0001) %MON dynstat_uvel_min             =   6.3848115938208E-05
(PID.TID 0000.0001) %MON dynstat_uvel_mean            =   2.4241351848415E-03
(PID.TID 0000.0001) %MON dynstat_uvel_sd              =   2.3641197734937E-03
(PID.TID 0000.0001) %MON dynstat_uvel_del2            =   2.6993654880143E-07
(PID.TID 0000.0001) %MON dynstat_vvel_max             =   0.0000000000000E+00
(PID.TID 0000.0001) %MON dynstat_vvel_min             =   0.0000000000000E+00
(PID.TID 0000.0001) %MON dynstat_vvel_mean            =   0.0000000000000E+00
(PID.TID 0000.0001) %MON dynstat_vvel_sd              =   0.0000000000000E+00
(PID.TID 0000.0001) %MON dynstat_vvel_del2            =   0.0000000000000E+00
(PID.TID 0000.0001) %MON dynstat_wvel_max             =   1.1719529769474E-02
(PID.TID 0000.0001) %MON dynstat_wvel_min             =  -1.1719507755044E-02
(PID.TID 0000.0001) %MON dynstat_wvel_mean            =   5.2567378059903E-19
(PID.TID 0000.0001) %MON dynstat_wvel_sd              =   3.2939140098548E-03
(PID.TID 0000.0001) %MON dynstat_wvel_del2            =   2.5595252478667E-07
(PID.TID 0000.0001) %MON dynstat_theta_max            =   1.0000000000000E+01
(PID.TID 0000.0001) %MON dynstat_theta_min            =   1.0000000000000E+01
(PID.TID 0000.0001) %MON dynstat_theta_mean           =   9.9999999999999E+00
(PID.TID 0000.0001) %MON dynstat_theta_sd             =   1.4921397450962E-13
(PID.TID 0000.0001) %MON dynstat_theta_del2           =   0.0000000000000E+00
(PID.TID 0000.0001) %MON dynstat_salt_max             =   3.5000000000000E+01
(PID.TID 0000.0001) %MON dynstat_salt_min             =   3.5000000000000E+01
(PID.TID 0000.0001) %MON dynstat_salt_mean            =   3.5000000000000E+01
(PID.TID 0000.0001) %MON dynstat_salt_sd              =   9.9475983006414E-14
(PID.TID 0000.0001) %MON dynstat_salt_del2            =   0.0000000000000E+00
(PID.TID 0000.0001) %MON advcfl_uvel_max              =   2.8516934196140E-04
(PID.TID 0000.0001) %MON advcfl_vvel_max              =   0.0000000000000E+00
(PID.TID 0000.0001) %MON advcfl_wvel_max              =   5.8597648847371E-04
(PID.TID 0000.0001) %MON advcfl_W_hf_max              =   2.7508204387547E-04
(PID.TID 0000.0001) %MON pe_b_mean                    =   5.6140112140698E-03
(PID.TID 0000.0001) %MON ke_max                       =   6.4992857552341E-05
(PID.TID 0000.0001) %MON ke_mean                      =   1.0988777316564E-05
(PID.TID 0000.0001) %MON ke_vol                       =   2.0000000000000E+01
(PID.TID 0000.0001) // =======================================================
(PID.TID 0000.0001) // End MONITOR dynamic field statistics
(PID.TID 0000.0001) // =======================================================
 cg2d: Sum(rhs),rhsMax =   1.36424205265939E-12  9.58194829892361E+01
(PID.TID 0000.0001)      cg2d_init_res =   2.26549247738699E-01
(PID.TID 0000.0001)      cg2d_iters(min,last) =      -1       4
(PID.TID 0000.0001)      cg2d_last_res =   3.08996889531695E-13
 cg3d: Sum(rhs),rhsMax =  -5.78676603878225E-04  5.90958975523342E-03
(PID.TID 0000.0001)      cg3d_init_res =   9.00922150227983E-05
(PID.TID 0000.0001)      cg3d_iters (last) =                193
(PID.TID 0000.0001)      cg3d_last_res =   5.39687485277884E-14
(PID.TID 0000.0001) // =======================================================
(PID.TID 0000.0001) // Begin MONITOR dynamic field statistics
(PID.TID 0000.0001) // =======================================================
(PID.TID 0000.0001) %MON time_tsnumber                =                     6
(PID.TID 0000.0001) %MON time_secondsf                =   3.0000000000000E-02
(PID.TID 0000.0001) %MON dynstat_eta_max              =   1.4971501542197E-01
(PID.TID 0000.0001) %MON dynstat_eta_min              =  -1.4971501513562E-01
(PID.TID 0000.0001) %MON dynstat_eta_mean             =  -4.3368086899420E-17
(PID.TID 0000.0001) %MON dynstat_eta_sd               =   1.0591676607939E-01
(PID.TID 0000.0001) %MON dynstat_eta_del2             =   5.6703400947170E-05
(PID.TID 0000.0001) %MON dynstat_uvel_max             =   1.3686174838517E-02
(PID.TID 0000.0001) %MON dynstat_uvel_min             =   7.6606804469321E-05
(PID.TID 0000.0001) %MON dynstat_uvel_mean            =   2.9085470650542E-03
(PID.TID 0000.0001) %MON dynstat_uvel_sd              =   2.8365388481493E-03
(PID.TID 0000.0001) %MON dynstat_uvel_del2            =   3.2387762923355E-07
(PID.TID 0000.0001) %MON dynstat_vvel_max             =   0.0000000000000E+00
(PID.TID 0000.0001) %MON dynstat_vvel_min             =   0.0000000000000E+00
(PID.TID 0000.0001) %MON dynstat_vvel_mean            =   0.0000000000000E+00
(PID.TID 0000.0001) %MON dynstat_vvel_sd              =   0.0000000000000E+00
(PID.TID 0000.0001) %MON dynstat_vvel_del2            =   0.0000000000000E+00
(PID.TID 0000.0001) %MON dynstat_wvel_max             =   1.4061434771381E-02
(PID.TID 0000.0001) %MON dynstat_wvel_min             =  -1.4061396091205E-02
(PID.TID 0000.0001) %MON dynstat_wvel_mean            =   1.7522459353301E-19
(PID.TID 0000.0001) %MON dynstat_wvel_sd              =   3.9521326981893E-03
(PID.TID 0000.0001) %MON dynstat_wvel_del2            =   3.0709919547530E-07
(PID.TID 0000.0001) %MON dynstat_theta_max            =   1.0000000000000E+01
(PID.TID 0000.0001) %MON dynstat_theta_min            =   1.0000000000000E+01
(PID.TID 0000.0001) %MON dynstat_theta_mean           =   9.9999999999999E+00
(PID.TID 0000.0001) %MON dynstat_theta_sd             =   1.4921397450962E-13
(PID.TID 0000.0001) %MON dynstat_theta_del2           =   0.0000000000000E+00
(PID.TID 0000.0001) %MON dynstat_salt_max             =   3.5000000000000E+01
(PID.TID 0000.0001) %MON dynstat_salt_min             =   3.5000000000000E+01
(PID.TID 0000.0001) %MON dynstat_salt_mean            =   3.5000000000000E+01
(PID.TID 0000.0001) %MON dynstat_salt_sd              =   9.9475983006414E-14
(PID.TID 0000.0001) %MON dynstat_salt_del2            =   0.0000000000000E+00
(PID.TID 0000.0001) %MON advcfl_uvel_max              =   3.4215437096292E-04
(PID.TID 0000.0001) %MON advcfl_vvel_max              =   0.0000000000000E+00
(PID.TID 0000.0001) %MON advcfl_wvel_max              =   7.0307173856907E-04
(PID.TID 0000.0001) %MON advcfl_W_hf_max              =   3.3005134551391E-04
(PID.TID 0000.0001) %MON pe_b_mean                    =   5.6091806683580E-03
(PID.TID 0000.0001) %MON ke_max                       =   9.3563042064509E-05
(PID.TID 0000.0001) %MON ke_mean                      =   1.5819323014409E-05
(PID.TID 0000.0001) %MON ke_vol                       =   2.0000000000000E+01
(PID.TID 0000.0001) // =======================================================
(PID.TID 0000.0001) // End MONITOR dynamic field statistics
(PID.TID 0000.0001) // =======================================================
 cg2d: Sum(rhs),rhsMax =   1.13686837721616E-12  9.57707403141277E+01
(PID.TID 0000.0001)      cg2d_init_res =   2.64021334597067E-01
(PID.TID 0000.0001)      cg2d_iters(min,last) =      -1       4
(PID.TID 0000.0001)      cg2d_last_res =   3.60106122438778E-13
 cg3d: Sum(rhs),rhsMax =  -8.11952273530814E-04  5.90709655474743E-03
(PID.TID 0000.0001)      cg3d_init_res =   1.06552172475476E-04
(PID.TID 0000.0001)      cg3d_iters (last) =                195
(PID.TID 0000.0001)      cg3d_last_res =   4.68243708303279E-14
(PID.TID 0000.0001) // =======================================================
(PID.TID 0000.0001) // Begin MONITOR dynamic field statistics
(PID.TID 0000.0001) // =======================================================
(PID.TID 0000.0001) %MON time_tsnumber                =                     7
(PID.TID 0000.0001) %MON time_secondsf                =   3.5000000000000E-02
(PID.TID 0000.0001) %MON dynstat_eta_max              =   1.4963885647777E-01
(PID.TID 0000.0001) %MON dynstat_eta_min              =  -1.4963885593974E-01
(PID.TID 0000.0001) %MON dynstat_eta_mean             =  -3.9031278209478E-17
(PID.TID 0000.0001) %MON dynstat_eta_sd               =   1.0586288689837E-01
(PID.TID 0000.0001) %MON dynstat_eta_del2             =   5.6674556290012E-05
(PID.TID 0000.0001) %MON dynstat_uvel_max             =   1.5964505806343E-02
(PID.TID 0000.0001) %MON dynstat_uvel_min             =   8.9359502811573E-05
(PID.TID 0000.0001) %MON dynstat_uvel_mean            =   3.3927315153735E-03
(PID.TID 0000.0001) %MON dynstat_uvel_sd              =   3.3087361228087E-03
(PID.TID 0000.0001) %MON dynstat_uvel_del2            =   3.7779338447583E-07
(PID.TID 0000.0001) %MON dynstat_vvel_max             =   0.0000000000000E+00
(PID.TID 0000.0001) %MON dynstat_vvel_min             =   0.0000000000000E+00
(PID.TID 0000.0001) %MON dynstat_vvel_mean            =   0.0000000000000E+00
(PID.TID 0000.0001) %MON dynstat_vvel_sd              =   0.0000000000000E+00
(PID.TID 0000.0001) %MON dynstat_vvel_del2            =   0.0000000000000E+00
(PID.TID 0000.0001) %MON dynstat_wvel_max             =   1.6402243578776E-02
(PID.TID 0000.0001) %MON dynstat_wvel_min             =  -1.6402181591344E-02
(PID.TID 0000.0001) %MON dynstat_wvel_mean            =   2.8035934965282E-18
(PID.TID 0000.0001) %MON dynstat_wvel_sd              =   4.6100423555143E-03
(PID.TID 0000.0001) %MON dynstat_wvel_del2            =   3.5822185301136E-07
(PID.TID 0000.0001) %MON dynstat_theta_max            =   1.0000000000000E+01
(PID.TID 0000.0001) %MON dynstat_theta_min            =   1.0000000000000E+01
(PID.TID 0000.0001) %MON dynstat_theta_mean           =   9.9999999999999E+00
(PID.TID 0000.0001) %MON dynstat_theta_sd             =   1.4921397450962E-13
(PID.TID 0000.0001) %MON dynstat_theta_del2           =   0.0000000000000E+00
(PID.TID 0000.0001) %MON dynstat_salt_max             =   3.5000000000000E+01
(PID.TID 0000.0001) %MON dynstat_salt_min             =   3.5000000000000E+01
(PID.TID 0000.0001) %MON dynstat_salt_mean            =   3.5000000000000E+01
(PID.TID 0000.0001) %MON dynstat_salt_sd              =   9.9475983006414E-14
(PID.TID 0000.0001) %MON dynstat_salt_del2            =   0.0000000000000E+00
(PID.TID 0000.0001) %MON advcfl_uvel_max              =   3.9911264515857E-04
(PID.TID 0000.0001) %MON advcfl_vvel_max              =   0.0000000000000E+00
(PID.TID 0000.0001) %MON advcfl_wvel_max              =   8.2011217893882E-04
(PID.TID 0000.0001) %MON advcfl_W_hf_max              =   3.8499484098686E-04
(PID.TID 0000.0001) %MON pe_b_mean                    =   5.6034754112286E-03
(PID.TID 0000.0001) %MON ke_max                       =   1.2730672368821E-04
(PID.TID 0000.0001) %MON ke_mean                      =   2.1524580121456E-05
(PID.TID 0000.0001) %MON ke_vol                       =   2.0000000000000E+01
(PID.TID 0000.0001) // =======================================================
(PID.TID 0000.0001) // End MONITOR dynamic field statistics
(PID.TID 0000.0001) // =======================================================
 Compute Stats, Diag. #    23 "ETAN    " (list#  1) Parms "SM      M1      ", vol(  0 )= 2.000E+00
 Compute Stats, Diag. #    24 "ETANSQ  " (list#  1) Parms "SM P    M1      ", vol(  0 )= 2.000E+00
 Compute Stats, Diag. #    25 "DETADT2 " (list#  1) Parms "SM      M1      ", vol(  0 )= 2.000E+00
 Compute Stats, Diag. #    30 "UVEL    " (list#  1) Parms "UUR     MR      ", vol(  0 )= 1.960E+01
 Compute Stats, Diag. #    32 "WVEL    " (list#  1) Parms "WM      LR      ", vol(  0 )= 1.980E+01
 Compute Stats, Diag. #    77 "PHI_NH  " (list#  1) Parms "SMR     MR      ", vol(  0 )= 2.000E+01
 cg2d: Sum(rhs),rhsMax =   1.13686837721616E-12  9.57145090372683E+01
(PID.TID 0000.0001)      cg2d_init_res =   3.01472776670688E-01
(PID.TID 0000.0001)      cg2d_iters(min,last) =      -1       4
(PID.TID 0000.0001)      cg2d_last_res =   4.11187197275140E-13
 cg3d: Sum(rhs),rhsMax =  -1.04085653375696E-03  5.90413199017269E-03
(PID.TID 0000.0001)      cg3d_init_res =   1.22825621578641E-04
(PID.TID 0000.0001)      cg3d_iters (last) =                195
(PID.TID 0000.0001)      cg3d_last_res =   4.91586816638944E-14
(PID.TID 0000.0001) // =======================================================
(PID.TID 0000.0001) // Begin MONITOR dynamic field statistics
(PID.TID 0000.0001) // =======================================================
(PID.TID 0000.0001) %MON time_tsnumber                =                     8
(PID.TID 0000.0001) %MON time_secondsf                =   4.0000000000000E-02
(PID.TID 0000.0001) %MON dynstat_eta_max              =   1.4955099682212E-01
(PID.TID 0000.0001) %MON dynstat_eta_min              =  -1.4955099589653E-01
(PID.TID 0000.0001) %MON dynstat_eta_mean             =  -3.9031278209478E-17
(PID.TID 0000.0001) %MON dynstat_eta_sd               =   1.0580072993229E-01
(PID.TID 0000.0001) %MON dynstat_eta_del2             =   5.6641280053383E-05
(PID.TID 0000.0001) %MON dynstat_uvel_max             =   1.8241588428643E-02
(PID.TID 0000.0001) %MON dynstat_uvel_min             =   1.0210521378136E-04
(PID.TID 0000.0001) %MON dynstat_uvel_mean            =   3.8766506755566E-03
(PID.TID 0000.0001) %MON dynstat_uvel_sd              =   3.7806746743960E-03
(PID.TID 0000.0001) %MON dynstat_uvel_del2            =   4.3167959865149E-07
(PID.TID 0000.0001) %MON dynstat_vvel_max             =   0.0000000000000E+00
(PID.TID 0000.0001) %MON dynstat_vvel_min             =   0.0000000000000E+00
(PID.TID 0000.0001) %MON dynstat_vvel_mean            =   0.0000000000000E+00
(PID.TID 0000.0001) %MON dynstat_vvel_sd              =   0.0000000000000E+00
(PID.TID 0000.0001) %MON dynstat_vvel_del2            =   0.0000000000000E+00
(PID.TID 0000.0001) %MON dynstat_wvel_max             =   1.8741773704066E-02
(PID.TID 0000.0001) %MON dynstat_wvel_min             =  -1.8741680668856E-02
(PID.TID 0000.0001) %MON dynstat_wvel_mean            =  -2.8035934965282E-18
(PID.TID 0000.0001) %MON dynstat_wvel_sd              =   5.2675915375511E-03
(PID.TID 0000.0001) %MON dynstat_wvel_del2            =   4.0931649993674E-07
(PID.TID 0000.0001) %MON dynstat_theta_max            =   1.0000000000000E+01
(PID.TID 0000.0001) %MON dynstat_theta_min            =   1.0000000000000E+01
(PID.TID 0000.0001) %MON dynstat_theta_mean           =   9.9999999999999E+00
(PID.TID 0000.0001) %MON dynstat_theta_sd             =   1.4921397450962E-13
(PID.TID 0000.0001) %MON dynstat_theta_del2           =   0.0000000000000E+00
(PID.TID 0000.0001) %MON dynstat_salt_max             =   3.5000000000000E+01
(PID.TID 0000.0001) %MON dynstat_salt_min             =   3.5000000000000E+01
(PID.TID 0000.0001) %MON dynstat_salt_mean            =   3.5000000000000E+01
(PID.TID 0000.0001) %MON dynstat_salt_sd              =   9.9475983006414E-14
(PID.TID 0000.0001) %MON dynstat_salt_del2            =   0.0000000000000E+00
(PID.TID 0000.0001) %MON advcfl_uvel_max              =   4.5603971071606E-04
(PID.TID 0000.0001) %MON advcfl_vvel_max              =   0.0000000000000E+00
(PID.TID 0000.0001) %MON advcfl_wvel_max              =   9.3708868520328E-04
(PID.TID 0000.0001) %MON advcfl_W_hf_max              =   4.3990823430285E-04
(PID.TID 0000.0001) %MON pe_b_mean                    =   5.5968972271030E-03
(PID.TID 0000.0001) %MON ke_max                       =   1.6621336375423E-04
(PID.TID 0000.0001) %MON ke_mean                      =   2.8102764212625E-05
(PID.TID 0000.0001) %MON ke_vol                       =   2.0000000000000E+01
(PID.TID 0000.0001) // =======================================================
(PID.TID 0000.0001) // End MONITOR dynamic field statistics
(PID.TID 0000.0001) // =======================================================
 cg2d: Sum(rhs),rhsMax =   1.59161572810262E-12  9.56507935695173E+01
(PID.TID 0000.0001)      cg2d_init_res =   3.38900645488476E-01
(PID.TID 0000.0001)      cg2d_iters(min,last) =      -1       4
(PID.TID 0000.0001)      cg2d_last_res =   4.62236119779864E-13
 cg3d: Sum(rhs),rhsMax =  -1.33974422740790E-03  5.90085963339797E-03
(PID.TID 0000.0001)      cg3d_init_res =   1.39267413047129E-04
(PID.TID 0000.0001)      cg3d_iters (last) =                196
(PID.TID 0000.0001)      cg3d_last_res =   4.88227152452700E-14
(PID.TID 0000.0001) // =======================================================
(PID.TID 0000.0001) // Begin MONITOR dynamic field statistics
(PID.TID 0000.0001) // =======================================================
(PID.TID 0000.0001) %MON time_tsnumber                =                     9
(PID.TID 0000.0001) %MON time_secondsf                =   4.5000000000000E-02
(PID.TID 0000.0001) %MON dynstat_eta_max              =   1.4945144334585E-01
(PID.TID 0000.0001) %MON dynstat_eta_min              =  -1.4945144185538E-01
(PID.TID 0000.0001) %MON dynstat_eta_mean             =  -5.2041704279304E-17
(PID.TID 0000.0001) %MON dynstat_eta_sd               =   1.0573030004144E-01
(PID.TID 0000.0001) %MON dynstat_eta_del2             =   5.6603574839269E-05
(PID.TID 0000.0001) %MON dynstat_uvel_max             =   2.0517244648838E-02
(PID.TID 0000.0001) %MON dynstat_uvel_min             =   1.1484294074154E-04
(PID.TID 0000.0001) %MON dynstat_uvel_mean            =   4.3602667060425E-03
(PID.TID 0000.0001) %MON dynstat_uvel_sd              =   4.2523175999539E-03
(PID.TID 0000.0001) %MON dynstat_uvel_del2            =   4.8553205818786E-07
(PID.TID 0000.0001) %MON dynstat_vvel_max             =   0.0000000000000E+00
(PID.TID 0000.0001) %MON dynstat_vvel_min             =   0.0000000000000E+00
(PID.TID 0000.0001) %MON dynstat_vvel_mean            =   0.0000000000000E+00
(PID.TID 0000.0001) %MON dynstat_vvel_sd              =   0.0000000000000E+00
(PID.TID 0000.0001) %MON dynstat_vvel_del2            =   0.0000000000000E+00
(PID.TID 0000.0001) %MON dynstat_wvel_max             =   2.1079842757439E-02
(PID.TID 0000.0001) %MON dynstat_wvel_min             =  -2.1079709838550E-02
(PID.TID 0000.0001) %MON dynstat_wvel_mean            =   2.8035934965282E-18
(PID.TID 0000.0001) %MON dynstat_wvel_sd              =   5.9247288281916E-03
(PID.TID 0000.0001) %MON dynstat_wvel_del2            =   4.6037914098244E-07
(PID.TID 0000.0001) %MON dynstat_theta_max            =   1.0000000000000E+01
(PID.TID 0000.0001) %MON dynstat_theta_min            =   1.0000000000000E+01
(PID.TID 0000.0001) %MON dynstat_theta_mean           =   9.9999999999999E+00
(PID.TID 0000.0001) %MON dynstat_theta_sd             =   1.4921397450962E-13
(PID.TID 0000.0001) %MON dynstat_theta_del2           =   0.0000000000000E+00
(PID.TID 0000.0001) %MON dynstat_salt_max             =   3.5000000000000E+01
(PID.TID 0000.0001) %MON dynstat_salt_min             =   3.5000000000000E+01
(PID.TID 0000.0001) %MON dynstat_salt_mean            =   3.5000000000000E+01
(PID.TID 0000.0001) %MON dynstat_salt_sd              =   9.9475983006414E-14
(PID.TID 0000.0001) %MON dynstat_salt_del2            =   0.0000000000000E+00
(PID.TID 0000.0001) %MON advcfl_uvel_max              =   5.1293111622096E-04
(PID.TID 0000.0001) %MON advcfl_vvel_max              =   0.0000000000000E+00
(PID.TID 0000.0001) %MON advcfl_wvel_max              =   1.0539921378720E-03
(PID.TID 0000.0001) %MON advcfl_W_hf_max              =   4.9478723180069E-04
(PID.TID 0000.0001) %MON pe_b_mean                    =   5.5894481734262E-03
(PID.TID 0000.0001) %MON ke_max                       =   2.1027081110013E-04
(PID.TID 0000.0001) %MON ke_mean                      =   3.5551817837528E-05
(PID.TID 0000.0001) %MON ke_vol                       =   2.0000000000000E+01
(PID.TID 0000.0001) // =======================================================
(PID.TID 0000.0001) // End MONITOR dynamic field statistics
(PID.TID 0000.0001) // =======================================================
 cg2d: Sum(rhs),rhsMax =   1.59161572810262E-12  9.55795989074230E+01
(PID.TID 0000.0001)      cg2d_init_res =   3.76302014417247E-01
(PID.TID 0000.0001)      cg2d_iters(min,last) =      -1       4
(PID.TID 0000.0001)      cg2d_last_res =   5.13248898186782E-13
 cg3d: Sum(rhs),rhsMax =  -1.63409543246029E-03  5.89711612399129E-03
(PID.TID 0000.0001)      cg3d_init_res =   1.55520252940269E-04
(PID.TID 0000.0001)      cg3d_iters (last) =                196
(PID.TID 0000.0001)      cg3d_last_res =   5.04488353549052E-14
(PID.TID 0000.0001) // =======================================================
(PID.TID 0000.0001) // Begin MONITOR dynamic field statistics
(PID.TID 0000.0001) // =======================================================
(PID.TID 0000.0001) %MON time_tsnumber                =                    10
(PID.TID 0000.0001) %MON time_secondsf                =   5.0000000000000E-02
(PID.TID 0000.0001) %MON dynstat_eta_max              =   1.4934020385692E-01
(PID.TID 0000.0001) %MON dynstat_eta_min              =  -1.4934020157733E-01
(PID.TID 0000.0001) %MON dynstat_eta_mean             =  -4.7704895589362E-17
(PID.TID 0000.0001) %MON dynstat_eta_sd               =   1.0565160273298E-01
(PID.TID 0000.0001) %MON dynstat_eta_del2             =   5.6561443595969E-05
(PID.TID 0000.0001) %MON dynstat_uvel_max             =   2.2791296520860E-02
(PID.TID 0000.0001) %MON dynstat_uvel_min             =   1.2757168767941E-04
(PID.TID 0000.0001) %MON dynstat_uvel_mean            =   4.8435417909024E-03
(PID.TID 0000.0001) %MON dynstat_uvel_sd              =   4.7236280195130E-03
(PID.TID 0000.0001) %MON dynstat_uvel_del2            =   5.3934655214501E-07
(PID.TID 0000.0001) %MON dynstat_vvel_max             =   0.0000000000000E+00
(PID.TID 0000.0001) %MON dynstat_vvel_min             =   0.0000000000000E+00
(PID.TID 0000.0001) %MON dynstat_vvel_mean            =   0.0000000000000E+00
(PID.TID 0000.0001) %MON dynstat_vvel_sd              =   0.0000000000000E+00
(PID.TID 0000.0001) %MON dynstat_vvel_del2            =   0.0000000000000E+00
(PID.TID 0000.0001) %MON dynstat_wvel_max             =   2.3416268460817E-02
(PID.TID 0000.0001) %MON dynstat_wvel_min             =  -2.3416085731120E-02
(PID.TID 0000.0001) %MON dynstat_wvel_mean            =  -5.2567378059903E-19
(PID.TID 0000.0001) %MON dynstat_wvel_sd              =   6.5814028435168E-03
(PID.TID 0000.0001) %MON dynstat_wvel_del2            =   5.1140578338209E-07
(PID.TID 0000.0001) %MON dynstat_theta_max            =   1.0000000000000E+01
(PID.TID 0000.0001) %MON dynstat_theta_min            =   1.0000000000000E+01
(PID.TID 0000.0001) %MON dynstat_theta_mean           =   9.9999999999999E+00
(PID.TID 0000.0001) %MON dynstat_theta_sd             =   1.4921397450962E-13
(PID.TID 0000.0001) %MON dynstat_theta_del2           =   0.0000000000000E+00
(PID.TID 0000.0001) %MON dynstat_salt_max             =   3.5000000000000E+01
(PID.TID 0000.0001) %MON dynstat_salt_min             =   3.5000000000000E+01
(PID.TID 0000.0001) %MON dynstat_salt_mean            =   3.5000000000000E+01
(PID.TID 0000.0001) %MON dynstat_salt_sd              =   9.9475983006414E-14
(PID.TID 0000.0001) %MON dynstat_salt_del2            =   0.0000000000000E+00
(PID.TID 0000.0001) %MON advcfl_uvel_max              =   5.6978241302150E-04
(PID.TID 0000.0001) %MON advcfl_vvel_max              =   0.0000000000000E+00
(PID.TID 0000.0001) %MON advcfl_wvel_max              =   1.1708134230409E-03
(PID.TID 0000.0001) %MON advcfl_W_hf_max              =   5.4962754248196E-04
(PID.TID 0000.0001) %MON pe_b_mean                    =   5.5811305800234E-03
(PID.TID 0000.0001) %MON ke_max                       =   2.5946530584756E-04
(PID.TID 0000.0001) %MON ke_mean                      =   4.3869411163386E-05
(PID.TID 0000.0001) %MON ke_vol                       =   2.0000000000000E+01
(PID.TID 0000.0001) // =======================================================
(PID.TID 0000.0001) // End MONITOR dynamic field statistics
(PID.TID 0000.0001) // =======================================================
 cg2d: Sum(rhs),rhsMax =   1.36424205265939E-12  9.55009306354081E+01
(PID.TID 0000.0001)      cg2d_init_res =   4.13673958892303E-01
(PID.TID 0000.0001)      cg2d_iters(min,last) =      -1       4
(PID.TID 0000.0001)      cg2d_last_res =   5.64221543541724E-13
 cg3d: Sum(rhs),rhsMax =  -1.99824452111264E-03  5.89306506047832E-03
(PID.TID 0000.0001)      cg3d_init_res =   1.71938572213843E-04
(PID.TID 0000.0001)      cg3d_iters (last) =                196
(PID.TID 0000.0001)      cg3d_last_res =   5.97712853550740E-14
(PID.TID 0000.0001) // =======================================================
(PID.TID 0000.0001) // Begin MONITOR dynamic field statistics
(PID.TID 0000.0001) // =======================================================
(PID.TID 0000.0001) %MON time_tsnumber                =                    11
(PID.TID 0000.0001) %MON time_secondsf                =   5.5000000000000E-02
(PID.TID 0000.0001) %MON dynstat_eta_max              =   1.4921728707983E-01
(PID.TID 0000.0001) %MON dynstat_eta_min              =  -1.4921728373453E-01
(PID.TID 0000.0001) %MON dynstat_eta_mean             =  -4.7704895589362E-17
(PID.TID 0000.0001) %MON dynstat_eta_sd               =   1.0556464416055E-01
(PID.TID 0000.0001) %MON dynstat_eta_del2             =   5.6514889617870E-05
(PID.TID 0000.0001) %MON dynstat_uvel_max             =   2.5063566222934E-02
(PID.TID 0000.0001) %MON dynstat_uvel_min             =   1.4029045928461E-04
(PID.TID 0000.0001) %MON dynstat_uvel_mean            =   5.3264381407879E-03
(PID.TID 0000.0001) %MON dynstat_uvel_sd              =   5.1945690789602E-03
(PID.TID 0000.0001) %MON dynstat_uvel_del2            =   5.9311887254424E-07
(PID.TID 0000.0001) %MON dynstat_vvel_max             =   0.0000000000000E+00
(PID.TID 0000.0001) %MON dynstat_vvel_min             =   0.0000000000000E+00
(PID.TID 0000.0001) %MON dynstat_vvel_mean            =   0.0000000000000E+00
(PID.TID 0000.0001) %MON dynstat_vvel_sd              =   0.0000000000000E+00
(PID.TID 0000.0001) %MON dynstat_vvel_del2            =   0.0000000000000E+00
(PID.TID 0000.0001) %MON dynstat_wvel_max             =   2.5750868661798E-02
(PID.TID 0000.0001) %MON dynstat_wvel_min             =  -2.5750625107599E-02
(PID.TID 0000.0001) %MON dynstat_wvel_mean            =   4.5558394318583E-18
(PID.TID 0000.0001) %MON dynstat_wvel_sd              =   7.2375622358123E-03
(PID.TID 0000.0001) %MON dynstat_wvel_del2            =   5.6239243718268E-07
(PID.TID 0000.0001) %MON dynstat_theta_max            =   1.0000000000000E+01
(PID.TID 0000.0001) %MON dynstat_theta_min            =   1.0000000000000E+01
(PID.TID 0000.0001) %MON dynstat_theta_mean           =   9.9999999999999E+00
(PID.TID 0000.0001) %MON dynstat_theta_sd             =   1.4921397450962E-13
(PID.TID 0000.0001) %MON dynstat_theta_del2           =   0.0000000000000E+00
(PID.TID 0000.0001) %MON dynstat_salt_max             =   3.5000000000000E+01
(PID.TID 0000.0001) %MON dynstat_salt_min             =   3.5000000000000E+01
(PID.TID 0000.0001) %MON dynstat_salt_mean            =   3.5000000000000E+01
(PID.TID 0000.0001) %MON dynstat_salt_sd              =   9.9475983006414E-14
(PID.TID 0000.0001) %MON dynstat_salt_del2            =   0.0000000000000E+00
(PID.TID 0000.0001) %MON advcfl_uvel_max              =   6.2658915557335E-04
(PID.TID 0000.0001) %MON advcfl_vvel_max              =   0.0000000000000E+00
(PID.TID 0000.0001) %MON advcfl_wvel_max              =   1.2875434330899E-03
(PID.TID 0000.0001) %MON advcfl_W_hf_max              =   6.0442487834321E-04
(PID.TID 0000.0001) %MON pe_b_mean                    =   5.5719470483716E-03
(PID.TID 0000.0001) %MON ke_max                       =   3.1378148367973E-04
(PID.TID 0000.0001) %MON ke_mean                      =   5.3052942703070E-05
(PID.TID 0000.0001) %MON ke_vol                       =   2.0000000000000E+01
(PID.TID 0000.0001) // =======================================================
(PID.TID 0000.0001) // End MONITOR dynamic field statistics
(PID.TID 0000.0001) // =======================================================
 cg2d: Sum(rhs),rhsMax =   1.36424205265939E-12  9.54147949227499E+01
(PID.TID 0000.0001)      cg2d_init_res =   4.51013556643225E-01
(PID.TID 0000.0001)      cg2d_iters(min,last) =      -1       4
(PID.TID 0000.0001)      cg2d_last_res =   6.15150070001589E-13
 cg3d: Sum(rhs),rhsMax =  -2.35765115825748E-03  5.88854310916700E-03
(PID.TID 0000.0001)      cg3d_init_res =   1.88165589147882E-04
(PID.TID 0000.0001)      cg3d_iters (last) =                197
(PID.TID 0000.0001)      cg3d_last_res =   4.94756960138462E-14
(PID.TID 0000.0001) // =======================================================
(PID.TID 0000.0001) // Begin MONITOR dynamic field statistics
(PID.TID 0000.0001) // =======================================================
(PID.TID 0000.0001) %MON time_tsnumber                =                    12
(PID.TID 0000.0001) %MON time_secondsf                =   6.0000000000000E-02
(PID.TID 0000.0001) %MON dynstat_eta_max              =   1.4908270265487E-01
(PID.TID 0000.0001) %MON dynstat_eta_min              =  -1.4908269790950E-01
(PID.TID 0000.0001) %MON dynstat_eta_mean             =  -5.2041704279304E-17
(PID.TID 0000.0001) %MON dynstat_eta_sd               =   1.0546943112377E-01
(PID.TID 0000.0001) %MON dynstat_eta_del2             =   5.6463916545185E-05
(PID.TID 0000.0001) %MON dynstat_uvel_max             =   2.7333876071362E-02
(PID.TID 0000.0001) %MON dynstat_uvel_min             =   1.5299826102708E-04
(PID.TID 0000.0001) %MON dynstat_uvel_mean            =   5.8089179958777E-03
(PID.TID 0000.0001) %MON dynstat_uvel_sd              =   5.6651039529047E-03
(PID.TID 0000.0001) %MON dynstat_uvel_del2            =   6.4684481469632E-07
(PID.TID 0000.0001) %MON dynstat_vvel_max             =   0.0000000000000E+00
(PID.TID 0000.0001) %MON dynstat_vvel_min             =   0.0000000000000E+00
(PID.TID 0000.0001) %MON dynstat_vvel_mean            =   0.0000000000000E+00
(PID.TID 0000.0001) %MON dynstat_vvel_sd              =   0.0000000000000E+00
(PID.TID 0000.0001) %MON dynstat_vvel_del2            =   0.0000000000000E+00
(PID.TID 0000.0001) %MON dynstat_wvel_max             =   2.8083461347586E-02
(PID.TID 0000.0001) %MON dynstat_wvel_min             =  -2.8083144873805E-02
(PID.TID 0000.0001) %MON dynstat_wvel_mean            =  -1.4017967482641E-18
(PID.TID 0000.0001) %MON dynstat_wvel_sd              =   7.8931556975814E-03
(PID.TID 0000.0001) %MON dynstat_wvel_del2            =   6.1333511555890E-07
(PID.TID 0000.0001) %MON dynstat_theta_max            =   1.0000000000000E+01
(PID.TID 0000.0001) %MON dynstat_theta_min            =   1.0000000000000E+01
(PID.TID 0000.0001) %MON dynstat_theta_mean           =   9.9999999999999E+00
(PID.TID 0000.0001) %MON dynstat_theta_sd             =   1.4921397450962E-13
(PID.TID 0000.0001) %MON dynstat_theta_del2           =   0.0000000000000E+00
(PID.TID 0000.0001) %MON dynstat_salt_max             =   3.5000000000000E+01
(PID.TID 0000.0001) %MON dynstat_salt_min             =   3.5000000000000E+01
(PID.TID 0000.0001) %MON dynstat_salt_mean            =   3.5000000000000E+01
(PID.TID 0000.0001) %MON dynstat_salt_sd              =   9.9475983006414E-14
(PID.TID 0000.0001) %MON dynstat_salt_del2            =   0.0000000000000E+00
(PID.TID 0000.0001) %MON advcfl_uvel_max              =   6.8334690178405E-04
(PID.TID 0000.0001) %MON advcfl_vvel_max              =   0.0000000000000E+00
(PID.TID 0000.0001) %MON advcfl_wvel_max              =   1.4041730673793E-03
(PID.TID 0000.0001) %MON advcfl_W_hf_max              =   6.5917495470800E-04
(PID.TID 0000.0001) %MON pe_b_mean                    =   5.5619004507860E-03
(PID.TID 0000.0001) %MON ke_max                       =   3.7320238061778E-04
(PID.TID 0000.0001) %MON ke_mean                      =   6.3099540128023E-05
(PID.TID 0000.0001) %MON ke_vol                       =   2.0000000000000E+01
(PID.TID 0000.0001) // =======================================================
(PID.TID 0000.0001) // End MONITOR dynamic field statistics
(PID.TID 0000.0001) // =======================================================
 Compute Stats, Diag. #    23 "ETAN    " (list#  1) Parms "SM      M1      ", vol(  0 )= 2.000E+00
 Compute Stats, Diag. #    24 "ETANSQ  " (list#  1) Parms "SM P    M1      ", vol(  0 )= 2.000E+00
 Compute Stats, Diag. #    25 "DETADT2 " (list#  1) Parms "SM      M1      ", vol(  0 )= 2.000E+00
 Compute Stats, Diag. #    30 "UVEL    " (list#  1) Parms "UUR     MR      ", vol(  0 )= 1.960E+01
 Compute Stats, Diag. #    32 "WVEL    " (list#  1) Parms "WM      LR      ", vol(  0 )= 1.980E+01
 Compute Stats, Diag. #    77 "PHI_NH  " (list#  1) Parms "SMR     MR      ", vol(  0 )= 2.000E+01
(PID.TID 0000.0001) DIAGSTATS_CLOSE_IO: close file: dynStDiag.0000000001.txt , unit=     9
(PID.TID 0000.0001) %CHECKPOINT        12 ckptA
(PID.TID 0000.0001)   Seconds in section "ALL                    [THE_MODEL_MAIN]":
(PID.TID 0000.0001)           User time:   2.7973370051477104
(PID.TID 0000.0001)         System time:   1.2010999955236912E-002
(PID.TID 0000.0001)     Wall clock time:   2.8093860149383545
(PID.TID 0000.0001)          No. starts:           1
(PID.TID 0000.0001)           No. stops:           1
(PID.TID 0000.0001)   Seconds in section "INITIALISE_FIXED       [THE_MODEL_MAIN]":
(PID.TID 0000.0001)           User time:   1.6567000187933445E-002
(PID.TID 0000.0001)         System time:   3.6110000219196081E-003
(PID.TID 0000.0001)     Wall clock time:   2.0179033279418945E-002
(PID.TID 0000.0001)          No. starts:           1
(PID.TID 0000.0001)           No. stops:           1
(PID.TID 0000.0001)   Seconds in section "THE_MAIN_LOOP          [THE_MODEL_MAIN]":
(PID.TID 0000.0001)           User time:   2.7807409986853600
(PID.TID 0000.0001)         System time:   8.3989999257028103E-003
(PID.TID 0000.0001)     Wall clock time:   2.7891850471496582
(PID.TID 0000.0001)          No. starts:           1
(PID.TID 0000.0001)           No. stops:           1
(PID.TID 0000.0001)   Seconds in section "INITIALISE_VARIA    [THE_MAIN_LOOP]":
(PID.TID 0000.0001)           User time:   1.3496000319719315E-002
(PID.TID 0000.0001)         System time:   4.2780002113431692E-003
(PID.TID 0000.0001)     Wall clock time:   1.7775058746337891E-002
(PID.TID 0000.0001)          No. starts:           1
(PID.TID 0000.0001)           No. stops:           1
(PID.TID 0000.0001)   Seconds in section "MAIN LOOP           [THE_MAIN_LOOP]":
(PID.TID 0000.0001)           User time:   2.7672299928963184
(PID.TID 0000.0001)         System time:   4.1190003976225853E-003
(PID.TID 0000.0001)     Wall clock time:   2.7713940143585205
(PID.TID 0000.0001)          No. starts:           1
(PID.TID 0000.0001)           No. stops:           1
(PID.TID 0000.0001)   Seconds in section "MAIN_DO_LOOP        [THE_MAIN_LOOP]":
(PID.TID 0000.0001)           User time:   2.7671828381717205
(PID.TID 0000.0001)         System time:   4.1180001571774483E-003
(PID.TID 0000.0001)     Wall clock time:   2.7713441848754883
(PID.TID 0000.0001)          No. starts:          11
(PID.TID 0000.0001)           No. stops:          11
(PID.TID 0000.0001)   Seconds in section "FORWARD_STEP        [MAIN_DO_LOOP]":
(PID.TID 0000.0001)           User time:   2.7670840807259083
(PID.TID 0000.0001)         System time:   4.1169999167323112E-003
(PID.TID 0000.0001)     Wall clock time:   2.7712459564208984
(PID.TID 0000.0001)          No. starts:          11
(PID.TID 0000.0001)           No. stops:          11
(PID.TID 0000.0001)   Seconds in section "DO_STATEVARS_DIAGS  [FORWARD_STEP]":
(PID.TID 0000.0001)           User time:   1.5806928277015686E-003
(PID.TID 0000.0001)         System time:   1.0200031101703644E-004
(PID.TID 0000.0001)     Wall clock time:   1.6834735870361328E-003
(PID.TID 0000.0001)          No. starts:          22
(PID.TID 0000.0001)           No. stops:          22
(PID.TID 0000.0001)   Seconds in section "LOAD_FIELDS_DRIVER  [FORWARD_STEP]":
(PID.TID 0000.0001)           User time:   1.8816813826560974E-004
(PID.TID 0000.0001)         System time:   4.0000304579734802E-006
(PID.TID 0000.0001)     Wall clock time:   1.9383430480957031E-004
(PID.TID 0000.0001)          No. starts:          11
(PID.TID 0000.0001)           No. stops:          11
(PID.TID 0000.0001)   Seconds in section "EXTERNAL_FLDS_LOAD [LOAD_FLDS_DRIVER]":
(PID.TID 0000.0001)           User time:   5.5070966482162476E-005
(PID.TID 0000.0001)         System time:   2.0004808902740479E-006
(PID.TID 0000.0001)     Wall clock time:   5.3167343139648438E-005
(PID.TID 0000.0001)          No. starts:          11
(PID.TID 0000.0001)           No. stops:          11
(PID.TID 0000.0001)   Seconds in section "DO_ATMOSPHERIC_PHYS [FORWARD_STEP]":
(PID.TID 0000.0001)           User time:   5.2668154239654541E-005
(PID.TID 0000.0001)         System time:   9.9930912256240845E-007
(PID.TID 0000.0001)     Wall clock time:   4.9352645874023438E-005
(PID.TID 0000.0001)          No. starts:          11
(PID.TID 0000.0001)           No. stops:          11
(PID.TID 0000.0001)   Seconds in section "DO_OCEANIC_PHYS     [FORWARD_STEP]":
(PID.TID 0000.0001)           User time:   3.7821941077709198E-003
(PID.TID 0000.0001)         System time:   7.9999677836894989E-005
(PID.TID 0000.0001)     Wall clock time:   3.8650035858154297E-003
(PID.TID 0000.0001)          No. starts:          11
(PID.TID 0000.0001)           No. stops:          11
(PID.TID 0000.0001)   Seconds in section "THERMODYNAMICS      [FORWARD_STEP]":
(PID.TID 0000.0001)           User time:   6.1968415975570679E-003
(PID.TID 0000.0001)         System time:   1.3800058513879776E-004
(PID.TID 0000.0001)     Wall clock time:   6.3357353210449219E-003
(PID.TID 0000.0001)          No. starts:          11
(PID.TID 0000.0001)           No. stops:          11
(PID.TID 0000.0001)   Seconds in section "DYNAMICS            [FORWARD_STEP]":
(PID.TID 0000.0001)           User time:  0.25780005007982254
(PID.TID 0000.0001)         System time:   9.9600013345479965E-004
(PID.TID 0000.0001)     Wall clock time:  0.25881004333496094
(PID.TID 0000.0001)          No. starts:          11
(PID.TID 0000.0001)           No. stops:          11
(PID.TID 0000.0001)   Seconds in section "CALC_GW          [DYNAMICS]":
(PID.TID 0000.0001)           User time:   4.4557571411132812E-002
(PID.TID 0000.0001)         System time:   9.8799914121627808E-004
(PID.TID 0000.0001)     Wall clock time:   4.5530319213867188E-002
(PID.TID 0000.0001)          No. starts:          44
(PID.TID 0000.0001)           No. stops:          44
(PID.TID 0000.0001)   Seconds in section "UPDATE_SURF_DR      [FORWARD_STEP]":
(PID.TID 0000.0001)           User time:   3.3061951398849487E-003
(PID.TID 0000.0001)         System time:   3.1599961221218109E-004
(PID.TID 0000.0001)     Wall clock time:   3.6251544952392578E-003
(PID.TID 0000.0001)          No. starts:          11
(PID.TID 0000.0001)           No. stops:          11
(PID.TID 0000.0001)   Seconds in section "SOLVE_FOR_PRESSURE  [FORWARD_STEP]":
(PID.TID 0000.0001)           User time:   2.4203419275581837
(PID.TID 0000.0001)         System time:   2.4570003151893616E-003
(PID.TID 0000.0001)     Wall clock time:   2.4228320121765137
(PID.TID 0000.0001)          No. starts:          11
(PID.TID 0000.0001)           No. stops:          11
(PID.TID 0000.0001)   Seconds in section "CG3D   [SOLVE_FOR_PRESSURE]":
(PID.TID 0000.0001)           User time:   2.4097167737782001
(PID.TID 0000.0001)         System time:   1.5120003372430801E-003
(PID.TID 0000.0001)     Wall clock time:   2.4112796783447266
(PID.TID 0000.0001)          No. starts:          11
(PID.TID 0000.0001)           No. stops:          11
(PID.TID 0000.0001)   Seconds in section "MOM_CORRECTION_STEP [FORWARD_STEP]":
(PID.TID 0000.0001)           User time:   1.1296004056930542E-002
(PID.TID 0000.0001)         System time:   8.9993700385093689E-006
(PID.TID 0000.0001)     Wall clock time:   1.1308670043945312E-002
(PID.TID 0000.0001)          No. starts:          11
(PID.TID 0000.0001)           No. stops:          11
(PID.TID 0000.0001)   Seconds in section "INTEGR_CONTINUITY   [FORWARD_STEP]":
(PID.TID 0000.0001)           User time:   7.1938633918762207E-003
(PID.TID 0000.0001)         System time:   0.0000000000000000
(PID.TID 0000.0001)     Wall clock time:   7.1966648101806641E-003
(PID.TID 0000.0001)          No. starts:          11
(PID.TID 0000.0001)           No. stops:          11
(PID.TID 0000.0001)   Seconds in section "TRC_CORRECTION_STEP [FORWARD_STEP]":
(PID.TID 0000.0001)           User time:   5.1140785217285156E-005
(PID.TID 0000.0001)         System time:   0.0000000000000000
(PID.TID 0000.0001)     Wall clock time:   5.3405761718750000E-005
(PID.TID 0000.0001)          No. starts:          11
(PID.TID 0000.0001)           No. stops:          11
(PID.TID 0000.0001)   Seconds in section "BLOCKING_EXCHANGES  [FORWARD_STEP]":
(PID.TID 0000.0001)           User time:   2.1213233470916748E-002
(PID.TID 0000.0001)         System time:   0.0000000000000000
(PID.TID 0000.0001)     Wall clock time:   2.1216154098510742E-002
(PID.TID 0000.0001)          No. starts:          11
(PID.TID 0000.0001)           No. stops:          11
(PID.TID 0000.0001)   Seconds in section "MONITOR             [FORWARD_STEP]":
(PID.TID 0000.0001)           User time:   2.7486115694046021E-002
(PID.TID 0000.0001)         System time:   0.0000000000000000
(PID.TID 0000.0001)     Wall clock time:   2.7493476867675781E-002
(PID.TID 0000.0001)          No. starts:          11
(PID.TID 0000.0001)           No. stops:          11
(PID.TID 0000.0001)   Seconds in section "DO_THE_MODEL_IO     [FORWARD_STEP]":
(PID.TID 0000.0001)           User time:   3.9460361003875732E-003
(PID.TID 0000.0001)         System time:   0.0000000000000000
(PID.TID 0000.0001)     Wall clock time:   3.9460659027099609E-003
(PID.TID 0000.0001)          No. starts:          11
(PID.TID 0000.0001)           No. stops:          11
(PID.TID 0000.0001)   Seconds in section "DO_WRITE_PICKUP     [FORWARD_STEP]":
(PID.TID 0000.0001)           User time:   1.7787218093872070E-003
(PID.TID 0000.0001)         System time:   0.0000000000000000
(PID.TID 0000.0001)     Wall clock time:   1.7778873443603516E-003
(PID.TID 0000.0001)          No. starts:          11
(PID.TID 0000.0001)           No. stops:          11
(PID.TID 0000.0001) // ======================================================
(PID.TID 0000.0001) // Tile <-> Tile communication statistics
(PID.TID 0000.0001) // ======================================================
(PID.TID 0000.0001) // o Tile number: 000001
(PID.TID 0000.0001) //         No. X exchanges =              0
(PID.TID 0000.0001) //            Max. X spins =              0
(PID.TID 0000.0001) //            Min. X spins =     1000000000
(PID.TID 0000.0001) //          Total. X spins =              0
(PID.TID 0000.0001) //            Avg. X spins =       0.00E+00
(PID.TID 0000.0001) //         No. Y exchanges =              0
(PID.TID 0000.0001) //            Max. Y spins =              0
(PID.TID 0000.0001) //            Min. Y spins =     1000000000
(PID.TID 0000.0001) //          Total. Y spins =              0
(PID.TID 0000.0001) //            Avg. Y spins =       0.00E+00
(PID.TID 0000.0001) // o Tile number: 000002
(PID.TID 0000.0001) //         No. X exchanges =              0
(PID.TID 0000.0001) //            Max. X spins =              0
(PID.TID 0000.0001) //            Min. X spins =     1000000000
(PID.TID 0000.0001) //          Total. X spins =              0
(PID.TID 0000.0001) //            Avg. X spins =       0.00E+00
(PID.TID 0000.0001) //         No. Y exchanges =              0
(PID.TID 0000.0001) //            Max. Y spins =              0
(PID.TID 0000.0001) //            Min. Y spins =     1000000000
(PID.TID 0000.0001) //          Total. Y spins =              0
(PID.TID 0000.0001) //            Avg. Y spins =       0.00E+00
(PID.TID 0000.0001) // o Tile number: 000003
(PID.TID 0000.0001) //         No. X exchanges =              0
(PID.TID 0000.0001) //            Max. X spins =              0
(PID.TID 0000.0001) //            Min. X spins =     1000000000
(PID.TID 0000.0001) //          Total. X spins =              0
(PID.TID 0000.0001) //            Avg. X spins =       0.00E+00
(PID.TID 0000.0001) //         No. Y exchanges =              0
(PID.TID 0000.0001) //            Max. Y spins =              0
(PID.TID 0000.0001) //            Min. Y spins =     1000000000
(PID.TID 0000.0001) //          Total. Y spins =              0
(PID.TID 0000.0001) //            Avg. Y spins =       0.00E+00
(PID.TID 0000.0001) // o Tile number: 000004
(PID.TID 0000.0001) //         No. X exchanges =              0
(PID.TID 0000.0001) //            Max. X spins =              0
(PID.TID 0000.0001) //            Min. X spins =     1000000000
(PID.TID 0000.0001) //          Total. X spins =              0
(PID.TID 0000.0001) //            Avg. X spins =       0.00E+00
(PID.TID 0000.0001) //         No. Y exchanges =              0
(PID.TID 0000.0001) //            Max. Y spins =              0
(PID.TID 0000.0001) //            Min. Y spins =     1000000000
(PID.TID 0000.0001) //          Total. Y spins =              0
(PID.TID 0000.0001) //            Avg. Y spins =       0.00E+00
(PID.TID 0000.0001) // o Thread number: 000001
(PID.TID 0000.0001) //            No. barriers =          19496
(PID.TID 0000.0001) //      Max. barrier spins =              1
(PID.TID 0000.0001) //      Min. barrier spins =              1
(PID.TID 0000.0001) //     Total barrier spins =          19496
(PID.TID 0000.0001) //      Avg. barrier spins =       1.00E+00
PROGRAM MAIN: Execution ended Normally
