(PID.TID 0000.0001) 
(PID.TID 0000.0001) // ======================================================
(PID.TID 0000.0001) //                      MITgcm UV
(PID.TID 0000.0001) //                      =========
(PID.TID 0000.0001) // ======================================================
(PID.TID 0000.0001) // execution environment starting up...
(PID.TID 0000.0001) 
(PID.TID 0000.0001) // MITgcmUV version:  checkpoint68s
(PID.TID 0000.0001) // Build user:        shreyas
(PID.TID 0000.0001) // Build host:        sverdrup.ices.utexas.edu
(PID.TID 0000.0001) // Build date:        Wed Oct 18 16:53:02 CDT 2023
(PID.TID 0000.0001) 
(PID.TID 0000.0001) // =======================================================
(PID.TID 0000.0001) // Execution Environment parameter file "eedata"
(PID.TID 0000.0001) // =======================================================
(PID.TID 0000.0001) ># Example "eedata" file
(PID.TID 0000.0001) ># Lines beginning "#" are comments
(PID.TID 0000.0001) >#  nTx      :: No. threads per process in X
(PID.TID 0000.0001) >#  nTy      :: No. threads per process in Y
(PID.TID 0000.0001) ># debugMode :: print debug msg (sequence of S/R calls)
(PID.TID 0000.0001) > &EEPARMS
(PID.TID 0000.0001) > nTx=1,
(PID.TID 0000.0001) > nTy=1,
(PID.TID 0000.0001) > &
(PID.TID 0000.0001) ># Note: Some systems use & as the namelist terminator (as shown here).
(PID.TID 0000.0001) >#       Other systems use a / character.
(PID.TID 0000.0001) 
(PID.TID 0000.0001) // =======================================================
(PID.TID 0000.0001) // Computational Grid Specification ( see files "SIZE.h" )
(PID.TID 0000.0001) //                                  ( and "eedata"       )
(PID.TID 0000.0001) // =======================================================
(PID.TID 0000.0001)      nPx =    1 ; /* No. processes in X */
(PID.TID 0000.0001)      nPy =    1 ; /* No. processes in Y */
(PID.TID 0000.0001)      nSx =    2 ; /* No. tiles in X per process */
(PID.TID 0000.0001)      nSy =    2 ; /* No. tiles in Y per process */
(PID.TID 0000.0001)      sNx =   31 ; /* Tile size in X */
(PID.TID 0000.0001)      sNy =   31 ; /* Tile size in Y */
(PID.TID 0000.0001)      OLx =    2 ; /* Tile overlap distance in X */
(PID.TID 0000.0001)      OLy =    2 ; /* Tile overlap distance in Y */
(PID.TID 0000.0001)      nTx =    1 ; /* No. threads in X per process */
(PID.TID 0000.0001)      nTy =    1 ; /* No. threads in Y per process */
(PID.TID 0000.0001)       Nr =   15 ; /* No. levels in the vertical   */
(PID.TID 0000.0001)       Nx =   62 ; /* Total domain size in X ( = nPx*nSx*sNx ) */
(PID.TID 0000.0001)       Ny =   62 ; /* Total domain size in Y ( = nPy*nSy*sNy ) */
(PID.TID 0000.0001)   nTiles =    4 ; /* Total no. tiles per process ( = nSx*nSy ) */
(PID.TID 0000.0001)   nProcs =    1 ; /* Total no. processes ( = nPx*nPy ) */
(PID.TID 0000.0001) nThreads =    1 ; /* Total no. threads per process ( = nTx*nTy ) */
(PID.TID 0000.0001) usingMPI =    F ; /* Flag used to control whether MPI is in use */
(PID.TID 0000.0001)                   /*  note: To execute a program with MPI calls */
(PID.TID 0000.0001)                   /*  it must be launched appropriately e.g     */
(PID.TID 0000.0001)                   /*  "mpirun -np 64 ......"                    */
(PID.TID 0000.0001) useCoupler=   F ; /* Flag used to control communications with   */
(PID.TID 0000.0001)                   /*  other model components, through a coupler */
(PID.TID 0000.0001) useNest2W_parent =    F ;/* Control 2-W Nesting comm */
(PID.TID 0000.0001) useNest2W_child  =    F ;/* Control 2-W Nesting comm */
(PID.TID 0000.0001) debugMode =    F ; /* print debug msg. (sequence of S/R calls)  */
(PID.TID 0000.0001) printMapIncludesZeros=    F ; /* print zeros in Std.Output maps */
(PID.TID 0000.0001) maxLengthPrt1D=   65 /* maxLength of 1D array printed to StdOut */
(PID.TID 0000.0001) 
(PID.TID 0000.0001) // ======================================================
(PID.TID 0000.0001) // Mapping of tiles to threads
(PID.TID 0000.0001) // ======================================================
(PID.TID 0000.0001) // -o- Thread   1, tiles (   1:   2,   1:   2)
(PID.TID 0000.0001) 
(PID.TID 0000.0001) // ======================================================
(PID.TID 0000.0001) // Tile <-> Tile connectvity table
(PID.TID 0000.0001) // ======================================================
(PID.TID 0000.0001) // Tile number: 000001 (process no. = 000000)
(PID.TID 0000.0001) //        WEST: Tile = 000002, Process = 000000, Comm = put
(PID.TID 0000.0001) //                bi = 000002, bj = 000001
(PID.TID 0000.0001) //        EAST: Tile = 000002, Process = 000000, Comm = put
(PID.TID 0000.0001) //                bi = 000002, bj = 000001
(PID.TID 0000.0001) //       SOUTH: Tile = 000003, Process = 000000, Comm = put
(PID.TID 0000.0001) //                bi = 000001, bj = 000002
(PID.TID 0000.0001) //       NORTH: Tile = 000003, Process = 000000, Comm = put
(PID.TID 0000.0001) //                bi = 000001, bj = 000002
(PID.TID 0000.0001) // Tile number: 000002 (process no. = 000000)
(PID.TID 0000.0001) //        WEST: Tile = 000001, Process = 000000, Comm = put
(PID.TID 0000.0001) //                bi = 000001, bj = 000001
(PID.TID 0000.0001) //        EAST: Tile = 000001, Process = 000000, Comm = put
(PID.TID 0000.0001) //                bi = 000001, bj = 000001
(PID.TID 0000.0001) //       SOUTH: Tile = 000004, Process = 000000, Comm = put
(PID.TID 0000.0001) //                bi = 000002, bj = 000002
(PID.TID 0000.0001) //       NORTH: Tile = 000004, Process = 000000, Comm = put
(PID.TID 0000.0001) //                bi = 000002, bj = 000002
(PID.TID 0000.0001) // Tile number: 000003 (process no. = 000000)
(PID.TID 0000.0001) //        WEST: Tile = 000004, Process = 000000, Comm = put
(PID.TID 0000.0001) //                bi = 000002, bj = 000002
(PID.TID 0000.0001) //        EAST: Tile = 000004, Process = 000000, Comm = put
(PID.TID 0000.0001) //                bi = 000002, bj = 000002
(PID.TID 0000.0001) //       SOUTH: Tile = 000001, Process = 000000, Comm = put
(PID.TID 0000.0001) //                bi = 000001, bj = 000001
(PID.TID 0000.0001) //       NORTH: Tile = 000001, Process = 000000, Comm = put
(PID.TID 0000.0001) //                bi = 000001, bj = 000001
(PID.TID 0000.0001) // Tile number: 000004 (process no. = 000000)
(PID.TID 0000.0001) //        WEST: Tile = 000003, Process = 000000, Comm = put
(PID.TID 0000.0001) //                bi = 000001, bj = 000002
(PID.TID 0000.0001) //        EAST: Tile = 000003, Process = 000000, Comm = put
(PID.TID 0000.0001) //                bi = 000001, bj = 000002
(PID.TID 0000.0001) //       SOUTH: Tile = 000002, Process = 000000, Comm = put
(PID.TID 0000.0001) //                bi = 000002, bj = 000001
(PID.TID 0000.0001) //       NORTH: Tile = 000002, Process = 000000, Comm = put
(PID.TID 0000.0001) //                bi = 000002, bj = 000001
(PID.TID 0000.0001) 
(PID.TID 0000.0001)  INI_PARMS: opening model parameter file "data"
(PID.TID 0000.0001)  OPEN_COPY_DATA_FILE: opening file data
(PID.TID 0000.0001) // =======================================================
(PID.TID 0000.0001) // Parameter file "data"
(PID.TID 0000.0001) // =======================================================
(PID.TID 0000.0001) ># Model parameters
(PID.TID 0000.0001) ># Continuous equation parameters
(PID.TID 0000.0001) > &PARM01
(PID.TID 0000.0001) > viscAh=5000.,
(PID.TID 0000.0001) > viscAr=1.E-2,
(PID.TID 0000.0001) > no_slip_sides=.TRUE.,
(PID.TID 0000.0001) > no_slip_bottom=.FALSE.,
(PID.TID 0000.0001) > diffKhT=1000.,
(PID.TID 0000.0001) > diffKrT=1.E-5,
(PID.TID 0000.0001) > ivdc_kappa=1.,
(PID.TID 0000.0001) > implicitDiffusion=.TRUE.,
(PID.TID 0000.0001) > eosType='LINEAR',
(PID.TID 0000.0001) > tRef=30.,27.,24.,21.,18.,15.,13.,11.,9.,7.,6.,5.,4.,3.,2.,
(PID.TID 0000.0001) > tAlpha=2.E-4,
(PID.TID 0000.0001) > sBeta=0.,
(PID.TID 0000.0001) > rhoNil=999.8,
(PID.TID 0000.0001) > gravity=9.81,
(PID.TID 0000.0001) > rigidLid=.FALSE.,
(PID.TID 0000.0001) > implicitFreeSurface=.TRUE.,
(PID.TID 0000.0001) > exactConserv=.TRUE.,
(PID.TID 0000.0001) > saltStepping=.FALSE.,
(PID.TID 0000.0001) ># globalFiles=.TRUE.,
(PID.TID 0000.0001) > &
(PID.TID 0000.0001) >
(PID.TID 0000.0001) ># Elliptic solver parameters
(PID.TID 0000.0001) > &PARM02
(PID.TID 0000.0001) > cg2dTargetResidual=1.E-7,
(PID.TID 0000.0001) > cg2dMaxIters=1000,
(PID.TID 0000.0001) > &
(PID.TID 0000.0001) >
(PID.TID 0000.0001) ># Time stepping parameters
(PID.TID 0000.0001) > &PARM03
(PID.TID 0000.0001) > startTime=0.,
(PID.TID 0000.0001) > endTime=12000.,
(PID.TID 0000.0001) > deltaT=1200.,
(PID.TID 0000.0001) > pChkptFreq=622080000.,
(PID.TID 0000.0001) > chkptFreq=155520000.,
(PID.TID 0000.0001) > dumpFreq=31104000.,
(PID.TID 0000.0001) > monitorFreq=1200.,
(PID.TID 0000.0001) > monitorSelect=2,
(PID.TID 0000.0001) > tauThetaClimRelax=2592000.,
(PID.TID 0000.0001) >#-for longer run (100 yrs)
(PID.TID 0000.0001) ># endTime = 3110400000.,
(PID.TID 0000.0001) ># monitorFreq=2592000.,
(PID.TID 0000.0001) > &
(PID.TID 0000.0001) >
(PID.TID 0000.0001) ># Gridding parameters
(PID.TID 0000.0001) > &PARM04
(PID.TID 0000.0001) > usingSphericalPolarGrid=.TRUE.,
(PID.TID 0000.0001) > delX=62*1.,
(PID.TID 0000.0001) > delY=62*1.,
(PID.TID 0000.0001) > xgOrigin=-1.,
(PID.TID 0000.0001) > ygOrigin=14.,
(PID.TID 0000.0001) > delR=50.,60.,70.,80.,90.,100.,110.,120.,130.,140.,150.,160.,170.,180.,190.,
(PID.TID 0000.0001) > &
(PID.TID 0000.0001) >
(PID.TID 0000.0001) > &PARM05
(PID.TID 0000.0001) > bathyFile='bathy.bin',
(PID.TID 0000.0001) > zonalWindFile='windx_cosy.bin',
(PID.TID 0000.0001) > thetaClimFile='SST_relax.bin',
(PID.TID 0000.0001) > &
(PID.TID 0000.0001) 
(PID.TID 0000.0001)  INI_PARMS ; starts to read PARM01
(PID.TID 0000.0001)  INI_PARMS ; read PARM01 : OK
(PID.TID 0000.0001)  INI_PARMS ; starts to read PARM02
(PID.TID 0000.0001)  INI_PARMS ; read PARM02 : OK
(PID.TID 0000.0001)  INI_PARMS ; starts to read PARM03
(PID.TID 0000.0001)  INI_PARMS ; read PARM03 : OK
(PID.TID 0000.0001)  INI_PARMS ; starts to read PARM04
(PID.TID 0000.0001)  INI_PARMS ; read PARM04 : OK
(PID.TID 0000.0001)  INI_PARMS ; starts to read PARM05
(PID.TID 0000.0001)  INI_PARMS ; read PARM05 : OK
(PID.TID 0000.0001)  INI_PARMS: finished reading file "data"
(PID.TID 0000.0001)  PACKAGES_BOOT: opening data.pkg
(PID.TID 0000.0001)  OPEN_COPY_DATA_FILE: opening file data.pkg
(PID.TID 0000.0001) // =======================================================
(PID.TID 0000.0001) // Parameter file "data.pkg"
(PID.TID 0000.0001) // =======================================================
(PID.TID 0000.0001) ># Packages (lines beginning "#" are comments)
(PID.TID 0000.0001) > &PACKAGES
(PID.TID 0000.0001) > useMNC=.TRUE.,
(PID.TID 0000.0001) > useDiagnostics=.TRUE.,
(PID.TID 0000.0001) > useGrdchk      = .TRUE.,
(PID.TID 0000.0001) > &
(PID.TID 0000.0001) 
(PID.TID 0000.0001)  PACKAGES_BOOT: finished reading data.pkg
(PID.TID 0000.0001)  PACKAGES_BOOT: On/Off package Summary
 --------  pkgs with a standard "usePKG" On/Off switch in "data.pkg":  --------
 pkg/autodiff             compiled   and   used ( useAUTODIFF              = T )
 pkg/grdchk               compiled   and   used ( useGrdchk                = T )
 pkg/ctrl                 compiled   and   used ( useCTRL                  = T )
 pkg/diagnostics          compiled   and   used ( useDiagnostics           = T )
 -------- pkgs without standard "usePKG" On/Off switch in "data.pkg":  --------
 pkg/generic_advdiff      compiled   and   used ( useGAD                   = T )
 pkg/mom_common           compiled   and   used ( momStepping              = T )
 pkg/mom_vecinv           compiled but not used ( +vectorInvariantMomentum = F )
 pkg/mom_fluxform         compiled   and   used ( & not vectorInvariantMom = T )
 pkg/monitor              compiled   and   used ( monitorFreq > 0.         = T )
 pkg/debug                compiled but not used ( debugMode                = F )
 pkg/rw                   compiled   and   used
 pkg/mdsio                compiled   and   used
 pkg/autodiff             compiled   and   used
 pkg/cost                 compiled   and   used
(PID.TID 0000.0001)  PACKAGES_BOOT: End of package Summary
(PID.TID 0000.0001) 
(PID.TID 0000.0001) AUTODIFF_READPARMS: opening data.autodiff
(PID.TID 0000.0001)  OPEN_COPY_DATA_FILE: opening file data.autodiff
(PID.TID 0000.0001) // =======================================================
(PID.TID 0000.0001) // Parameter file "data.autodiff"
(PID.TID 0000.0001) // =======================================================
(PID.TID 0000.0001) ># =========================
(PID.TID 0000.0001) ># pkg AUTODIFF parameters :
(PID.TID 0000.0001) ># =========================
(PID.TID 0000.0001) >#  inAdExact :: get an exact adjoint (no approximation) (def=.True.)
(PID.TID 0000.0001) >#
(PID.TID 0000.0001) > &AUTODIFF_PARM01
(PID.TID 0000.0001) ># inAdExact = .FALSE.,
(PID.TID 0000.0001) ># useKPPinAdMode = .FALSE.,
(PID.TID 0000.0001) ># useGMRediInAdMode = .FALSE.,
(PID.TID 0000.0001) > &
(PID.TID 0000.0001) 
(PID.TID 0000.0001) AUTODIFF_READPARMS: finished reading data.autodiff
(PID.TID 0000.0001) // ===================================
(PID.TID 0000.0001) // AUTODIFF parameters :
(PID.TID 0000.0001) // ===================================
(PID.TID 0000.0001) inAdExact = /* get an exact adjoint (no approximation) */
(PID.TID 0000.0001)                   T
(PID.TID 0000.0001)     ;
(PID.TID 0000.0001) useApproxAdvectionInAdMode = /* approximate AD-advection */
(PID.TID 0000.0001)                   F
(PID.TID 0000.0001)     ;
(PID.TID 0000.0001) cg2dFullAdjoint = /* use full hand written cg2d adjoint (no approximation) */
(PID.TID 0000.0001)                   F
(PID.TID 0000.0001)     ;
(PID.TID 0000.0001) useKPPinAdMode = /* use KPP in adjoint mode */
(PID.TID 0000.0001)                   F
(PID.TID 0000.0001)     ;
(PID.TID 0000.0001) useGMRediInAdMode = /* use GMRedi in adjoint mode */
(PID.TID 0000.0001)                   F
(PID.TID 0000.0001)     ;
(PID.TID 0000.0001) useSEAICEinAdMode = /* use SEAICE in adjoint mode */
(PID.TID 0000.0001)                   F
(PID.TID 0000.0001)     ;
(PID.TID 0000.0001) useGGL90inAdMode = /* use GGL90 in adjoint mode */
(PID.TID 0000.0001)                   F
(PID.TID 0000.0001)     ;
(PID.TID 0000.0001) useSALT_PLUMEinAdMode = /* use SALT_PLUME in adjoint mode */
(PID.TID 0000.0001)                   F
(PID.TID 0000.0001)     ;
(PID.TID 0000.0001) dumpAdVarExch = /* control adexch before dumpinp */
(PID.TID 0000.0001)                       2
(PID.TID 0000.0001)     ;
(PID.TID 0000.0001) mon_AdVarExch = /* control adexch before monitor */
(PID.TID 0000.0001)                       2
(PID.TID 0000.0001)     ;
(PID.TID 0000.0001) viscFacInFw = /* viscosity factor for forward model */
(PID.TID 0000.0001)                 1.000000000000000E+00
(PID.TID 0000.0001)     ;
(PID.TID 0000.0001) viscFacInAd = /* viscosity factor for adjoint */
(PID.TID 0000.0001)                 1.000000000000000E+00
(PID.TID 0000.0001)     ;
(PID.TID 0000.0001) SIregFacInAd = /* sea ice factor for adjoint model */
(PID.TID 0000.0001)                 1.234567000000000E+05
(PID.TID 0000.0001)     ;
(PID.TID 0000.0001) SIregFacInFw = /* sea ice factor for forward model */
(PID.TID 0000.0001)                 1.234567000000000E+05
(PID.TID 0000.0001)     ;
(PID.TID 0000.0001) 
(PID.TID 0000.0001) OPTIM_READPARMS: opening data.optim
(PID.TID 0000.0001)  OPEN_COPY_DATA_FILE: opening file data.optim
(PID.TID 0000.0001) // =======================================================
(PID.TID 0000.0001) // Parameter file "data.optim"
(PID.TID 0000.0001) // =======================================================
(PID.TID 0000.0001) >#
(PID.TID 0000.0001) ># ********************************
(PID.TID 0000.0001) ># Off-line optimization parameters
(PID.TID 0000.0001) ># ********************************
(PID.TID 0000.0001) > &OPTIM
(PID.TID 0000.0001) > optimcycle=0,
(PID.TID 0000.0001) > &
(PID.TID 0000.0001) 
(PID.TID 0000.0001) OPTIM_READPARMS: finished reading data.optim
(PID.TID 0000.0001) CTRL_READPARMS: opening data.ctrl
(PID.TID 0000.0001)  OPEN_COPY_DATA_FILE: opening file data.ctrl
(PID.TID 0000.0001) // =======================================================
(PID.TID 0000.0001) // Parameter file "data.ctrl"
(PID.TID 0000.0001) // =======================================================
(PID.TID 0000.0001) ># *********************
(PID.TID 0000.0001) ># ECCO controlvariables
(PID.TID 0000.0001) ># *********************
(PID.TID 0000.0001) > &CTRL_NML
(PID.TID 0000.0001) ># doSinglePrecTapelev=.TRUE.,
(PID.TID 0000.0001) > &
(PID.TID 0000.0001) >#
(PID.TID 0000.0001) ># *********************
(PID.TID 0000.0001) ># names for ctrl_pack/unpack
(PID.TID 0000.0001) ># *********************
(PID.TID 0000.0001) > &CTRL_PACKNAMES
(PID.TID 0000.0001) > &
(PID.TID 0000.0001) >#
(PID.TID 0000.0001) ># *********************
(PID.TID 0000.0001) ># names for CTRL_GENARR, CTRL_GENTIM
(PID.TID 0000.0001) ># *********************
(PID.TID 0000.0001) > &CTRL_NML_GENARR
(PID.TID 0000.0001) > xx_genarr3d_file(1)       = 'xx_theta',
(PID.TID 0000.0001) > xx_genarr3d_weight(1)     = 'ones_64b.bin',
(PID.TID 0000.0001) > xx_genarr3d_bounds(1:5,1) = -2.,-1.9,39.,40.,5.,
(PID.TID 0000.0001) >#
(PID.TID 0000.0001) > xx_genarr3d_file(2)       = 'xx_salt',
(PID.TID 0000.0001) > xx_genarr3d_weight(2)     = 'ones_64b.bin',
(PID.TID 0000.0001) > xx_genarr3d_bounds(1:5,2) = 29.,29.5,40.5,41.,5.,
(PID.TID 0000.0001) >#
(PID.TID 0000.0001) > &
(PID.TID 0000.0001) 
(PID.TID 0000.0001) CTRL_READPARMS: finished reading data.ctrl
(PID.TID 0000.0001) read-write ctrl files from current run directory
(PID.TID 0000.0001) COST_READPARMS: opening data.cost
(PID.TID 0000.0001)  OPEN_COPY_DATA_FILE: opening file data.cost
(PID.TID 0000.0001) // =======================================================
(PID.TID 0000.0001) // Parameter file "data.cost"
(PID.TID 0000.0001) // =======================================================
(PID.TID 0000.0001) >#
(PID.TID 0000.0001) >#
(PID.TID 0000.0001) ># ******************
(PID.TID 0000.0001) ># cost function
(PID.TID 0000.0001) ># ******************
(PID.TID 0000.0001) > &COST_NML
(PID.TID 0000.0001) >  mult_test = 1.,
(PID.TID 0000.0001) > &
(PID.TID 0000.0001) 
(PID.TID 0000.0001) COST_READPARMS: finished reading data.cost
(PID.TID 0000.0001) GRDCHK_READPARMS: opening data.grdchk
(PID.TID 0000.0001)  OPEN_COPY_DATA_FILE: opening file data.grdchk
(PID.TID 0000.0001) // =======================================================
(PID.TID 0000.0001) // Parameter file "data.grdchk"
(PID.TID 0000.0001) // =======================================================
(PID.TID 0000.0001) >
(PID.TID 0000.0001) ># *******************
(PID.TID 0000.0001) ># ECCO gradient check
(PID.TID 0000.0001) ># *******************
(PID.TID 0000.0001) > &GRDCHK_NML
(PID.TID 0000.0001) > grdchk_eps       = 1.,
(PID.TID 0000.0001) ># nbeg             = 4,
(PID.TID 0000.0001) > iGloPos          = 4,
(PID.TID 0000.0001) > jGloPos          = 8,
(PID.TID 0000.0001) > kGloPos          = 1,
(PID.TID 0000.0001) > nstep            = 1,
(PID.TID 0000.0001) > nend             = 4,
(PID.TID 0000.0001) > grdchkvarindex   = 201,
(PID.TID 0000.0001) > &
(PID.TID 0000.0001) 
(PID.TID 0000.0001) GRDCHK_READPARMS: finished reading data.grdchk
(PID.TID 0000.0001) 
(PID.TID 0000.0001) // =======================================================
(PID.TID 0000.0001) // Gradient check configuration  >>> START <<<
(PID.TID 0000.0001) // =======================================================
(PID.TID 0000.0001) 
(PID.TID 0000.0001)   grdchkvarindex :                        201
(PID.TID 0000.0001)   eps:                              0.100E+01
(PID.TID 0000.0001)   First location:                           0
(PID.TID 0000.0001)   Last location:                            4
(PID.TID 0000.0001)   Increment:                                1
(PID.TID 0000.0001)   grdchkWhichProc:                          0
(PID.TID 0000.0001)   iLocTile =       1  ,    jLocTile =       1
(PID.TID 0000.0001) 
(PID.TID 0000.0001) // =======================================================
(PID.TID 0000.0001) // Gradient check configuration  >>> END <<<
(PID.TID 0000.0001) // =======================================================
(PID.TID 0000.0001) 
(PID.TID 0000.0001)  DIAGNOSTICS_READPARMS: opening data.diagnostics
(PID.TID 0000.0001)  OPEN_COPY_DATA_FILE: opening file data.diagnostics
(PID.TID 0000.0001) // =======================================================
(PID.TID 0000.0001) // Parameter file "data.diagnostics"
(PID.TID 0000.0001) // =======================================================
(PID.TID 0000.0001) ># Diagnostic Package Choices
(PID.TID 0000.0001) >#--------------------
(PID.TID 0000.0001) >#  dumpAtLast (logical): always write output at the end of simulation (default=F)
(PID.TID 0000.0001) >#  diag_mnc   (logical): write to NetCDF files (default=useMNC)
(PID.TID 0000.0001) >#--for each output-stream:
(PID.TID 0000.0001) >#  fileName(n) : prefix of the output file name (max 80c long) for outp.stream n
(PID.TID 0000.0001) >#  frequency(n):< 0 : write snap-shot output every |frequency| seconds
(PID.TID 0000.0001) >#               > 0 : write time-average output every frequency seconds
(PID.TID 0000.0001) >#  timePhase(n)     : write at time = timePhase + multiple of |frequency|
(PID.TID 0000.0001) >#    averagingFreq  : frequency (in s) for periodic averaging interval
(PID.TID 0000.0001) >#    averagingPhase : phase     (in s) for periodic averaging interval
(PID.TID 0000.0001) >#    repeatCycle    : number of averaging intervals in 1 cycle
(PID.TID 0000.0001) >#  levels(:,n) : list of levels to write to file (Notes: declared as REAL)
(PID.TID 0000.0001) >#                when this entry is missing, select all common levels of this list
(PID.TID 0000.0001) >#  fields(:,n) : list of selected diagnostics fields (8.c) in outp.stream n
(PID.TID 0000.0001) >#                (see "available_diagnostics.log" file for the full list of diags)
(PID.TID 0000.0001) >#  missing_value(n) : missing value for real-type fields in output file "n"
(PID.TID 0000.0001) >#  fileFlags(n)     : specific code (8c string) for output file "n"
(PID.TID 0000.0001) >#--------------------
(PID.TID 0000.0001) > &DIAGNOSTICS_LIST
(PID.TID 0000.0001) >  fields(1:3,1)  = 'ETAN    ','TRELAX  ','MXLDEPTH',
(PID.TID 0000.0001) >  fileName(1) = 'surfDiag',
(PID.TID 0000.0001) >  frequency(1) = 31104000.,
(PID.TID 0000.0001) >
(PID.TID 0000.0001) >  fields(1:5,2)  = 'THETA   ','PHIHYD  ',
(PID.TID 0000.0001) >                   'UVEL    ','VVEL    ','WVEL    ',
(PID.TID 0000.0001) ># did not specify levels => all levels are selected
(PID.TID 0000.0001) >   fileName(2) = 'dynDiag',
(PID.TID 0000.0001) >  frequency(2) = 31104000.,
(PID.TID 0000.0001) > &
(PID.TID 0000.0001) >
(PID.TID 0000.0001) >#--------------------
(PID.TID 0000.0001) ># Parameter for Diagnostics of per level statistics:
(PID.TID 0000.0001) >#--------------------
(PID.TID 0000.0001) >#  diagSt_mnc (logical): write stat-diags to NetCDF files (default=diag_mnc)
(PID.TID 0000.0001) >#  diagSt_regMaskFile : file containing the region-mask to read-in
(PID.TID 0000.0001) >#  nSetRegMskFile   : number of region-mask sets within the region-mask file
(PID.TID 0000.0001) >#  set_regMask(i)   : region-mask set-index that identifies the region "i"
(PID.TID 0000.0001) >#  val_regMask(i)   : region "i" identifier value in the region mask
(PID.TID 0000.0001) >#--for each output-stream:
(PID.TID 0000.0001) >#  stat_fName(n) : prefix of the output file name (max 80c long) for outp.stream n
(PID.TID 0000.0001) >#  stat_freq(n):< 0 : write snap-shot output every |stat_freq| seconds
(PID.TID 0000.0001) >#               > 0 : write time-average output every stat_freq seconds
(PID.TID 0000.0001) >#  stat_phase(n)    : write at time = stat_phase + multiple of |stat_freq|
(PID.TID 0000.0001) >#  stat_region(:,n) : list of "regions" (default: 1 region only=global)
(PID.TID 0000.0001) >#  stat_fields(:,n) : list of selected diagnostics fields (8.c) in outp.stream n
(PID.TID 0000.0001) >#                (see "available_diagnostics.log" file for the full list of diags)
(PID.TID 0000.0001) >#--------------------
(PID.TID 0000.0001) > &DIAG_STATIS_PARMS
(PID.TID 0000.0001) >  stat_fields(1:2,1) = 'THETA   ','TRELAX  ',
(PID.TID 0000.0001) >  stat_fName(1) = 'dynStDiag',
(PID.TID 0000.0001) >  stat_freq(1) = 2592000.,
(PID.TID 0000.0001) > &
(PID.TID 0000.0001) 
(PID.TID 0000.0001) S/R DIAGNOSTICS_READPARMS, read namelist "diagnostics_list": start
(PID.TID 0000.0001) S/R DIAGNOSTICS_READPARMS, read namelist "diagnostics_list": OK
(PID.TID 0000.0001) S/R DIAGNOSTICS_READPARMS, read namelist "DIAG_STATIS_PARMS": start
(PID.TID 0000.0001) S/R DIAGNOSTICS_READPARMS, read namelist "DIAG_STATIS_PARMS": OK
(PID.TID 0000.0001)  DIAGNOSTICS_READPARMS: global parameter summary:
(PID.TID 0000.0001)  dumpAtLast = /* always write time-ave diags at the end */
(PID.TID 0000.0001)                   F
(PID.TID 0000.0001)     ;
(PID.TID 0000.0001)  diag_mnc =   /* write NetCDF output files */
(PID.TID 0000.0001)                   F
(PID.TID 0000.0001)     ;
(PID.TID 0000.0001)  useMissingValue = /* put MissingValue where mask = 0 */
(PID.TID 0000.0001)                   F
(PID.TID 0000.0001)     ;
(PID.TID 0000.0001)  diagCG_maxIters = /* max number of iters in diag_cg2d */
(PID.TID 0000.0001)                    1000
(PID.TID 0000.0001)     ;
(PID.TID 0000.0001)  diagCG_resTarget = /* residual target for diag_cg2d */
(PID.TID 0000.0001)                 1.000000000000000E-07
(PID.TID 0000.0001)     ;
(PID.TID 0000.0001)  diagCG_pcOffDFac = /* preconditioner off-diagonal factor */
(PID.TID 0000.0001)                 9.611687812379854E-01
(PID.TID 0000.0001)     ;
(PID.TID 0000.0001) -----------------------------------------------------
(PID.TID 0000.0001)  DIAGNOSTICS_READPARMS: active diagnostics summary:
(PID.TID 0000.0001) -----------------------------------------------------
(PID.TID 0000.0001) Creating Output Stream: surfDiag
(PID.TID 0000.0001) Output Frequency:   31104000.000000 ; Phase:           0.000000
(PID.TID 0000.0001)  Averaging Freq.:   31104000.000000 , Phase:           0.000000 , Cycle:   1
(PID.TID 0000.0001)  missing value: -9.990000000000E+02
(PID.TID 0000.0001)  Levels:    will be set later
(PID.TID 0000.0001)  Fields:    ETAN     TRELAX   MXLDEPTH
(PID.TID 0000.0001) Creating Output Stream: dynDiag
(PID.TID 0000.0001) Output Frequency:   31104000.000000 ; Phase:           0.000000
(PID.TID 0000.0001)  Averaging Freq.:   31104000.000000 , Phase:           0.000000 , Cycle:   1
(PID.TID 0000.0001)  missing value: -9.990000000000E+02
(PID.TID 0000.0001)  Levels:    will be set later
(PID.TID 0000.0001)  Fields:    THETA    PHIHYD   UVEL     VVEL     WVEL
(PID.TID 0000.0001) -----------------------------------------------------
(PID.TID 0000.0001)  DIAGNOSTICS_READPARMS: statistics diags. summary:
(PID.TID 0000.0001) Creating Stats. Output Stream: dynStDiag
(PID.TID 0000.0001) Output Frequency:    2592000.000000 ; Phase:           0.000000
(PID.TID 0000.0001)  Regions:   0
(PID.TID 0000.0001)  Fields:    THETA    TRELAX
(PID.TID 0000.0001) -----------------------------------------------------
(PID.TID 0000.0001) 
(PID.TID 0000.0001) SET_PARMS: done
(PID.TID 0000.0001) Enter INI_VERTICAL_GRID: setInterFDr=    T ; setCenterDr=    F
(PID.TID 0000.0001) %MON XC_max                       =   6.0500000000000E+01
(PID.TID 0000.0001) %MON XC_min                       =  -5.0000000000000E-01
(PID.TID 0000.0001) %MON XC_mean                      =   3.0000000000000E+01
(PID.TID 0000.0001) %MON XC_sd                        =   1.7895530168173E+01
(PID.TID 0000.0001) %MON XG_max                       =   6.0000000000000E+01
(PID.TID 0000.0001) %MON XG_min                       =  -1.0000000000000E+00
(PID.TID 0000.0001) %MON XG_mean                      =   2.9500000000000E+01
(PID.TID 0000.0001) %MON XG_sd                        =   1.7895530168173E+01
(PID.TID 0000.0001) %MON DXC_max                      =   1.0763620848898E+05
(PID.TID 0000.0001) %MON DXC_min                      =   2.7836616228646E+04
(PID.TID 0000.0001) %MON DXC_mean                     =   7.4835486957243E+04
(PID.TID 0000.0001) %MON DXC_sd                       =   2.4080389995677E+04
(PID.TID 0000.0001) %MON DXF_max                      =   1.0763620848898E+05
(PID.TID 0000.0001) %MON DXF_min                      =   2.7836616228646E+04
(PID.TID 0000.0001) %MON DXF_mean                     =   7.4835486957243E+04
(PID.TID 0000.0001) %MON DXF_sd                       =   2.4080389995677E+04
(PID.TID 0000.0001) %MON DXG_max                      =   1.0787502725165E+05
(PID.TID 0000.0001) %MON DXG_min                      =   2.8774847489886E+04
(PID.TID 0000.0001) %MON DXG_mean                     =   7.5485691984679E+04
(PID.TID 0000.0001) %MON DXG_sd                       =   2.3877575243700E+04
(PID.TID 0000.0001) %MON DXV_max                      =   1.0787502725165E+05
(PID.TID 0000.0001) %MON DXV_min                      =   2.8774847489886E+04
(PID.TID 0000.0001) %MON DXV_mean                     =   7.5485691984679E+04
(PID.TID 0000.0001) %MON DXV_sd                       =   2.3877575243700E+04
(PID.TID 0000.0001) %MON YC_max                       =   7.5500000000000E+01
(PID.TID 0000.0001) %MON YC_min                       =   1.4500000000000E+01
(PID.TID 0000.0001) %MON YC_mean                      =   4.5000000000000E+01
(PID.TID 0000.0001) %MON YC_sd                        =   1.7895530168173E+01
(PID.TID 0000.0001) %MON YG_max                       =   7.5000000000000E+01
(PID.TID 0000.0001) %MON YG_min                       =   1.4000000000000E+01
(PID.TID 0000.0001) %MON YG_mean                      =   4.4500000000000E+01
(PID.TID 0000.0001) %MON YG_sd                        =   1.7895530168173E+01
(PID.TID 0000.0001) %MON DYC_max                      =   1.1117747335204E+05
(PID.TID 0000.0001) %MON DYC_min                      =   1.1117747335204E+05
(PID.TID 0000.0001) %MON DYC_mean                     =   1.1117747335204E+05
(PID.TID 0000.0001) %MON DYC_sd                       =   1.6298145055771E-09
(PID.TID 0000.0001) %MON DYF_max                      =   1.1117747335204E+05
(PID.TID 0000.0001) %MON DYF_min                      =   1.1117747335204E+05
(PID.TID 0000.0001) %MON DYF_mean                     =   1.1117747335204E+05
(PID.TID 0000.0001) %MON DYF_sd                       =   1.6298145055771E-09
(PID.TID 0000.0001) %MON DYG_max                      =   1.1117747335204E+05
(PID.TID 0000.0001) %MON DYG_min                      =   1.1117747335204E+05
(PID.TID 0000.0001) %MON DYG_mean                     =   1.1117747335204E+05
(PID.TID 0000.0001) %MON DYG_sd                       =   1.6298145055771E-09
(PID.TID 0000.0001) %MON DYU_max                      =   1.1117747335204E+05
(PID.TID 0000.0001) %MON DYU_min                      =   1.1117747335204E+05
(PID.TID 0000.0001) %MON DYU_mean                     =   1.1117747335204E+05
(PID.TID 0000.0001) %MON DYU_sd                       =   1.6298145055771E-09
(PID.TID 0000.0001) %MON RA_max                       =   1.1966569815247E+10
(PID.TID 0000.0001) %MON RA_min                       =   3.0947653786454E+09
(PID.TID 0000.0001) %MON RA_mean                      =   8.3199147564139E+09
(PID.TID 0000.0001) %MON RA_sd                        =   2.6771629371465E+09
(PID.TID 0000.0001) %MON RAW_max                      =   1.1966569815247E+10
(PID.TID 0000.0001) %MON RAW_min                      =   3.0947653786454E+09
(PID.TID 0000.0001) %MON RAW_mean                     =   8.3199147564139E+09
(PID.TID 0000.0001) %MON RAW_sd                       =   2.6771629371465E+09
(PID.TID 0000.0001) %MON RAS_max                      =   1.1993120744872E+10
(PID.TID 0000.0001) %MON RAS_min                      =   3.1990742357492E+09
(PID.TID 0000.0001) %MON RAS_mean                     =   8.3922019910189E+09
(PID.TID 0000.0001) %MON RAS_sd                       =   2.6546147916556E+09
(PID.TID 0000.0001) %MON RAZ_max                      =   1.1993120744872E+10
(PID.TID 0000.0001) %MON RAZ_min                      =   3.1990742357492E+09
(PID.TID 0000.0001) %MON RAZ_mean                     =   8.3922019910189E+09
(PID.TID 0000.0001) %MON RAZ_sd                       =   2.6546147916556E+09
(PID.TID 0000.0001) %MON AngleCS_max                  =   1.0000000000000E+00
(PID.TID 0000.0001) %MON AngleCS_min                  =   1.0000000000000E+00
(PID.TID 0000.0001) %MON AngleCS_mean                 =   1.0000000000000E+00
(PID.TID 0000.0001) %MON AngleCS_sd                   =   0.0000000000000E+00
(PID.TID 0000.0001) %MON AngleSN_max                  =   0.0000000000000E+00
(PID.TID 0000.0001) %MON AngleSN_min                  =   0.0000000000000E+00
(PID.TID 0000.0001) %MON AngleSN_mean                 =   0.0000000000000E+00
(PID.TID 0000.0001) %MON AngleSN_sd                   =   0.0000000000000E+00
(PID.TID 0000.0001) GAD_INIT_FIXED: GAD_OlMinSize=  1  0  1
(PID.TID 0000.0001) 
(PID.TID 0000.0001) // ===================================
(PID.TID 0000.0001) // GAD parameters :
(PID.TID 0000.0001) // ===================================
(PID.TID 0000.0001) tempAdvScheme =   /* Temp. Horiz.Advection scheme selector */
(PID.TID 0000.0001)                       2
(PID.TID 0000.0001)     ;
(PID.TID 0000.0001) tempVertAdvScheme =   /* Temp. Vert. Advection scheme selector */
(PID.TID 0000.0001)                       2
(PID.TID 0000.0001)     ;
(PID.TID 0000.0001) tempMultiDimAdvec =   /* use Muti-Dim Advec method for Temp */
(PID.TID 0000.0001)                   F
(PID.TID 0000.0001)     ;
(PID.TID 0000.0001) tempSOM_Advection = /* use 2nd Order Moment Advection for Temp */
(PID.TID 0000.0001)                   F
(PID.TID 0000.0001)     ;
(PID.TID 0000.0001) AdamsBashforthGt = /* apply Adams-Bashforth extrapolation on Gt */
(PID.TID 0000.0001)                   T
(PID.TID 0000.0001)     ;
(PID.TID 0000.0001) AdamsBashforth_T = /* apply Adams-Bashforth extrapolation on Temp */
(PID.TID 0000.0001)                   F
(PID.TID 0000.0001)     ;
(PID.TID 0000.0001) saltAdvScheme =   /* Salt. Horiz.advection scheme selector */
(PID.TID 0000.0001)                       2
(PID.TID 0000.0001)     ;
(PID.TID 0000.0001) saltVertAdvScheme =   /* Salt. Vert. Advection scheme selector */
(PID.TID 0000.0001)                       2
(PID.TID 0000.0001)     ;
(PID.TID 0000.0001) saltMultiDimAdvec =   /* use Muti-Dim Advec method for Salt */
(PID.TID 0000.0001)                   F
(PID.TID 0000.0001)     ;
(PID.TID 0000.0001) saltSOM_Advection = /* use 2nd Order Moment Advection for Salt */
(PID.TID 0000.0001)                   F
(PID.TID 0000.0001)     ;
(PID.TID 0000.0001) AdamsBashforthGs = /* apply Adams-Bashforth extrapolation on Gs */
(PID.TID 0000.0001)                   F
(PID.TID 0000.0001)     ;
(PID.TID 0000.0001) AdamsBashforth_S = /* apply Adams-Bashforth extrapolation on Salt */
(PID.TID 0000.0001)                   F
(PID.TID 0000.0001)     ;
(PID.TID 0000.0001) // ===================================
(PID.TID 0000.0001) ctrl-wet 1:    nvarlength =       108000
(PID.TID 0000.0001) ctrl-wet 2: surface wet C =          900
(PID.TID 0000.0001) ctrl-wet 3: surface wet W =          870
(PID.TID 0000.0001) ctrl-wet 4: surface wet S =          870
(PID.TID 0000.0001) ctrl-wet 4a:surface wet V =            0
(PID.TID 0000.0001) ctrl-wet 5: 3D wet points =        13500
(PID.TID 0000.0001) ctrl-wet 6: no recs for i =     1           0
(PID.TID 0000.0001) ctrl-wet 6: no recs for i =     2           0
(PID.TID 0000.0001) ctrl-wet 6: no recs for i =     3           0
(PID.TID 0000.0001) ctrl-wet 6: no recs for i =     4           0
(PID.TID 0000.0001) ctrl-wet 6: no recs for i =     5           0
(PID.TID 0000.0001) ctrl-wet 6: no recs for i =     6           0
(PID.TID 0000.0001) ctrl-wet 6: no recs for i =     7           0
(PID.TID 0000.0001) ctrl-wet 6: no recs for i =     8           0
(PID.TID 0000.0001) ctrl-wet 6: no recs for i =     9           0
(PID.TID 0000.0001) ctrl-wet 6: no recs for i =    10           0
(PID.TID 0000.0001) ctrl-wet 6: no recs for i =    11           0
(PID.TID 0000.0001) ctrl-wet 6: no recs for i =    12           0
(PID.TID 0000.0001) ctrl-wet 6: no recs for i =    13           0
(PID.TID 0000.0001) ctrl-wet 6: no recs for i =    14           0
(PID.TID 0000.0001) ctrl-wet 6: no recs for i =    15           0
(PID.TID 0000.0001) ctrl-wet 6: no recs for i =    16           0
(PID.TID 0000.0001) ctrl-wet 6: no recs for i =    17           0
(PID.TID 0000.0001) ctrl-wet 6: no recs for i =    18           0
(PID.TID 0000.0001) ctrl-wet 6: no recs for i =    19           0
(PID.TID 0000.0001) ctrl-wet 6: no recs for i =    20           0
(PID.TID 0000.0001) ctrl-wet 6: no recs for i =    21           0
(PID.TID 0000.0001) ctrl-wet 6: no recs for i =    22           0
(PID.TID 0000.0001) ctrl-wet 6: no recs for i =    23           0
(PID.TID 0000.0001) ctrl-wet 6: no recs for i =    24           0
(PID.TID 0000.0001) ctrl-wet 6: no recs for i =    25           0
(PID.TID 0000.0001) ctrl-wet 6: no recs for i =    26           0
(PID.TID 0000.0001) ctrl-wet 6: no recs for i =    27           0
(PID.TID 0000.0001) ctrl-wet 6: no recs for i =    28           0
(PID.TID 0000.0001) ctrl-wet 6: no recs for i =    29           0
(PID.TID 0000.0001) ctrl-wet 6: no recs for i =    30           0
(PID.TID 0000.0001) ctrl-wet 6: no recs for i =    31           0
(PID.TID 0000.0001) ctrl-wet 6: no recs for i =    32           0
(PID.TID 0000.0001) ctrl-wet 6: no recs for i =    33           0
(PID.TID 0000.0001) ctrl-wet 6: no recs for i =    34           0
(PID.TID 0000.0001) ctrl-wet 6: no recs for i =    35           0
(PID.TID 0000.0001) ctrl-wet 6: no recs for i =    36           0
(PID.TID 0000.0001) ctrl-wet 6: no recs for i =    37           0
(PID.TID 0000.0001) ctrl-wet 6: no recs for i =    38           0
(PID.TID 0000.0001) ctrl-wet 6: no recs for i =    39           0
(PID.TID 0000.0001) ctrl-wet 6: no recs for i =    40           0
(PID.TID 0000.0001) ctrl-wet 6: no recs for i =    41           0
(PID.TID 0000.0001) ctrl-wet 6: no recs for i =    42           0
(PID.TID 0000.0001) ctrl-wet 6: no recs for i =    43           0
(PID.TID 0000.0001) ctrl-wet 6: no recs for i =    44           0
(PID.TID 0000.0001) ctrl-wet 6: no recs for i =    45           0
(PID.TID 0000.0001) ctrl-wet 6: no recs for i =    46           0
(PID.TID 0000.0001) ctrl-wet 6: no recs for i =    47           0
(PID.TID 0000.0001) ctrl-wet 6: no recs for i =    48           0
(PID.TID 0000.0001) ctrl-wet 6: no recs for i =    49           0
(PID.TID 0000.0001) ctrl-wet 6: no recs for i =    50           0
(PID.TID 0000.0001) ctrl-wet 6: no recs for i =    51           0
(PID.TID 0000.0001) ctrl-wet 6: no recs for i =    52           0
(PID.TID 0000.0001) ctrl-wet 6: no recs for i =    53           0
(PID.TID 0000.0001) ctrl-wet 6: no recs for i =    54           0
(PID.TID 0000.0001) ctrl-wet 6: no recs for i =    55           0
(PID.TID 0000.0001) ctrl-wet 6: no recs for i =    56           0
(PID.TID 0000.0001) ctrl-wet 6: no recs for i =    57           0
(PID.TID 0000.0001) ctrl-wet 6: no recs for i =    58           0
(PID.TID 0000.0001) ctrl-wet 6: no recs for i =    59           0
(PID.TID 0000.0001) ctrl-wet 6: no recs for i =    60           0
(PID.TID 0000.0001) ctrl-wet 6: no recs for i =    61           0
(PID.TID 0000.0001) ctrl-wet 6: no recs for i =    62           0
(PID.TID 0000.0001) ctrl-wet 6: no recs for i =    63           0
(PID.TID 0000.0001) ctrl-wet 6: no recs for i =    64           0
(PID.TID 0000.0001) ctrl-wet 6: no recs for i =    65           0
(PID.TID 0000.0001) ctrl-wet 6: no recs for i =    66           0
(PID.TID 0000.0001) ctrl-wet 6: no recs for i =    67           0
(PID.TID 0000.0001) ctrl-wet 6: no recs for i =    68           0
(PID.TID 0000.0001) ctrl-wet 6: no recs for i =    69           0
(PID.TID 0000.0001) ctrl-wet 6: no recs for i =    70           0
(PID.TID 0000.0001) ctrl-wet 6: no recs for i =    71           0
(PID.TID 0000.0001) ctrl-wet 6: no recs for i =    72           0
(PID.TID 0000.0001) ctrl-wet 6: no recs for i =    73           0
(PID.TID 0000.0001) ctrl-wet 6: no recs for i =    74           0
(PID.TID 0000.0001) ctrl-wet 6: no recs for i =    75           0
(PID.TID 0000.0001) ctrl-wet 6: no recs for i =    76           0
(PID.TID 0000.0001) ctrl-wet 6: no recs for i =    77           0
(PID.TID 0000.0001) ctrl-wet 6: no recs for i =    78           0
(PID.TID 0000.0001) ctrl-wet 6: no recs for i =    79           0
(PID.TID 0000.0001) ctrl-wet 6: no recs for i =    80           0
(PID.TID 0000.0001) ctrl-wet 6: no recs for i =    81           0
(PID.TID 0000.0001) ctrl-wet 6: no recs for i =    82           0
(PID.TID 0000.0001) ctrl-wet 6: no recs for i =    83           0
(PID.TID 0000.0001) ctrl-wet 6: no recs for i =    84           0
(PID.TID 0000.0001) ctrl-wet 6: no recs for i =    85           0
(PID.TID 0000.0001) ctrl-wet 6: no recs for i =    86           0
(PID.TID 0000.0001) ctrl-wet 6: no recs for i =    87           0
(PID.TID 0000.0001) ctrl-wet 6: no recs for i =    88           0
(PID.TID 0000.0001) ctrl-wet 6: no recs for i =    89           0
(PID.TID 0000.0001) ctrl-wet 6: no recs for i =    90           0
(PID.TID 0000.0001) ctrl-wet 6: no recs for i =    91           0
(PID.TID 0000.0001) ctrl-wet 6: no recs for i =    92           0
(PID.TID 0000.0001) ctrl-wet 6: no recs for i =    93           0
(PID.TID 0000.0001) ctrl-wet 6: no recs for i =    94           0
(PID.TID 0000.0001) ctrl-wet 6: no recs for i =    95           0
(PID.TID 0000.0001) ctrl-wet 6: no recs for i =    96           0
(PID.TID 0000.0001) ctrl-wet 6: no recs for i =    97           0
(PID.TID 0000.0001) ctrl-wet 6: no recs for i =    98           0
(PID.TID 0000.0001) ctrl-wet 6: no recs for i =    99           0
(PID.TID 0000.0001) ctrl-wet 6: no recs for i =   100           0
(PID.TID 0000.0001) ctrl-wet 6: no recs for i =   101           0
(PID.TID 0000.0001) ctrl-wet 6: no recs for i =   102           0
(PID.TID 0000.0001) ctrl-wet 6: no recs for i =   103           0
(PID.TID 0000.0001) ctrl-wet 6: no recs for i =   104           0
(PID.TID 0000.0001) ctrl-wet 6: no recs for i =   105           0
(PID.TID 0000.0001) ctrl-wet 6: no recs for i =   106           0
(PID.TID 0000.0001) ctrl-wet 6: no recs for i =   107           0
(PID.TID 0000.0001) ctrl-wet 6: no recs for i =   108           0
(PID.TID 0000.0001) ctrl-wet 6: no recs for i =   109           0
(PID.TID 0000.0001) ctrl-wet 6: no recs for i =   110           0
(PID.TID 0000.0001) ctrl-wet 6: no recs for i =   111           0
(PID.TID 0000.0001) ctrl-wet 6: no recs for i =   112           0
(PID.TID 0000.0001) ctrl-wet 6: no recs for i =   113           0
(PID.TID 0000.0001) ctrl-wet 6: no recs for i =   114           0
(PID.TID 0000.0001) ctrl-wet 6: no recs for i =   115           0
(PID.TID 0000.0001) ctrl-wet 6: no recs for i =   116           0
(PID.TID 0000.0001) ctrl-wet 6: no recs for i =   117           0
(PID.TID 0000.0001) ctrl-wet 6: no recs for i =   118           0
(PID.TID 0000.0001) ctrl-wet 6: no recs for i =   119           0
(PID.TID 0000.0001) ctrl-wet 6: no recs for i =   120           0
(PID.TID 0000.0001) ctrl-wet 6: no recs for i =   121           0
(PID.TID 0000.0001) ctrl-wet 6: no recs for i =   122           0
(PID.TID 0000.0001) ctrl-wet 6: no recs for i =   123           0
(PID.TID 0000.0001) ctrl-wet 6: no recs for i =   124           0
(PID.TID 0000.0001) ctrl-wet 6: no recs for i =   125           0
(PID.TID 0000.0001) ctrl-wet 6: no recs for i =   126           0
(PID.TID 0000.0001) ctrl-wet 6: no recs for i =   127           0
(PID.TID 0000.0001) ctrl-wet 6: no recs for i =   128           0
(PID.TID 0000.0001) ctrl-wet 6: no recs for i =   129           0
(PID.TID 0000.0001) ctrl-wet 6: no recs for i =   130           0
(PID.TID 0000.0001) ctrl-wet 6: no recs for i =   131           0
(PID.TID 0000.0001) ctrl-wet 6: no recs for i =   132           0
(PID.TID 0000.0001) ctrl-wet 6: no recs for i =   133           0
(PID.TID 0000.0001) ctrl-wet 6: no recs for i =   134           0
(PID.TID 0000.0001) ctrl-wet 6: no recs for i =   135           0
(PID.TID 0000.0001) ctrl-wet 6: no recs for i =   136           0
(PID.TID 0000.0001) ctrl-wet 6: no recs for i =   137           0
(PID.TID 0000.0001) ctrl-wet 6: no recs for i =   138           0
(PID.TID 0000.0001) ctrl-wet 6: no recs for i =   139           0
(PID.TID 0000.0001) ctrl-wet 6: no recs for i =   140           0
(PID.TID 0000.0001) ctrl-wet 6: no recs for i =   141           0
(PID.TID 0000.0001) ctrl-wet 6: no recs for i =   142           0
(PID.TID 0000.0001) ctrl-wet 6: no recs for i =   143           0
(PID.TID 0000.0001) ctrl-wet 6: no recs for i =   144           0
(PID.TID 0000.0001) ctrl-wet 6: no recs for i =   145           0
(PID.TID 0000.0001) ctrl-wet 6: no recs for i =   146           0
(PID.TID 0000.0001) ctrl-wet 6: no recs for i =   147           0
(PID.TID 0000.0001) ctrl-wet 6: no recs for i =   148           0
(PID.TID 0000.0001) ctrl-wet 6: no recs for i =   149           0
(PID.TID 0000.0001) ctrl-wet 6: no recs for i =   150           0
(PID.TID 0000.0001) ctrl-wet 6: no recs for i =   151           0
(PID.TID 0000.0001) ctrl-wet 6: no recs for i =   152           0
(PID.TID 0000.0001) ctrl-wet 6: no recs for i =   153           0
(PID.TID 0000.0001) ctrl-wet 6: no recs for i =   154           0
(PID.TID 0000.0001) ctrl-wet 6: no recs for i =   155           0
(PID.TID 0000.0001) ctrl-wet 6: no recs for i =   156           0
(PID.TID 0000.0001) ctrl-wet 6: no recs for i =   157           0
(PID.TID 0000.0001) ctrl-wet 6: no recs for i =   158           0
(PID.TID 0000.0001) ctrl-wet 6: no recs for i =   159           0
(PID.TID 0000.0001) ctrl-wet 6: no recs for i =   160           0
(PID.TID 0000.0001) ctrl-wet 6: no recs for i =   161           0
(PID.TID 0000.0001) ctrl-wet 6: no recs for i =   162           0
(PID.TID 0000.0001) ctrl-wet 6: no recs for i =   163           0
(PID.TID 0000.0001) ctrl-wet 6: no recs for i =   164           0
(PID.TID 0000.0001) ctrl-wet 6: no recs for i =   165           0
(PID.TID 0000.0001) ctrl-wet 6: no recs for i =   166           0
(PID.TID 0000.0001) ctrl-wet 6: no recs for i =   167           0
(PID.TID 0000.0001) ctrl-wet 6: no recs for i =   168           0
(PID.TID 0000.0001) ctrl-wet 6: no recs for i =   169           0
(PID.TID 0000.0001) ctrl-wet 6: no recs for i =   170           0
(PID.TID 0000.0001) ctrl-wet 6: no recs for i =   171           0
(PID.TID 0000.0001) ctrl-wet 6: no recs for i =   172           0
(PID.TID 0000.0001) ctrl-wet 6: no recs for i =   173           0
(PID.TID 0000.0001) ctrl-wet 6: no recs for i =   174           0
(PID.TID 0000.0001) ctrl-wet 6: no recs for i =   175           0
(PID.TID 0000.0001) ctrl-wet 6: no recs for i =   176           0
(PID.TID 0000.0001) ctrl-wet 6: no recs for i =   177           0
(PID.TID 0000.0001) ctrl-wet 6: no recs for i =   178           0
(PID.TID 0000.0001) ctrl-wet 6: no recs for i =   179           0
(PID.TID 0000.0001) ctrl-wet 6: no recs for i =   180           0
(PID.TID 0000.0001) ctrl-wet 6: no recs for i =   181           0
(PID.TID 0000.0001) ctrl-wet 6: no recs for i =   182           0
(PID.TID 0000.0001) ctrl-wet 6: no recs for i =   183           0
(PID.TID 0000.0001) ctrl-wet 6: no recs for i =   184           0
(PID.TID 0000.0001) ctrl-wet 6: no recs for i =   185           0
(PID.TID 0000.0001) ctrl-wet 6: no recs for i =   186           0
(PID.TID 0000.0001) ctrl-wet 6: no recs for i =   187           0
(PID.TID 0000.0001) ctrl-wet 6: no recs for i =   188           0
(PID.TID 0000.0001) ctrl-wet 6: no recs for i =   189           0
(PID.TID 0000.0001) ctrl-wet 6: no recs for i =   190           0
(PID.TID 0000.0001) ctrl-wet 6: no recs for i =   191           0
(PID.TID 0000.0001) ctrl-wet 6: no recs for i =   192           0
(PID.TID 0000.0001) ctrl-wet 6: no recs for i =   193           0
(PID.TID 0000.0001) ctrl-wet 6: no recs for i =   194           0
(PID.TID 0000.0001) ctrl-wet 6: no recs for i =   195           0
(PID.TID 0000.0001) ctrl-wet 6: no recs for i =   196           0
(PID.TID 0000.0001) ctrl-wet 6: no recs for i =   197           0
(PID.TID 0000.0001) ctrl-wet 6: no recs for i =   198           0
(PID.TID 0000.0001) ctrl-wet 6: no recs for i =   199           0
(PID.TID 0000.0001) ctrl-wet 6: no recs for i =   200           0
(PID.TID 0000.0001) ctrl-wet 6: no recs for i =   201           1
(PID.TID 0000.0001) ctrl-wet 6: no recs for i =   202           1
(PID.TID 0000.0001) ctrl-wet 6: no recs for i =   203           0
(PID.TID 0000.0001) ctrl-wet 6: no recs for i =   204           0
(PID.TID 0000.0001) ctrl-wet 6: no recs for i =   205           0
(PID.TID 0000.0001) ctrl-wet 6: no recs for i =   206           0
(PID.TID 0000.0001) ctrl-wet 6: no recs for i =   207           0
(PID.TID 0000.0001) ctrl-wet 6: no recs for i =   208           0
(PID.TID 0000.0001) ctrl-wet 6: no recs for i =   209           0
(PID.TID 0000.0001) ctrl-wet 6: no recs for i =   210           0
(PID.TID 0000.0001) ctrl-wet 6: no recs for i =   211           0
(PID.TID 0000.0001) ctrl-wet 6: no recs for i =   212           0
(PID.TID 0000.0001) ctrl-wet 6: no recs for i =   213           0
(PID.TID 0000.0001) ctrl-wet 6: no recs for i =   214           0
(PID.TID 0000.0001) ctrl-wet 6: no recs for i =   215           0
(PID.TID 0000.0001) ctrl-wet 6: no recs for i =   216           0
(PID.TID 0000.0001) ctrl-wet 6: no recs for i =   217           0
(PID.TID 0000.0001) ctrl-wet 6: no recs for i =   218           0
(PID.TID 0000.0001) ctrl-wet 6: no recs for i =   219           0
(PID.TID 0000.0001) ctrl-wet 6: no recs for i =   220           0
(PID.TID 0000.0001) ctrl-wet 6: no recs for i =   221           0
(PID.TID 0000.0001) ctrl-wet 6: no recs for i =   222           0
(PID.TID 0000.0001) ctrl-wet 6: no recs for i =   223           0
(PID.TID 0000.0001) ctrl-wet 6: no recs for i =   224           0
(PID.TID 0000.0001) ctrl-wet 6: no recs for i =   225           0
(PID.TID 0000.0001) ctrl-wet 6: no recs for i =   226           0
(PID.TID 0000.0001) ctrl-wet 6: no recs for i =   227           0
(PID.TID 0000.0001) ctrl-wet 6: no recs for i =   228           0
(PID.TID 0000.0001) ctrl-wet 6: no recs for i =   229           0
(PID.TID 0000.0001) ctrl-wet 6: no recs for i =   230           0
(PID.TID 0000.0001) ctrl-wet 6: no recs for i =   231           0
(PID.TID 0000.0001) ctrl-wet 6: no recs for i =   232           0
(PID.TID 0000.0001) ctrl-wet 6: no recs for i =   233           0
(PID.TID 0000.0001) ctrl-wet 6: no recs for i =   234           0
(PID.TID 0000.0001) ctrl-wet 6: no recs for i =   235           0
(PID.TID 0000.0001) ctrl-wet 6: no recs for i =   236           0
(PID.TID 0000.0001) ctrl-wet 6: no recs for i =   237           0
(PID.TID 0000.0001) ctrl-wet 6: no recs for i =   238           0
(PID.TID 0000.0001) ctrl-wet 6: no recs for i =   239           0
(PID.TID 0000.0001) ctrl-wet 6: no recs for i =   240           0
(PID.TID 0000.0001) ctrl-wet 6: no recs for i =   241           0
(PID.TID 0000.0001) ctrl-wet 6: no recs for i =   242           0
(PID.TID 0000.0001) ctrl-wet 6: no recs for i =   243           0
(PID.TID 0000.0001) ctrl-wet 6: no recs for i =   244           0
(PID.TID 0000.0001) ctrl-wet 6: no recs for i =   245           0
(PID.TID 0000.0001) ctrl-wet 6: no recs for i =   246           0
(PID.TID 0000.0001) ctrl-wet 6: no recs for i =   247           0
(PID.TID 0000.0001) ctrl-wet 6: no recs for i =   248           0
(PID.TID 0000.0001) ctrl-wet 6: no recs for i =   249           0
(PID.TID 0000.0001) ctrl-wet 6: no recs for i =   250           0
(PID.TID 0000.0001) ctrl-wet 6: no recs for i =   251           0
(PID.TID 0000.0001) ctrl-wet 6: no recs for i =   252           0
(PID.TID 0000.0001) ctrl-wet 6: no recs for i =   253           0
(PID.TID 0000.0001) ctrl-wet 6: no recs for i =   254           0
(PID.TID 0000.0001) ctrl-wet 6: no recs for i =   255           0
(PID.TID 0000.0001) ctrl-wet 6: no recs for i =   256           0
(PID.TID 0000.0001) ctrl-wet 6: no recs for i =   257           0
(PID.TID 0000.0001) ctrl-wet 6: no recs for i =   258           0
(PID.TID 0000.0001) ctrl-wet 6: no recs for i =   259           0
(PID.TID 0000.0001) ctrl-wet 6: no recs for i =   260           0
(PID.TID 0000.0001) ctrl-wet 6: no recs for i =   261           0
(PID.TID 0000.0001) ctrl-wet 6: no recs for i =   262           0
(PID.TID 0000.0001) ctrl-wet 6: no recs for i =   263           0
(PID.TID 0000.0001) ctrl-wet 6: no recs for i =   264           0
(PID.TID 0000.0001) ctrl-wet 6: no recs for i =   265           0
(PID.TID 0000.0001) ctrl-wet 6: no recs for i =   266           0
(PID.TID 0000.0001) ctrl-wet 6: no recs for i =   267           0
(PID.TID 0000.0001) ctrl-wet 6: no recs for i =   268           0
(PID.TID 0000.0001) ctrl-wet 6: no recs for i =   269           0
(PID.TID 0000.0001) ctrl-wet 6: no recs for i =   270           0
(PID.TID 0000.0001) ctrl-wet 6: no recs for i =   271           0
(PID.TID 0000.0001) ctrl-wet 6: no recs for i =   272           0
(PID.TID 0000.0001) ctrl-wet 6: no recs for i =   273           0
(PID.TID 0000.0001) ctrl-wet 6: no recs for i =   274           0
(PID.TID 0000.0001) ctrl-wet 6: no recs for i =   275           0
(PID.TID 0000.0001) ctrl-wet 6: no recs for i =   276           0
(PID.TID 0000.0001) ctrl-wet 6: no recs for i =   277           0
(PID.TID 0000.0001) ctrl-wet 6: no recs for i =   278           0
(PID.TID 0000.0001) ctrl-wet 6: no recs for i =   279           0
(PID.TID 0000.0001) ctrl-wet 6: no recs for i =   280           0
(PID.TID 0000.0001) ctrl-wet 6: no recs for i =   281           0
(PID.TID 0000.0001) ctrl-wet 6: no recs for i =   282           0
(PID.TID 0000.0001) ctrl-wet 6: no recs for i =   283           0
(PID.TID 0000.0001) ctrl-wet 6: no recs for i =   284           0
(PID.TID 0000.0001) ctrl-wet 6: no recs for i =   285           0
(PID.TID 0000.0001) ctrl-wet 6: no recs for i =   286           0
(PID.TID 0000.0001) ctrl-wet 6: no recs for i =   287           0
(PID.TID 0000.0001) ctrl-wet 6: no recs for i =   288           0
(PID.TID 0000.0001) ctrl-wet 6: no recs for i =   289           0
(PID.TID 0000.0001) ctrl-wet 6: no recs for i =   290           0
(PID.TID 0000.0001) ctrl-wet 6: no recs for i =   291           0
(PID.TID 0000.0001) ctrl-wet 6: no recs for i =   292           0
(PID.TID 0000.0001) ctrl-wet 6: no recs for i =   293           0
(PID.TID 0000.0001) ctrl-wet 6: no recs for i =   294           0
(PID.TID 0000.0001) ctrl-wet 6: no recs for i =   295           0
(PID.TID 0000.0001) ctrl-wet 6: no recs for i =   296           0
(PID.TID 0000.0001) ctrl-wet 6: no recs for i =   297           0
(PID.TID 0000.0001) ctrl-wet 6: no recs for i =   298           0
(PID.TID 0000.0001) ctrl-wet 6: no recs for i =   299           0
(PID.TID 0000.0001) ctrl-wet 6: no recs for i =   300           0
(PID.TID 0000.0001) ctrl-wet 6: no recs for i =   301           0
(PID.TID 0000.0001) ctrl-wet 6: no recs for i =   302           0
(PID.TID 0000.0001) ctrl-wet 6: no recs for i =   303           0
(PID.TID 0000.0001) ctrl-wet 6: no recs for i =   304           0
(PID.TID 0000.0001) ctrl-wet 6: no recs for i =   305           0
(PID.TID 0000.0001) ctrl-wet 6: no recs for i =   306           0
(PID.TID 0000.0001) ctrl-wet 6: no recs for i =   307           0
(PID.TID 0000.0001) ctrl-wet 6: no recs for i =   308           0
(PID.TID 0000.0001) ctrl-wet 6: no recs for i =   309           0
(PID.TID 0000.0001) ctrl-wet 6: no recs for i =   310           0
(PID.TID 0000.0001) ctrl-wet 6: no recs for i =   311           0
(PID.TID 0000.0001) ctrl-wet 6: no recs for i =   312           0
(PID.TID 0000.0001) ctrl-wet 6: no recs for i =   313           0
(PID.TID 0000.0001) ctrl-wet 6: no recs for i =   314           0
(PID.TID 0000.0001) ctrl-wet 6: no recs for i =   315           0
(PID.TID 0000.0001) ctrl-wet 6: no recs for i =   316           0
(PID.TID 0000.0001) ctrl-wet 6: no recs for i =   317           0
(PID.TID 0000.0001) ctrl-wet 6: no recs for i =   318           0
(PID.TID 0000.0001) ctrl-wet 6: no recs for i =   319           0
(PID.TID 0000.0001) ctrl-wet 6: no recs for i =   320           0
(PID.TID 0000.0001) ctrl-wet 6: no recs for i =   321           0
(PID.TID 0000.0001) ctrl-wet 6: no recs for i =   322           0
(PID.TID 0000.0001) ctrl-wet 6: no recs for i =   323           0
(PID.TID 0000.0001) ctrl-wet 6: no recs for i =   324           0
(PID.TID 0000.0001) ctrl-wet 6: no recs for i =   325           0
(PID.TID 0000.0001) ctrl-wet 6: no recs for i =   326           0
(PID.TID 0000.0001) ctrl-wet 6: no recs for i =   327           0
(PID.TID 0000.0001) ctrl-wet 6: no recs for i =   328           0
(PID.TID 0000.0001) ctrl-wet 6: no recs for i =   329           0
(PID.TID 0000.0001) ctrl-wet 6: no recs for i =   330           0
(PID.TID 0000.0001) ctrl-wet 6: no recs for i =   331           0
(PID.TID 0000.0001) ctrl-wet 6: no recs for i =   332           0
(PID.TID 0000.0001) ctrl-wet 6: no recs for i =   333           0
(PID.TID 0000.0001) ctrl-wet 6: no recs for i =   334           0
(PID.TID 0000.0001) ctrl-wet 6: no recs for i =   335           0
(PID.TID 0000.0001) ctrl-wet 6: no recs for i =   336           0
(PID.TID 0000.0001) ctrl-wet 6: no recs for i =   337           0
(PID.TID 0000.0001) ctrl-wet 6: no recs for i =   338           0
(PID.TID 0000.0001) ctrl-wet 6: no recs for i =   339           0
(PID.TID 0000.0001) ctrl-wet 6: no recs for i =   340           0
(PID.TID 0000.0001) ctrl-wet 6: no recs for i =   341           0
(PID.TID 0000.0001) ctrl-wet 6: no recs for i =   342           0
(PID.TID 0000.0001) ctrl-wet 6: no recs for i =   343           0
(PID.TID 0000.0001) ctrl-wet 6: no recs for i =   344           0
(PID.TID 0000.0001) ctrl-wet 6: no recs for i =   345           0
(PID.TID 0000.0001) ctrl-wet 6: no recs for i =   346           0
(PID.TID 0000.0001) ctrl-wet 6: no recs for i =   347           0
(PID.TID 0000.0001) ctrl-wet 6: no recs for i =   348           0
(PID.TID 0000.0001) ctrl-wet 6: no recs for i =   349           0
(PID.TID 0000.0001) ctrl-wet 6: no recs for i =   350           0
(PID.TID 0000.0001) ctrl-wet 6: no recs for i =   351           0
(PID.TID 0000.0001) ctrl-wet 6: no recs for i =   352           0
(PID.TID 0000.0001) ctrl-wet 6: no recs for i =   353           0
(PID.TID 0000.0001) ctrl-wet 6: no recs for i =   354           0
(PID.TID 0000.0001) ctrl-wet 6: no recs for i =   355           0
(PID.TID 0000.0001) ctrl-wet 6: no recs for i =   356           0
(PID.TID 0000.0001) ctrl-wet 6: no recs for i =   357           0
(PID.TID 0000.0001) ctrl-wet 6: no recs for i =   358           0
(PID.TID 0000.0001) ctrl-wet 6: no recs for i =   359           0
(PID.TID 0000.0001) ctrl-wet 6: no recs for i =   360           0
(PID.TID 0000.0001) ctrl-wet 6: no recs for i =   361           0
(PID.TID 0000.0001) ctrl-wet 6: no recs for i =   362           0
(PID.TID 0000.0001) ctrl-wet 6: no recs for i =   363           0
(PID.TID 0000.0001) ctrl-wet 6: no recs for i =   364           0
(PID.TID 0000.0001) ctrl-wet 6: no recs for i =   365           0
(PID.TID 0000.0001) ctrl-wet 6: no recs for i =   366           0
(PID.TID 0000.0001) ctrl-wet 6: no recs for i =   367           0
(PID.TID 0000.0001) ctrl-wet 6: no recs for i =   368           0
(PID.TID 0000.0001) ctrl-wet 6: no recs for i =   369           0
(PID.TID 0000.0001) ctrl-wet 6: no recs for i =   370           0
(PID.TID 0000.0001) ctrl-wet 6: no recs for i =   371           0
(PID.TID 0000.0001) ctrl-wet 6: no recs for i =   372           0
(PID.TID 0000.0001) ctrl-wet 6: no recs for i =   373           0
(PID.TID 0000.0001) ctrl-wet 6: no recs for i =   374           0
(PID.TID 0000.0001) ctrl-wet 6: no recs for i =   375           0
(PID.TID 0000.0001) ctrl-wet 6: no recs for i =   376           0
(PID.TID 0000.0001) ctrl-wet 6: no recs for i =   377           0
(PID.TID 0000.0001) ctrl-wet 6: no recs for i =   378           0
(PID.TID 0000.0001) ctrl-wet 6: no recs for i =   379           0
(PID.TID 0000.0001) ctrl-wet 6: no recs for i =   380           0
(PID.TID 0000.0001) ctrl-wet 6: no recs for i =   381           0
(PID.TID 0000.0001) ctrl-wet 6: no recs for i =   382           0
(PID.TID 0000.0001) ctrl-wet 6: no recs for i =   383           0
(PID.TID 0000.0001) ctrl-wet 6: no recs for i =   384           0
(PID.TID 0000.0001) ctrl-wet 6: no recs for i =   385           0
(PID.TID 0000.0001) ctrl-wet 6: no recs for i =   386           0
(PID.TID 0000.0001) ctrl-wet 6: no recs for i =   387           0
(PID.TID 0000.0001) ctrl-wet 6: no recs for i =   388           0
(PID.TID 0000.0001) ctrl-wet 6: no recs for i =   389           0
(PID.TID 0000.0001) ctrl-wet 6: no recs for i =   390           0
(PID.TID 0000.0001) ctrl-wet 6: no recs for i =   391           0
(PID.TID 0000.0001) ctrl-wet 6: no recs for i =   392           0
(PID.TID 0000.0001) ctrl-wet 6: no recs for i =   393           0
(PID.TID 0000.0001) ctrl-wet 6: no recs for i =   394           0
(PID.TID 0000.0001) ctrl-wet 6: no recs for i =   395           0
(PID.TID 0000.0001) ctrl-wet 6: no recs for i =   396           0
(PID.TID 0000.0001) ctrl-wet 6: no recs for i =   397           0
(PID.TID 0000.0001) ctrl-wet 6: no recs for i =   398           0
(PID.TID 0000.0001) ctrl-wet 6: no recs for i =   399           0
(PID.TID 0000.0001) ctrl-wet 6: no recs for i =   400           0
(PID.TID 0000.0001) ctrl-wet 7: flux         27000
(PID.TID 0000.0001) ctrl-wet 8: atmos        27000
(PID.TID 0000.0001) ctrl-wet -------------------------------------------------
(PID.TID 0000.0001) ctrl-wet 13: global nvarlength for Nr =   15      108000
(PID.TID 0000.0001) ctrl-wet -------------------------------------------------
(PID.TID 0000.0001) ctrl-wet 14: global nWet C/S/W/V k=    1        3600        3540        3540           0
(PID.TID 0000.0001) ctrl-wet 14: global nWet C/S/W/V k=    2        3600        3540        3540           0
(PID.TID 0000.0001) ctrl-wet 14: global nWet C/S/W/V k=    3        3600        3540        3540           0
(PID.TID 0000.0001) ctrl-wet 14: global nWet C/S/W/V k=    4        3600        3540        3540           0
(PID.TID 0000.0001) ctrl-wet 14: global nWet C/S/W/V k=    5        3600        3540        3540           0
(PID.TID 0000.0001) ctrl-wet 14: global nWet C/S/W/V k=    6        3600        3540        3540           0
(PID.TID 0000.0001) ctrl-wet 14: global nWet C/S/W/V k=    7        3600        3540        3540           0
(PID.TID 0000.0001) ctrl-wet 14: global nWet C/S/W/V k=    8        3600        3540        3540           0
(PID.TID 0000.0001) ctrl-wet 14: global nWet C/S/W/V k=    9        3600        3540        3540           0
(PID.TID 0000.0001) ctrl-wet 14: global nWet C/S/W/V k=   10        3600        3540        3540           0
(PID.TID 0000.0001) ctrl-wet 14: global nWet C/S/W/V k=   11        3600        3540        3540           0
(PID.TID 0000.0001) ctrl-wet 14: global nWet C/S/W/V k=   12        3600        3540        3540           0
(PID.TID 0000.0001) ctrl-wet 14: global nWet C/S/W/V k=   13        3600        3540        3540           0
(PID.TID 0000.0001) ctrl-wet 14: global nWet C/S/W/V k=   14        3600        3540        3540           0
(PID.TID 0000.0001) ctrl-wet 14: global nWet C/S/W/V k=   15        3600        3540        3540           0
(PID.TID 0000.0001) ctrl-wet -------------------------------------------------
(PID.TID 0000.0001) ctrl-wet -------------------------------------------------
(PID.TID 0000.0001) ctrl-wet -------------------------------------------------
(PID.TID 0000.0001) ctrl_init_wet: no. of control variables:            2
(PID.TID 0000.0001) ctrl_init_wet: control vector length:          108000
(PID.TID 0000.0001) 
(PID.TID 0000.0001) // =======================================================
(PID.TID 0000.0001) // control vector configuration  >>> START <<<
(PID.TID 0000.0001) // =======================================================
(PID.TID 0000.0001) 
(PID.TID 0000.0001)  Total number of ocean points per tile:
(PID.TID 0000.0001)  --------------------------------------
(PID.TID 0000.0001)  sNx*sNy*Nr =    14415
(PID.TID 0000.0001) 
(PID.TID 0000.0001)  Number of ocean points per tile:
(PID.TID 0000.0001)  --------------------------------
(PID.TID 0000.0001)  bi,bj,#(c/s/w): 0001 0001 013500 013050 013050
(PID.TID 0000.0001)  bi,bj,#(c/s/w): 0002 0001 013500 013050 013500
(PID.TID 0000.0001)  bi,bj,#(c/s/w): 0001 0002 013500 013500 013050
(PID.TID 0000.0001)  bi,bj,#(c/s/w): 0002 0002 013500 013500 013500
(PID.TID 0000.0001) 
(PID.TID 0000.0001)  Settings of generic controls:
(PID.TID 0000.0001)  -----------------------------
(PID.TID 0000.0001) 
(PID.TID 0000.0001)  -> 3d control, genarr3d no.  1 is in use
(PID.TID 0000.0001)       file       = xx_theta
(PID.TID 0000.0001)       weight     = ones_64b.bin
(PID.TID 0000.0001)       index      =  0201
(PID.TID 0000.0001)       ncvarindex =  0301
(PID.TID 0000.0001)  -> 3d control, genarr3d no.  2 is in use
(PID.TID 0000.0001)       file       = xx_salt
(PID.TID 0000.0001)       weight     = ones_64b.bin
(PID.TID 0000.0001)       index      =  0202
(PID.TID 0000.0001)       ncvarindex =  0302
(PID.TID 0000.0001) 
(PID.TID 0000.0001) // =======================================================
(PID.TID 0000.0001) // control vector configuration  >>> END <<<
(PID.TID 0000.0001) // =======================================================
(PID.TID 0000.0001) 
(PID.TID 0000.0001) ------------------------------------------------------------
(PID.TID 0000.0001) DIAGNOSTICS_SET_LEVELS: done
(PID.TID 0000.0001)  Total Nb of available Diagnostics: ndiagt=   206
(PID.TID 0000.0001)  write list of available Diagnostics to file: available_diagnostics.log
(PID.TID 0000.0001) SETDIAG: Allocate  1 x  1 Levels for Diagnostic #    23 ETAN
(PID.TID 0000.0001) SETDIAG: Allocate  1 x  1 Levels for Diagnostic #    88 TRELAX
(PID.TID 0000.0001) SETDIAG: Allocate  1 x  1 Levels for Diagnostic #    76 MXLDEPTH
(PID.TID 0000.0001) SETDIAG: Allocate 15 x  1 Levels for Diagnostic #    26 THETA
(PID.TID 0000.0001) SETDIAG: Allocate 15 x  1 Levels for Diagnostic #    71 PHIHYD
(PID.TID 0000.0001) SETDIAG: Allocate 15 x  1 Levels for Diagnostic #    30 UVEL
(PID.TID 0000.0001) SETDIAG: Allocate 15 x  1 Levels for Diagnostic #    31 VVEL
(PID.TID 0000.0001) SETDIAG: Allocate 15 x  1 Levels for Diagnostic #    32 WVEL
(PID.TID 0000.0001)   space allocated for all diagnostics:      78 levels
(PID.TID 0000.0001)   set mate pointer for diag #    30  UVEL     , Parms: UUR     MR , mate:    31
(PID.TID 0000.0001)   set mate pointer for diag #    31  VVEL     , Parms: VVR     MR , mate:    30
(PID.TID 0000.0001) DIAGNOSTICS_SET_POINTERS: Set levels for Outp.Stream: surfDiag
(PID.TID 0000.0001)  Levels:       1.
(PID.TID 0000.0001) DIAGNOSTICS_SET_POINTERS: Set levels for Outp.Stream: dynDiag
(PID.TID 0000.0001)  Levels:       1.   2.   3.   4.   5.   6.   7.   8.   9.  10.  11.  12.  13.  14.  15.
(PID.TID 0000.0001) DIAGNOSTICS_SET_POINTERS: done
(PID.TID 0000.0001) ------------------------------------------------------------
(PID.TID 0000.0001) DIAGSTATS_SET_REGIONS: define no region
(PID.TID 0000.0001) ------------------------------------------------------------
(PID.TID 0000.0001) SETDIAG: Allocate 15 Levels for Stats-Diag #    26 THETA
(PID.TID 0000.0001) SETDIAG: Allocate  1 Levels for Stats-Diag #    88 TRELAX
(PID.TID 0000.0001)   space allocated for all stats-diags:      16 levels
(PID.TID 0000.0001) DIAGSTATS_SET_POINTERS: done
(PID.TID 0000.0001) ------------------------------------------------------------
(PID.TID 0000.0001) DIAGSTATS_INI_IO: open file: dynStDiag.0000000000.txt , unit=     9
(PID.TID 0000.0001) %MON fCori_max                    =   1.4119704352640E-04
(PID.TID 0000.0001) %MON fCori_min                    =   3.6516038314991E-05
(PID.TID 0000.0001) %MON fCori_mean                   =   9.8169098090289E-05
(PID.TID 0000.0001) %MON fCori_sd                     =   3.1588625445688E-05
(PID.TID 0000.0001) %MON fCoriG_max                   =   1.4087300867102E-04
(PID.TID 0000.0001) %MON fCoriG_min                   =   3.5282486883545E-05
(PID.TID 0000.0001) %MON fCoriG_mean                  =   9.7308683992513E-05
(PID.TID 0000.0001) %MON fCoriG_sd                    =   3.1852455422806E-05
(PID.TID 0000.0001) %MON fCoriCos_max                 =   1.4119704352640E-04
(PID.TID 0000.0001) %MON fCoriCos_min                 =   3.6516038314991E-05
(PID.TID 0000.0001) %MON fCoriCos_mean                =   9.8169098090289E-05
(PID.TID 0000.0001) %MON fCoriCos_sd                  =   3.1588625445688E-05
(PID.TID 0000.0001) INI_CG2D: CG2D normalisation factor =  1.4846576448792050E-04
(PID.TID 0000.0001) 
(PID.TID 0000.0001) // =======================================================
(PID.TID 0000.0001) // Model configuration
(PID.TID 0000.0001) // =======================================================
(PID.TID 0000.0001) //
(PID.TID 0000.0001) // "Physical" paramters ( PARM01 in namelist )
(PID.TID 0000.0001) //
(PID.TID 0000.0001) buoyancyRelation = /* Type of relation to get Buoyancy */
(PID.TID 0000.0001)               'OCEANIC'
(PID.TID 0000.0001)     ;
(PID.TID 0000.0001) fluidIsAir   =  /* fluid major constituent is Air */
(PID.TID 0000.0001)                   F
(PID.TID 0000.0001)     ;
(PID.TID 0000.0001) fluidIsWater =  /* fluid major constituent is Water */
(PID.TID 0000.0001)                   T
(PID.TID 0000.0001)     ;
(PID.TID 0000.0001) usingPCoords =  /* use p (or p*) vertical coordinate */
(PID.TID 0000.0001)                   F
(PID.TID 0000.0001)     ;
(PID.TID 0000.0001) usingZCoords =  /* use z (or z*) vertical coordinate */
(PID.TID 0000.0001)                   T
(PID.TID 0000.0001)     ;
(PID.TID 0000.0001) tRef =   /* Reference temperature profile ( oC or K ) */
(PID.TID 0000.0001)                 3.000000000000000E+01,      /* K =  1 */
(PID.TID 0000.0001)                 2.700000000000000E+01,      /* K =  2 */
(PID.TID 0000.0001)                 2.400000000000000E+01,      /* K =  3 */
(PID.TID 0000.0001)                 2.100000000000000E+01,      /* K =  4 */
(PID.TID 0000.0001)                 1.800000000000000E+01,      /* K =  5 */
(PID.TID 0000.0001)                 1.500000000000000E+01,      /* K =  6 */
(PID.TID 0000.0001)                 1.300000000000000E+01,      /* K =  7 */
(PID.TID 0000.0001)                 1.100000000000000E+01,      /* K =  8 */
(PID.TID 0000.0001)                 9.000000000000000E+00,      /* K =  9 */
(PID.TID 0000.0001)                 7.000000000000000E+00,      /* K = 10 */
(PID.TID 0000.0001)                 6.000000000000000E+00,      /* K = 11 */
(PID.TID 0000.0001)                 5.000000000000000E+00,      /* K = 12 */
(PID.TID 0000.0001)                 4.000000000000000E+00,      /* K = 13 */
(PID.TID 0000.0001)                 3.000000000000000E+00,      /* K = 14 */
(PID.TID 0000.0001)                 2.000000000000000E+00       /* K = 15 */
(PID.TID 0000.0001)     ;
(PID.TID 0000.0001) sRef =   /* Reference salinity profile ( g/kg ) */
(PID.TID 0000.0001)    15 @  3.000000000000000E+01              /* K =  1: 15 */
(PID.TID 0000.0001)     ;
(PID.TID 0000.0001) rhoRef =   /* Density vertical profile from (Ref,sRef)( kg/m^3 ) */
(PID.TID 0000.0001)                 9.998000000000000E+02,      /* K =  1 */
(PID.TID 0000.0001)                 1.000399880000000E+03,      /* K =  2 */
(PID.TID 0000.0001)                 1.000999760000000E+03,      /* K =  3 */
(PID.TID 0000.0001)                 1.001599640000000E+03,      /* K =  4 */
(PID.TID 0000.0001)                 1.002199520000000E+03,      /* K =  5 */
(PID.TID 0000.0001)                 1.002799400000000E+03,      /* K =  6 */
(PID.TID 0000.0001)                 1.003199320000000E+03,      /* K =  7 */
(PID.TID 0000.0001)                 1.003599240000000E+03,      /* K =  8 */
(PID.TID 0000.0001)                 1.003999160000000E+03,      /* K =  9 */
(PID.TID 0000.0001)                 1.004399080000000E+03,      /* K = 10 */
(PID.TID 0000.0001)                 1.004599040000000E+03,      /* K = 11 */
(PID.TID 0000.0001)                 1.004799000000000E+03,      /* K = 12 */
(PID.TID 0000.0001)                 1.004998960000000E+03,      /* K = 13 */
(PID.TID 0000.0001)                 1.005198920000000E+03,      /* K = 14 */
(PID.TID 0000.0001)                 1.005398880000000E+03       /* K = 15 */
(PID.TID 0000.0001)     ;
(PID.TID 0000.0001) dBdrRef = /* Vertical grad. of reference buoyancy [(m/s/r)^2] */
(PID.TID 0000.0001)                 0.000000000000000E+00,      /* K =  1 */
(PID.TID 0000.0001)                 1.070181818181818E-04,      /* K =  2 */
(PID.TID 0000.0001)                 9.055384615384615E-05,      /* K =  3 */
(PID.TID 0000.0001)                 7.848000000000002E-05,      /* K =  4 */
(PID.TID 0000.0001)                 6.924705882352942E-05,      /* K =  5 */
(PID.TID 0000.0001)                 6.195789473684211E-05,      /* K =  6 */
(PID.TID 0000.0001)                 3.737142857142858E-05,      /* K =  7 */
(PID.TID 0000.0001)                 3.412173913043479E-05,      /* K =  8 */
(PID.TID 0000.0001)                 3.139200000000000E-05,      /* K =  9 */
(PID.TID 0000.0001)                 2.906666666666667E-05,      /* K = 10 */
(PID.TID 0000.0001)                 1.353103448275862E-05,      /* K = 11 */
(PID.TID 0000.0001)                 1.265806451612903E-05,      /* K = 12 */
(PID.TID 0000.0001)                 1.189090909090909E-05,      /* K = 13 */
(PID.TID 0000.0001)                 1.121142857142857E-05,      /* K = 14 */
(PID.TID 0000.0001)                 1.060540540540541E-05       /* K = 15 */
(PID.TID 0000.0001)     ;
(PID.TID 0000.0001) useStrainTensionVisc= /* Use StrainTension Form of Viscous Operator */
(PID.TID 0000.0001)                   F
(PID.TID 0000.0001)     ;
(PID.TID 0000.0001) useVariableVisc = /* Use variable horizontal viscosity */
(PID.TID 0000.0001)                   F
(PID.TID 0000.0001)     ;
(PID.TID 0000.0001) useHarmonicVisc = /* Use harmonic horizontal viscosity */
(PID.TID 0000.0001)                   T
(PID.TID 0000.0001)     ;
(PID.TID 0000.0001) useBiharmonicVisc= /* Use biharmonic horiz.  viscosity */
(PID.TID 0000.0001)                   F
(PID.TID 0000.0001)     ;
(PID.TID 0000.0001) useSmag3D = /* Use isotropic 3-D Smagorinsky viscosity */
(PID.TID 0000.0001)                   F
(PID.TID 0000.0001)     ;
(PID.TID 0000.0001) viscAh  =   /* Lateral harmonic viscosity ( m^2/s ) */
(PID.TID 0000.0001)                 5.000000000000000E+03
(PID.TID 0000.0001)     ;
(PID.TID 0000.0001) viscA4  =   /* Lateral biharmonic viscosity ( m^4/s ) */
(PID.TID 0000.0001)                 0.000000000000000E+00
(PID.TID 0000.0001)     ;
(PID.TID 0000.0001) no_slip_sides =  /* Viscous BCs: No-slip sides */
(PID.TID 0000.0001)                   T
(PID.TID 0000.0001)     ;
(PID.TID 0000.0001) sideDragFactor = /* side-drag scaling factor (non-dim) */
(PID.TID 0000.0001)                 2.000000000000000E+00
(PID.TID 0000.0001)     ;
(PID.TID 0000.0001) viscArNr = /* vertical profile of vertical viscosity ( m^2/s )*/
(PID.TID 0000.0001)    15 @  1.000000000000000E-02              /* K =  1: 15 */
(PID.TID 0000.0001)     ;
(PID.TID 0000.0001) no_slip_bottom =  /* Viscous BCs: No-slip bottom */
(PID.TID 0000.0001)                   F
(PID.TID 0000.0001)     ;
(PID.TID 0000.0001) bottomVisc_pCell = /* Partial-cell in bottom Visc. BC */
(PID.TID 0000.0001)                   F
(PID.TID 0000.0001)     ;
(PID.TID 0000.0001) bottomDragLinear = /* linear bottom-drag coefficient ( m/s ) */
(PID.TID 0000.0001)                 0.000000000000000E+00
(PID.TID 0000.0001)     ;
(PID.TID 0000.0001) bottomDragQuadratic = /* quadratic bottom-drag coefficient (-) */
(PID.TID 0000.0001)                 0.000000000000000E+00
(PID.TID 0000.0001)     ;
(PID.TID 0000.0001) selectBotDragQuadr = /* select quadratic bottom drag options */
(PID.TID 0000.0001)                      -1
(PID.TID 0000.0001)     ;
(PID.TID 0000.0001) diffKhT =   /* Laplacian diffusion of heat laterally ( m^2/s ) */
(PID.TID 0000.0001)                 1.000000000000000E+03
(PID.TID 0000.0001)     ;
(PID.TID 0000.0001) diffK4T =   /* Biharmonic diffusion of heat laterally ( m^4/s ) */
(PID.TID 0000.0001)                 0.000000000000000E+00
(PID.TID 0000.0001)     ;
(PID.TID 0000.0001) diffKhS =   /* Laplacian diffusion of salt laterally ( m^2/s ) */
(PID.TID 0000.0001)                 0.000000000000000E+00
(PID.TID 0000.0001)     ;
(PID.TID 0000.0001) diffK4S =   /* Biharmonic diffusion of salt laterally ( m^4/s ) */
(PID.TID 0000.0001)                 0.000000000000000E+00
(PID.TID 0000.0001)     ;
(PID.TID 0000.0001) diffKrNrT = /* vertical profile of vertical diffusion of Temp ( m^2/s )*/
(PID.TID 0000.0001)    15 @  1.000000000000000E-05              /* K =  1: 15 */
(PID.TID 0000.0001)     ;
(PID.TID 0000.0001) diffKrNrS = /* vertical profile of vertical diffusion of Salt ( m^2/s )*/
(PID.TID 0000.0001)    15 @  1.000000000000000E-05              /* K =  1: 15 */
(PID.TID 0000.0001)     ;
(PID.TID 0000.0001) diffKrBL79surf = /* Surface diffusion for Bryan and Lewis 79 ( m^2/s ) */
(PID.TID 0000.0001)                 0.000000000000000E+00
(PID.TID 0000.0001)     ;
(PID.TID 0000.0001) diffKrBL79deep = /* Deep diffusion for Bryan and Lewis 1979 ( m^2/s ) */
(PID.TID 0000.0001)                 0.000000000000000E+00
(PID.TID 0000.0001)     ;
(PID.TID 0000.0001) diffKrBL79scl = /* Depth scale for Bryan and Lewis 1979 ( m ) */
(PID.TID 0000.0001)                 2.000000000000000E+02
(PID.TID 0000.0001)     ;
(PID.TID 0000.0001) diffKrBL79Ho = /* Turning depth for Bryan and Lewis 1979 ( m ) */
(PID.TID 0000.0001)                -2.000000000000000E+03
(PID.TID 0000.0001)     ;
(PID.TID 0000.0001) ivdc_kappa = /* Implicit Vertical Diffusivity for Convection ( m^2/s) */
(PID.TID 0000.0001)                 1.000000000000000E+00
(PID.TID 0000.0001)     ;
(PID.TID 0000.0001) hMixCriteria=  /* Criteria for mixed-layer diagnostic */
(PID.TID 0000.0001)                -8.000000000000000E-01
(PID.TID 0000.0001)     ;
(PID.TID 0000.0001) dRhoSmall =  /* Parameter for mixed-layer diagnostic */
(PID.TID 0000.0001)                 1.000000000000000E-06
(PID.TID 0000.0001)     ;
(PID.TID 0000.0001) hMixSmooth=  /* Smoothing parameter for mixed-layer diagnostic */
(PID.TID 0000.0001)                 0.000000000000000E+00
(PID.TID 0000.0001)     ;
(PID.TID 0000.0001) eosType =  /* Type of Equation of State */
(PID.TID 0000.0001)               'LINEAR'
(PID.TID 0000.0001)     ;
(PID.TID 0000.0001) tAlpha = /* Linear EOS thermal expansion coefficient ( 1/oC ) */
(PID.TID 0000.0001)                 2.000000000000000E-04
(PID.TID 0000.0001)     ;
(PID.TID 0000.0001) sBeta  = /* Linear EOS haline contraction coefficient ( 1/(g/kg) ) */
(PID.TID 0000.0001)                 0.000000000000000E+00
(PID.TID 0000.0001)     ;
(PID.TID 0000.0001) rhoNil    = /* Reference density for Linear EOS ( kg/m^3 ) */
(PID.TID 0000.0001)                 9.998000000000000E+02
(PID.TID 0000.0001)     ;
(PID.TID 0000.0001) selectP_inEOS_Zc = /* select pressure to use in EOS (0,1,2,3) */
(PID.TID 0000.0001)                       0
(PID.TID 0000.0001)     0= -g*rhoConst*z ; 1= pRef (from tRef,sRef); 2= Hyd P ; 3= Hyd+NH P
(PID.TID 0000.0001)     ;
(PID.TID 0000.0001) surf_pRef = /* Surface reference pressure ( Pa ) */
(PID.TID 0000.0001)                 1.013250000000000E+05
(PID.TID 0000.0001)     ;
(PID.TID 0000.0001) HeatCapacity_Cp =  /* Specific heat capacity ( J/kg/K ) */
(PID.TID 0000.0001)                 3.994000000000000E+03
(PID.TID 0000.0001)     ;
(PID.TID 0000.0001) celsius2K = /* 0 degree Celsius converted to Kelvin ( K ) */
(PID.TID 0000.0001)                 2.731500000000000E+02
(PID.TID 0000.0001)     ;
(PID.TID 0000.0001) rhoConst  = /* Reference density (Boussinesq)  ( kg/m^3 ) */
(PID.TID 0000.0001)                 9.998000000000000E+02
(PID.TID 0000.0001)     ;
(PID.TID 0000.0001) rhoFacC = /* normalized Reference density @ cell-Center (-) */
(PID.TID 0000.0001)    15 @  1.000000000000000E+00              /* K =  1: 15 */
(PID.TID 0000.0001)     ;
(PID.TID 0000.0001) rhoFacF = /* normalized Reference density @ W-Interface (-) */
(PID.TID 0000.0001)    16 @  1.000000000000000E+00              /* K =  1: 16 */
(PID.TID 0000.0001)     ;
(PID.TID 0000.0001) rhoConstFresh = /* Fresh-water reference density ( kg/m^3 ) */
(PID.TID 0000.0001)                 9.998000000000000E+02
(PID.TID 0000.0001)     ;
(PID.TID 0000.0001) gravity =   /* Gravitational acceleration ( m/s^2 ) */
(PID.TID 0000.0001)                 9.810000000000000E+00
(PID.TID 0000.0001)     ;
(PID.TID 0000.0001) gBaro =   /* Barotropic gravity ( m/s^2 ) */
(PID.TID 0000.0001)                 9.810000000000000E+00
(PID.TID 0000.0001)     ;
(PID.TID 0000.0001) gravFacC = /* gravity factor (vs surf.) @ cell-Center (-) */
(PID.TID 0000.0001)    15 @  1.000000000000000E+00              /* K =  1: 15 */
(PID.TID 0000.0001)     ;
(PID.TID 0000.0001) gravFacF = /* gravity factor (vs surf.) @ W-Interface (-) */
(PID.TID 0000.0001)    16 @  1.000000000000000E+00              /* K =  1: 16 */
(PID.TID 0000.0001)     ;
(PID.TID 0000.0001) rotationPeriod =   /* Rotation Period ( s ) */
(PID.TID 0000.0001)                 8.616400000000000E+04
(PID.TID 0000.0001)     ;
(PID.TID 0000.0001) omega =   /* Angular velocity ( rad/s ) */
(PID.TID 0000.0001)                 7.292123516990375E-05
(PID.TID 0000.0001)     ;
(PID.TID 0000.0001) f0 =   /* Reference coriolis parameter ( 1/s ) */
(PID.TID 0000.0001)                 1.000000000000000E-04
(PID.TID 0000.0001)     ;
(PID.TID 0000.0001) beta =   /* Beta ( 1/(m.s) ) */
(PID.TID 0000.0001)                 9.999999999999999E-12
(PID.TID 0000.0001)     ;
(PID.TID 0000.0001) fPrime =   /* Second coriolis parameter ( 1/s ) */
(PID.TID 0000.0001)                 0.000000000000000E+00
(PID.TID 0000.0001)     ;
(PID.TID 0000.0001) rigidLid =   /* Rigid lid on/off flag */
(PID.TID 0000.0001)                   F
(PID.TID 0000.0001)     ;
(PID.TID 0000.0001) implicitFreeSurface =   /* Implicit free surface on/off flag */
(PID.TID 0000.0001)                   T
(PID.TID 0000.0001)     ;
(PID.TID 0000.0001) freeSurfFac =   /* Implicit free surface factor */
(PID.TID 0000.0001)                 1.000000000000000E+00
(PID.TID 0000.0001)     ;
(PID.TID 0000.0001) implicSurfPress =  /* Surface Pressure implicit factor (0-1) */
(PID.TID 0000.0001)                 1.000000000000000E+00
(PID.TID 0000.0001)     ;
(PID.TID 0000.0001) implicDiv2DFlow =  /* Barot. Flow Div. implicit factor (0-1) */
(PID.TID 0000.0001)                 1.000000000000000E+00
(PID.TID 0000.0001)     ;
(PID.TID 0000.0001) uniformLin_PhiSurf = /* use uniform Bo_surf on/off flag */
(PID.TID 0000.0001)                   T
(PID.TID 0000.0001)     ;
(PID.TID 0000.0001) uniformFreeSurfLev = /* free-surface level-index is uniform */
(PID.TID 0000.0001)                   T
(PID.TID 0000.0001)     ;
(PID.TID 0000.0001) sIceLoadFac =  /* scale factor for sIceLoad (0-1) */
(PID.TID 0000.0001)                 1.000000000000000E+00
(PID.TID 0000.0001)     ;
(PID.TID 0000.0001) hFacMin =   /* minimum partial cell factor (hFac) */
(PID.TID 0000.0001)                 1.000000000000000E+00
(PID.TID 0000.0001)     ;
(PID.TID 0000.0001) hFacMinDr = /* minimum partial cell thickness ( m) */
(PID.TID 0000.0001)                 0.000000000000000E+00
(PID.TID 0000.0001)     ;
(PID.TID 0000.0001) exactConserv =  /* Exact Volume Conservation on/off flag */
(PID.TID 0000.0001)                   T
(PID.TID 0000.0001)     ;
(PID.TID 0000.0001) linFSConserveTr = /* Tracer correction for Lin Free Surface on/off flag */
(PID.TID 0000.0001)                   F
(PID.TID 0000.0001)     ;
(PID.TID 0000.0001) nonlinFreeSurf = /* Non-linear Free Surf. options (-1,0,1,2,3)*/
(PID.TID 0000.0001)                       0
(PID.TID 0000.0001)      -1,0= Off ; 1,2,3= On, 2=+rescale gU,gV, 3=+update cg2d solv.
(PID.TID 0000.0001)     ;
(PID.TID 0000.0001) hFacInf =   /* lower threshold for hFac (nonlinFreeSurf only)*/
(PID.TID 0000.0001)                 2.000000000000000E-01
(PID.TID 0000.0001)     ;
(PID.TID 0000.0001) hFacSup =   /* upper threshold for hFac (nonlinFreeSurf only)*/
(PID.TID 0000.0001)                 2.000000000000000E+00
(PID.TID 0000.0001)     ;
(PID.TID 0000.0001) select_rStar = /* r* Vertical coord. options (=0 r coord.; >0 uses r*)*/
(PID.TID 0000.0001)                       0
(PID.TID 0000.0001)     ;
(PID.TID 0000.0001) useRealFreshWaterFlux = /* Real Fresh Water Flux on/off flag*/
(PID.TID 0000.0001)                   F
(PID.TID 0000.0001)     ;
(PID.TID 0000.0001) temp_EvPrRn = /* Temp. of Evap/Prec/R (UNSET=use local T)(oC)*/
(PID.TID 0000.0001)                 1.234567000000000E+05
(PID.TID 0000.0001)     ;
(PID.TID 0000.0001) salt_EvPrRn = /* Salin. of Evap/Prec/R (UNSET=use local S)(g/kg)*/
(PID.TID 0000.0001)                 0.000000000000000E+00
(PID.TID 0000.0001)     ;
(PID.TID 0000.0001) selectAddFluid = /* option for mass source/sink of fluid (=0: off) */
(PID.TID 0000.0001)                       0
(PID.TID 0000.0001)     ;
(PID.TID 0000.0001) temp_addMass = /* Temp. of addMass array (UNSET=use local T)(oC)*/
(PID.TID 0000.0001)                 1.234567000000000E+05
(PID.TID 0000.0001)     ;
(PID.TID 0000.0001) salt_addMass = /* Salin. of addMass array (UNSET=use local S)(g/kg)*/
(PID.TID 0000.0001)                 0.000000000000000E+00
(PID.TID 0000.0001)     ;
(PID.TID 0000.0001) convertFW2Salt = /* convert F.W. Flux to Salt Flux (-1=use local S)(g/kg)*/
(PID.TID 0000.0001)                 3.500000000000000E+01
(PID.TID 0000.0001)     ;
(PID.TID 0000.0001) use3Dsolver = /* use 3-D pressure solver on/off flag */
(PID.TID 0000.0001)                   F
(PID.TID 0000.0001)     ;
(PID.TID 0000.0001) nonHydrostatic =  /* Non-Hydrostatic on/off flag */
(PID.TID 0000.0001)                   F
(PID.TID 0000.0001)     ;
(PID.TID 0000.0001) nh_Am2 = /* Non-Hydrostatic terms scaling factor */
(PID.TID 0000.0001)                 1.000000000000000E+00
(PID.TID 0000.0001)     ;
(PID.TID 0000.0001) implicitNHPress = /* Non-Hyd Pressure implicit factor (0-1)*/
(PID.TID 0000.0001)                 1.000000000000000E+00
(PID.TID 0000.0001)     ;
(PID.TID 0000.0001) selectNHfreeSurf = /* Non-Hyd (free-)Surface option */
(PID.TID 0000.0001)                       0
(PID.TID 0000.0001)     ;
(PID.TID 0000.0001) quasiHydrostatic = /* Quasi-Hydrostatic on/off flag */
(PID.TID 0000.0001)                   F
(PID.TID 0000.0001)     ;
(PID.TID 0000.0001) calc_wVelocity = /* vertical velocity calculation on/off flag */
(PID.TID 0000.0001)                   T
(PID.TID 0000.0001)     ;
(PID.TID 0000.0001) momStepping =  /* Momentum equation on/off flag */
(PID.TID 0000.0001)                   T
(PID.TID 0000.0001)     ;
(PID.TID 0000.0001) vectorInvariantMomentum= /* Vector-Invariant Momentum on/off */
(PID.TID 0000.0001)                   F
(PID.TID 0000.0001)     ;
(PID.TID 0000.0001) momAdvection =  /* Momentum advection on/off flag */
(PID.TID 0000.0001)                   T
(PID.TID 0000.0001)     ;
(PID.TID 0000.0001) momViscosity =  /* Momentum viscosity on/off flag */
(PID.TID 0000.0001)                   T
(PID.TID 0000.0001)     ;
(PID.TID 0000.0001) momImplVertAdv= /* Momentum implicit vert. advection on/off*/
(PID.TID 0000.0001)                   F
(PID.TID 0000.0001)     ;
(PID.TID 0000.0001) implicitViscosity = /* Implicit viscosity on/off flag */
(PID.TID 0000.0001)                   F
(PID.TID 0000.0001)     ;
(PID.TID 0000.0001) selectImplicitDrag= /* Implicit bot Drag options (0,1,2)*/
(PID.TID 0000.0001)                       0
(PID.TID 0000.0001)     0= Expl. ; 1= Impl. on provis. Vel ; 2= Fully Impl (with surf.P)
(PID.TID 0000.0001)     ;
(PID.TID 0000.0001) metricTerms =  /* metric-Terms on/off flag */
(PID.TID 0000.0001)                   T
(PID.TID 0000.0001)     ;
(PID.TID 0000.0001) useNHMTerms = /* Non-Hydrostatic Metric-Terms on/off */
(PID.TID 0000.0001)                   F
(PID.TID 0000.0001)     ;
(PID.TID 0000.0001) selectCoriMap = /* Coriolis Map options (0,1,2,3)*/
(PID.TID 0000.0001)                       2
(PID.TID 0000.0001)     0= f-Plane ; 1= Beta-Plane ; 2= Spherical ; 3= read from file
(PID.TID 0000.0001)     ;
(PID.TID 0000.0001) use3dCoriolis = /* 3-D Coriolis on/off flag */
(PID.TID 0000.0001)                   F
(PID.TID 0000.0001)     ;
(PID.TID 0000.0001) useCoriolis =  /* Coriolis on/off flag */
(PID.TID 0000.0001)                   T
(PID.TID 0000.0001)     ;
(PID.TID 0000.0001) useCDscheme =  /* CD scheme on/off flag */
(PID.TID 0000.0001)                   F
(PID.TID 0000.0001)     ;
(PID.TID 0000.0001) selectCoriScheme= /* Scheme selector for Coriolis-Term */
(PID.TID 0000.0001)                       0
(PID.TID 0000.0001)    = 0 : original discretization (simple averaging, no hFac)
(PID.TID 0000.0001)    = 1 : Wet-point averaging (Jamar & Ozer 1986)
(PID.TID 0000.0001)    = 2 : energy conserving scheme (no hFac weight)
(PID.TID 0000.0001)    = 3 : energy conserving scheme using Wet-point averaging
(PID.TID 0000.0001)     ;
(PID.TID 0000.0001) momForcing =  /* Momentum forcing on/off flag */
(PID.TID 0000.0001)                   T
(PID.TID 0000.0001)     ;
(PID.TID 0000.0001) momTidalForcing = /* Momentum Tidal forcing on/off flag */
(PID.TID 0000.0001)                   T
(PID.TID 0000.0001)     ;
(PID.TID 0000.0001) momPressureForcing =  /* Momentum pressure term on/off flag */
(PID.TID 0000.0001)                   T
(PID.TID 0000.0001)     ;
(PID.TID 0000.0001) implicitIntGravWave= /* Implicit Internal Gravity Wave flag */
(PID.TID 0000.0001)                   F
(PID.TID 0000.0001)     ;
(PID.TID 0000.0001) staggerTimeStep =    /* Stagger time stepping on/off flag */
(PID.TID 0000.0001)                   F
(PID.TID 0000.0001)     ;
(PID.TID 0000.0001) doResetHFactors = /* reset thickness factors @ each time-step */
(PID.TID 0000.0001)                   F
(PID.TID 0000.0001)     ;
(PID.TID 0000.0001) multiDimAdvection =  /* enable/disable Multi-Dim Advection */
(PID.TID 0000.0001)                   T
(PID.TID 0000.0001)     ;
(PID.TID 0000.0001) useMultiDimAdvec =   /* Multi-Dim Advection is/is-not used */
(PID.TID 0000.0001)                   F
(PID.TID 0000.0001)     ;
(PID.TID 0000.0001) implicitDiffusion = /* Implicit Diffusion on/off flag */
(PID.TID 0000.0001)                   T
(PID.TID 0000.0001)     ;
(PID.TID 0000.0001) tempStepping =  /* Temperature equation on/off flag */
(PID.TID 0000.0001)                   T
(PID.TID 0000.0001)     ;
(PID.TID 0000.0001) tempAdvection = /* Temperature advection on/off flag */
(PID.TID 0000.0001)                   T
(PID.TID 0000.0001)     ;
(PID.TID 0000.0001) tempImplVertAdv = /* Temp. implicit vert. advection on/off */
(PID.TID 0000.0001)                   F
(PID.TID 0000.0001)     ;
(PID.TID 0000.0001) tempForcing  =  /* Temperature forcing on/off flag */
(PID.TID 0000.0001)                   T
(PID.TID 0000.0001)     ;
(PID.TID 0000.0001) doThetaClimRelax = /* apply SST relaxation on/off flag */
(PID.TID 0000.0001)                   T
(PID.TID 0000.0001)     ;
(PID.TID 0000.0001) tempIsActiveTr = /* Temp. is a dynamically Active Tracer */
(PID.TID 0000.0001)                   T
(PID.TID 0000.0001)     ;
(PID.TID 0000.0001) saltStepping =  /* Salinity equation on/off flag */
(PID.TID 0000.0001)                   F
(PID.TID 0000.0001)     ;
(PID.TID 0000.0001) saltAdvection = /* Salinity advection on/off flag */
(PID.TID 0000.0001)                   F
(PID.TID 0000.0001)     ;
(PID.TID 0000.0001) saltImplVertAdv = /* Sali. implicit vert. advection on/off */
(PID.TID 0000.0001)                   F
(PID.TID 0000.0001)     ;
(PID.TID 0000.0001) saltForcing  =  /* Salinity forcing on/off flag */
(PID.TID 0000.0001)                   F
(PID.TID 0000.0001)     ;
(PID.TID 0000.0001) doSaltClimRelax = /* apply SSS relaxation on/off flag */
(PID.TID 0000.0001)                   F
(PID.TID 0000.0001)     ;
(PID.TID 0000.0001) saltIsActiveTr = /* Salt  is a dynamically Active Tracer */
(PID.TID 0000.0001)                   F
(PID.TID 0000.0001)     ;
(PID.TID 0000.0001)  readBinaryPrec = /* Precision used for reading binary files */
(PID.TID 0000.0001)                      32
(PID.TID 0000.0001)     ;
(PID.TID 0000.0001) writeBinaryPrec = /* Precision used for writing binary files */
(PID.TID 0000.0001)                      32
(PID.TID 0000.0001)     ;
(PID.TID 0000.0001)  rwSuffixType =   /* select format of mds file suffix */
(PID.TID 0000.0001)                       0
(PID.TID 0000.0001)    = 0 : myIter (I10.10) ;   = 1 : 100*myTime (100th sec) ;
(PID.TID 0000.0001)    = 2 : myTime (seconds);   = 3 : myTime/360 (10th of hr);
(PID.TID 0000.0001)    = 4 : myTime/3600 (hours)
(PID.TID 0000.0001)     ;
(PID.TID 0000.0001)  globalFiles = /* write "global" (=not per tile) files */
(PID.TID 0000.0001)                   F
(PID.TID 0000.0001)     ;
(PID.TID 0000.0001)  useSingleCpuIO = /* only master MPI process does I/O */
(PID.TID 0000.0001)                   F
(PID.TID 0000.0001)     ;
(PID.TID 0000.0001)  useSingleCpuInput = /* only master process reads input */
(PID.TID 0000.0001)                   F
(PID.TID 0000.0001)     ;
(PID.TID 0000.0001) /* debLev[*]  : level of debug & auxiliary message printing */
(PID.TID 0000.0001) debLevZero =  0 ; /* level of disabled aux. msg printing */
(PID.TID 0000.0001)    debLevA =  1 ; /* level of minimum  aux. msg printing */
(PID.TID 0000.0001)    debLevB =  2 ; /* level of low aux. print (report read-file opening)*/
(PID.TID 0000.0001)    debLevC =  3 ; /* level of moderate debug prt (most pkgs debug msg) */
(PID.TID 0000.0001)    debLevD =  4 ; /* level of enhanced debug prt (add DEBUG_STATS prt) */
(PID.TID 0000.0001)    debLevE =  5 ; /* level of extensive debug printing */
(PID.TID 0000.0001) debugLevel =  /* select debug printing level */
(PID.TID 0000.0001)                       1
(PID.TID 0000.0001)     ;
(PID.TID 0000.0001)  plotLevel =  /* select PLOT_FIELD printing level */
(PID.TID 0000.0001)                       1
(PID.TID 0000.0001)     ;
(PID.TID 0000.0001) //
(PID.TID 0000.0001) // Elliptic solver(s) paramters ( PARM02 in namelist )
(PID.TID 0000.0001) //
(PID.TID 0000.0001) cg2dMaxIters =   /* Upper limit on 2d con. grad iterations  */
(PID.TID 0000.0001)                    1000
(PID.TID 0000.0001)     ;
(PID.TID 0000.0001) cg2dMinItersNSA =   /* Minimum number of iterations of 2d con. grad solver  */
(PID.TID 0000.0001)                       0
(PID.TID 0000.0001)     ;
(PID.TID 0000.0001) cg2dUseMinResSol= /* use cg2d last-iter(=0) / min-resid.(=1) solution */
(PID.TID 0000.0001)                       0
(PID.TID 0000.0001)     ;
(PID.TID 0000.0001) cg2dTargetResidual =   /* 2d con. grad target residual  */
(PID.TID 0000.0001)                 1.000000000000000E-07
(PID.TID 0000.0001)     ;
(PID.TID 0000.0001) cg2dTargetResWunit =   /* CG2d target residual [W units] */
(PID.TID 0000.0001)                -1.000000000000000E+00
(PID.TID 0000.0001)     ;
(PID.TID 0000.0001) cg2dPreCondFreq =   /* Freq. for updating cg2d preconditioner */
(PID.TID 0000.0001)                       1
(PID.TID 0000.0001)     ;
(PID.TID 0000.0001) useSRCGSolver =  /* use single reduction CG solver(s) */
(PID.TID 0000.0001)                   F
(PID.TID 0000.0001)     ;
(PID.TID 0000.0001) useNSACGSolver =  /* use not-self-adjoint CG solver */
(PID.TID 0000.0001)                   F
(PID.TID 0000.0001)     ;
(PID.TID 0000.0001) printResidualFreq = /* Freq. for printing CG residual */
(PID.TID 0000.0001)                       0
(PID.TID 0000.0001)     ;
(PID.TID 0000.0001) //
(PID.TID 0000.0001) // Time stepping paramters ( PARM03 in namelist )
(PID.TID 0000.0001) //
(PID.TID 0000.0001) deltaTMom =   /* Momentum equation timestep ( s ) */
(PID.TID 0000.0001)                 1.200000000000000E+03
(PID.TID 0000.0001)     ;
(PID.TID 0000.0001) deltaTFreeSurf = /* FreeSurface equation timestep ( s ) */
(PID.TID 0000.0001)                 1.200000000000000E+03
(PID.TID 0000.0001)     ;
(PID.TID 0000.0001) dTtracerLev =  /* Tracer equation timestep ( s ) */
(PID.TID 0000.0001)    15 @  1.200000000000000E+03              /* K =  1: 15 */
(PID.TID 0000.0001)     ;
(PID.TID 0000.0001) deltaTClock  =   /* Model clock timestep ( s ) */
(PID.TID 0000.0001)                 1.200000000000000E+03
(PID.TID 0000.0001)     ;
(PID.TID 0000.0001) cAdjFreq =   /* Convective adjustment interval ( s ) */
(PID.TID 0000.0001)                 0.000000000000000E+00
(PID.TID 0000.0001)     ;
(PID.TID 0000.0001) momForcingOutAB = /* =1: take Momentum Forcing out of Adams-Bash. stepping */
(PID.TID 0000.0001)                       0
(PID.TID 0000.0001)     ;
(PID.TID 0000.0001) tracForcingOutAB = /* =1: take T,S,pTr Forcing out of Adams-Bash. stepping */
(PID.TID 0000.0001)                       0
(PID.TID 0000.0001)     ;
(PID.TID 0000.0001) momDissip_In_AB = /* put Dissipation Tendency in Adams-Bash. stepping */
(PID.TID 0000.0001)                   T
(PID.TID 0000.0001)     ;
(PID.TID 0000.0001) doAB_onGtGs = /* apply AB on Tendencies (rather than on T,S)*/
(PID.TID 0000.0001)                   T
(PID.TID 0000.0001)     ;
(PID.TID 0000.0001) abEps =   /* Adams-Bashforth-2 stabilizing weight */
(PID.TID 0000.0001)                 1.000000000000000E-02
(PID.TID 0000.0001)     ;
(PID.TID 0000.0001) applyExchUV_early = /* Apply EXCH to U,V earlier in time-step */
(PID.TID 0000.0001)                   F
(PID.TID 0000.0001)     ;
(PID.TID 0000.0001) pickupStrictlyMatch= /* stop if pickup do not strictly match */
(PID.TID 0000.0001)                   T
(PID.TID 0000.0001)     ;
(PID.TID 0000.0001) nIter0   =   /* Run starting timestep number */
(PID.TID 0000.0001)                       0
(PID.TID 0000.0001)     ;
(PID.TID 0000.0001) nTimeSteps = /* Number of timesteps */
(PID.TID 0000.0001)                      10
(PID.TID 0000.0001)     ;
(PID.TID 0000.0001) nEndIter =   /* Run ending timestep number */
(PID.TID 0000.0001)                      10
(PID.TID 0000.0001)     ;
(PID.TID 0000.0001) baseTime =   /* Model base time ( s ) */
(PID.TID 0000.0001)                 0.000000000000000E+00
(PID.TID 0000.0001)     ;
(PID.TID 0000.0001) startTime =  /* Run start time ( s ) */
(PID.TID 0000.0001)                 0.000000000000000E+00
(PID.TID 0000.0001)     ;
(PID.TID 0000.0001) endTime  =   /* Integration ending time ( s ) */
(PID.TID 0000.0001)                 1.200000000000000E+04
(PID.TID 0000.0001)     ;
(PID.TID 0000.0001) pChkPtFreq = /* Permanent restart/pickup file interval ( s ) */
(PID.TID 0000.0001)                 6.220800000000000E+08
(PID.TID 0000.0001)     ;
(PID.TID 0000.0001) chkPtFreq  = /* Rolling restart/pickup file interval ( s ) */
(PID.TID 0000.0001)                 1.555200000000000E+08
(PID.TID 0000.0001)     ;
(PID.TID 0000.0001) pickup_write_mdsio =   /* Model IO flag. */
(PID.TID 0000.0001)                   T
(PID.TID 0000.0001)     ;
(PID.TID 0000.0001) pickup_read_mdsio =   /* Model IO flag. */
(PID.TID 0000.0001)                   T
(PID.TID 0000.0001)     ;
(PID.TID 0000.0001) writePickupAtEnd =   /* Model IO flag. */
(PID.TID 0000.0001)                   T
(PID.TID 0000.0001)     ;
(PID.TID 0000.0001) dumpFreq =   /* Model state write out interval ( s ). */
(PID.TID 0000.0001)                 3.110400000000000E+07
(PID.TID 0000.0001)     ;
(PID.TID 0000.0001) dumpInitAndLast= /* write out Initial & Last iter. model state */
(PID.TID 0000.0001)                   T
(PID.TID 0000.0001)     ;
(PID.TID 0000.0001) snapshot_mdsio =   /* Model IO flag. */
(PID.TID 0000.0001)                   T
(PID.TID 0000.0001)     ;
(PID.TID 0000.0001) monitorFreq =   /* Monitor output interval ( s ). */
(PID.TID 0000.0001)                 1.200000000000000E+03
(PID.TID 0000.0001)     ;
(PID.TID 0000.0001) monitorSelect = /* select group of variables to monitor */
(PID.TID 0000.0001)                       2
(PID.TID 0000.0001)     ;
(PID.TID 0000.0001) monitor_stdio =   /* Model IO flag. */
(PID.TID 0000.0001)                   T
(PID.TID 0000.0001)     ;
(PID.TID 0000.0001) externForcingPeriod =   /* forcing period (s) */
(PID.TID 0000.0001)                 0.000000000000000E+00
(PID.TID 0000.0001)     ;
(PID.TID 0000.0001) externForcingCycle =   /* period of the cyle (s). */
(PID.TID 0000.0001)                 0.000000000000000E+00
(PID.TID 0000.0001)     ;
(PID.TID 0000.0001) tauThetaClimRelax =   /* relaxation time scale (s) */
(PID.TID 0000.0001)                 2.592000000000000E+06
(PID.TID 0000.0001)     ;
(PID.TID 0000.0001) tauSaltClimRelax =   /* relaxation time scale (s) */
(PID.TID 0000.0001)                 0.000000000000000E+00
(PID.TID 0000.0001)     ;
(PID.TID 0000.0001) latBandClimRelax =   /* max. Lat. where relaxation */
(PID.TID 0000.0001)                 1.800000000000000E+02
(PID.TID 0000.0001)     ;
(PID.TID 0000.0001) //
(PID.TID 0000.0001) // Gridding paramters ( PARM04 in namelist )
(PID.TID 0000.0001) //
(PID.TID 0000.0001) usingCartesianGrid = /* Cartesian coordinates flag ( True/False ) */
(PID.TID 0000.0001)                   F
(PID.TID 0000.0001)     ;
(PID.TID 0000.0001) usingCylindricalGrid = /* Cylindrical coordinates flag ( True/False ) */
(PID.TID 0000.0001)                   F
(PID.TID 0000.0001)     ;
(PID.TID 0000.0001) usingSphericalPolarGrid = /* Spherical coordinates flag ( True/False ) */
(PID.TID 0000.0001)                   T
(PID.TID 0000.0001)     ;
(PID.TID 0000.0001) usingCurvilinearGrid = /* Curvilinear coordinates flag ( True/False ) */
(PID.TID 0000.0001)                   F
(PID.TID 0000.0001)     ;
(PID.TID 0000.0001) useMin4hFacEdges = /* set hFacW,S as minimum of adjacent hFacC factor */
(PID.TID 0000.0001)                   F
(PID.TID 0000.0001)     ;
(PID.TID 0000.0001) interViscAr_pCell = /* account for partial-cell in interior vert. viscosity */
(PID.TID 0000.0001)                   F
(PID.TID 0000.0001)     ;
(PID.TID 0000.0001) interDiffKr_pCell = /* account for partial-cell in interior vert. diffusion */
(PID.TID 0000.0001)                   F
(PID.TID 0000.0001)     ;
(PID.TID 0000.0001) pCellMix_select = /* option to enhance mixing near surface & bottom */
(PID.TID 0000.0001)                       0
(PID.TID 0000.0001)     ;
(PID.TID 0000.0001) selectSigmaCoord = /* Hybrid-Sigma Vert. Coordinate option */
(PID.TID 0000.0001)                       0
(PID.TID 0000.0001)     ;
(PID.TID 0000.0001) rSigmaBnd = /* r/sigma transition ( units of r ==  m ) */
(PID.TID 0000.0001)                 1.234567000000000E+05
(PID.TID 0000.0001)     ;
(PID.TID 0000.0001) rkSign =   /* index orientation relative to vertical coordinate */
(PID.TID 0000.0001)                -1.000000000000000E+00
(PID.TID 0000.0001)     ;
(PID.TID 0000.0001) gravitySign = /* gravity orientation relative to vertical coordinate */
(PID.TID 0000.0001)                -1.000000000000000E+00
(PID.TID 0000.0001)     ;
(PID.TID 0000.0001) seaLev_Z =  /* reference height of sea-level [m] */
(PID.TID 0000.0001)                 0.000000000000000E+00
(PID.TID 0000.0001)     ;
(PID.TID 0000.0001) top_Pres =  /* reference pressure at the top [Pa] */
(PID.TID 0000.0001)                 0.000000000000000E+00
(PID.TID 0000.0001)     ;
(PID.TID 0000.0001) mass2rUnit = /* convert mass per unit area [kg/m2] to r-units [m] */
(PID.TID 0000.0001)                 1.000200040008002E-03
(PID.TID 0000.0001)     ;
(PID.TID 0000.0001) rUnit2mass = /* convert r-units [m] to mass per unit area [kg/m2] */
(PID.TID 0000.0001)                 9.998000000000000E+02
(PID.TID 0000.0001)     ;
(PID.TID 0000.0001) drC =   /* C spacing ( units of r ) */
(PID.TID 0000.0001)                 2.500000000000000E+01,      /* K =  1 */
(PID.TID 0000.0001)                 5.500000000000000E+01,      /* K =  2 */
(PID.TID 0000.0001)                 6.500000000000000E+01,      /* K =  3 */
(PID.TID 0000.0001)                 7.500000000000000E+01,      /* K =  4 */
(PID.TID 0000.0001)                 8.500000000000000E+01,      /* K =  5 */
(PID.TID 0000.0001)                 9.500000000000000E+01,      /* K =  6 */
(PID.TID 0000.0001)                 1.050000000000000E+02,      /* K =  7 */
(PID.TID 0000.0001)                 1.150000000000000E+02,      /* K =  8 */
(PID.TID 0000.0001)                 1.250000000000000E+02,      /* K =  9 */
(PID.TID 0000.0001)                 1.350000000000000E+02,      /* K = 10 */
(PID.TID 0000.0001)                 1.450000000000000E+02,      /* K = 11 */
(PID.TID 0000.0001)                 1.550000000000000E+02,      /* K = 12 */
(PID.TID 0000.0001)                 1.650000000000000E+02,      /* K = 13 */
(PID.TID 0000.0001)                 1.750000000000000E+02,      /* K = 14 */
(PID.TID 0000.0001)                 1.850000000000000E+02,      /* K = 15 */
(PID.TID 0000.0001)                 9.500000000000000E+01       /* K = 16 */
(PID.TID 0000.0001)     ;
(PID.TID 0000.0001) drF =   /* W spacing ( units of r ) */
(PID.TID 0000.0001)                 5.000000000000000E+01,      /* K =  1 */
(PID.TID 0000.0001)                 6.000000000000000E+01,      /* K =  2 */
(PID.TID 0000.0001)                 7.000000000000000E+01,      /* K =  3 */
(PID.TID 0000.0001)                 8.000000000000000E+01,      /* K =  4 */
(PID.TID 0000.0001)                 9.000000000000000E+01,      /* K =  5 */
(PID.TID 0000.0001)                 1.000000000000000E+02,      /* K =  6 */
(PID.TID 0000.0001)                 1.100000000000000E+02,      /* K =  7 */
(PID.TID 0000.0001)                 1.200000000000000E+02,      /* K =  8 */
(PID.TID 0000.0001)                 1.300000000000000E+02,      /* K =  9 */
(PID.TID 0000.0001)                 1.400000000000000E+02,      /* K = 10 */
(PID.TID 0000.0001)                 1.500000000000000E+02,      /* K = 11 */
(PID.TID 0000.0001)                 1.600000000000000E+02,      /* K = 12 */
(PID.TID 0000.0001)                 1.700000000000000E+02,      /* K = 13 */
(PID.TID 0000.0001)                 1.800000000000000E+02,      /* K = 14 */
(PID.TID 0000.0001)                 1.900000000000000E+02       /* K = 15 */
(PID.TID 0000.0001)     ;
(PID.TID 0000.0001) delX = /* U spacing ( m - cartesian, degrees - spherical ) */
(PID.TID 0000.0001)    62 @  1.000000000000000E+00              /* I =  1: 62 */
(PID.TID 0000.0001)     ;
(PID.TID 0000.0001) delY = /* V spacing ( m - cartesian, degrees - spherical ) */
(PID.TID 0000.0001)    62 @  1.000000000000000E+00              /* J =  1: 62 */
(PID.TID 0000.0001)     ;
(PID.TID 0000.0001) xgOrigin = /* X-axis origin of West  edge (cartesian: m, lat-lon: deg) */
(PID.TID 0000.0001)                -1.000000000000000E+00
(PID.TID 0000.0001)     ;
(PID.TID 0000.0001) ygOrigin = /* Y-axis origin of South edge (cartesian: m, lat-lon: deg) */
(PID.TID 0000.0001)                 1.400000000000000E+01
(PID.TID 0000.0001)     ;
(PID.TID 0000.0001) rSphere =  /* Radius ( ignored - cartesian, m - spherical ) */
(PID.TID 0000.0001)                 6.370000000000000E+06
(PID.TID 0000.0001)     ;
(PID.TID 0000.0001) deepAtmosphere = /* Deep/Shallow Atmosphere flag (True/False) */
(PID.TID 0000.0001)                   F
(PID.TID 0000.0001)     ;
(PID.TID 0000.0001) xC =  /* xC(:,1,:,1) : P-point X coord ( deg. or m if cartesian) */
(PID.TID 0000.0001)                -5.000000000000000E-01,      /* I =  1 */
(PID.TID 0000.0001)                 5.000000000000000E-01,      /* I =  2 */
(PID.TID 0000.0001)                 1.500000000000000E+00,      /* I =  3 */
(PID.TID 0000.0001)                 2.500000000000000E+00,      /* I =  4 */
(PID.TID 0000.0001)                 3.500000000000000E+00,      /* I =  5 */
(PID.TID 0000.0001)                 4.500000000000000E+00,      /* I =  6 */
(PID.TID 0000.0001)                 5.500000000000000E+00,      /* I =  7 */
(PID.TID 0000.0001)                 6.500000000000000E+00,      /* I =  8 */
(PID.TID 0000.0001)                 7.500000000000000E+00,      /* I =  9 */
(PID.TID 0000.0001)                 8.500000000000000E+00,      /* I = 10 */
(PID.TID 0000.0001)                 9.500000000000000E+00,      /* I = 11 */
(PID.TID 0000.0001)                 1.050000000000000E+01,      /* I = 12 */
(PID.TID 0000.0001)                 1.150000000000000E+01,      /* I = 13 */
(PID.TID 0000.0001)                 1.250000000000000E+01,      /* I = 14 */
(PID.TID 0000.0001)                 1.350000000000000E+01,      /* I = 15 */
(PID.TID 0000.0001)                 1.450000000000000E+01,      /* I = 16 */
(PID.TID 0000.0001)                 1.550000000000000E+01,      /* I = 17 */
(PID.TID 0000.0001)                 1.650000000000000E+01,      /* I = 18 */
(PID.TID 0000.0001)                 1.750000000000000E+01,      /* I = 19 */
(PID.TID 0000.0001)                 1.850000000000000E+01,      /* I = 20 */
(PID.TID 0000.0001)                 1.950000000000000E+01,      /* I = 21 */
(PID.TID 0000.0001)                 2.050000000000000E+01,      /* I = 22 */
(PID.TID 0000.0001)                 2.150000000000000E+01,      /* I = 23 */
(PID.TID 0000.0001)                 2.250000000000000E+01,      /* I = 24 */
(PID.TID 0000.0001)                 2.350000000000000E+01,      /* I = 25 */
(PID.TID 0000.0001)                 2.450000000000000E+01,      /* I = 26 */
(PID.TID 0000.0001)                 2.550000000000000E+01,      /* I = 27 */
(PID.TID 0000.0001)                 2.650000000000000E+01,      /* I = 28 */
(PID.TID 0000.0001)                 2.750000000000000E+01,      /* I = 29 */
(PID.TID 0000.0001)                 2.850000000000000E+01,      /* I = 30 */
(PID.TID 0000.0001)                 2.950000000000000E+01,      /* I = 31 */
(PID.TID 0000.0001)                 3.050000000000000E+01,      /* I = 32 */
(PID.TID 0000.0001)                 3.150000000000000E+01,      /* I = 33 */
(PID.TID 0000.0001)                 3.250000000000000E+01,      /* I = 34 */
(PID.TID 0000.0001)                 3.350000000000000E+01,      /* I = 35 */
(PID.TID 0000.0001)                 3.450000000000000E+01,      /* I = 36 */
(PID.TID 0000.0001)                 3.550000000000000E+01,      /* I = 37 */
(PID.TID 0000.0001)                 3.650000000000000E+01,      /* I = 38 */
(PID.TID 0000.0001)                 3.750000000000000E+01,      /* I = 39 */
(PID.TID 0000.0001)                 3.850000000000000E+01,      /* I = 40 */
(PID.TID 0000.0001)                 3.950000000000000E+01,      /* I = 41 */
(PID.TID 0000.0001)                 4.050000000000000E+01,      /* I = 42 */
(PID.TID 0000.0001)                 4.150000000000000E+01,      /* I = 43 */
(PID.TID 0000.0001)                 4.250000000000000E+01,      /* I = 44 */
(PID.TID 0000.0001)                 4.350000000000000E+01,      /* I = 45 */
(PID.TID 0000.0001)                 4.450000000000000E+01,      /* I = 46 */
(PID.TID 0000.0001)                 4.550000000000000E+01,      /* I = 47 */
(PID.TID 0000.0001)                 4.650000000000000E+01,      /* I = 48 */
(PID.TID 0000.0001)                 4.750000000000000E+01,      /* I = 49 */
(PID.TID 0000.0001)                 4.850000000000000E+01,      /* I = 50 */
(PID.TID 0000.0001)                 4.950000000000000E+01,      /* I = 51 */
(PID.TID 0000.0001)                 5.050000000000000E+01,      /* I = 52 */
(PID.TID 0000.0001)                 5.150000000000000E+01,      /* I = 53 */
(PID.TID 0000.0001)                 5.250000000000000E+01,      /* I = 54 */
(PID.TID 0000.0001)                 5.350000000000000E+01,      /* I = 55 */
(PID.TID 0000.0001)                 5.450000000000000E+01,      /* I = 56 */
(PID.TID 0000.0001)                 5.550000000000000E+01,      /* I = 57 */
(PID.TID 0000.0001)                 5.650000000000000E+01,      /* I = 58 */
(PID.TID 0000.0001)                 5.750000000000000E+01,      /* I = 59 */
(PID.TID 0000.0001)                 5.850000000000000E+01,      /* I = 60 */
(PID.TID 0000.0001)                 5.950000000000000E+01,      /* I = 61 */
(PID.TID 0000.0001)                 6.050000000000000E+01       /* I = 62 */
(PID.TID 0000.0001)     ;
(PID.TID 0000.0001) yC =  /* yC(1,:,1,:) : P-point Y coord ( deg. or m if cartesian) */
(PID.TID 0000.0001)                 1.450000000000000E+01,      /* J =  1 */
(PID.TID 0000.0001)                 1.550000000000000E+01,      /* J =  2 */
(PID.TID 0000.0001)                 1.650000000000000E+01,      /* J =  3 */
(PID.TID 0000.0001)                 1.750000000000000E+01,      /* J =  4 */
(PID.TID 0000.0001)                 1.850000000000000E+01,      /* J =  5 */
(PID.TID 0000.0001)                 1.950000000000000E+01,      /* J =  6 */
(PID.TID 0000.0001)                 2.050000000000000E+01,      /* J =  7 */
(PID.TID 0000.0001)                 2.150000000000000E+01,      /* J =  8 */
(PID.TID 0000.0001)                 2.250000000000000E+01,      /* J =  9 */
(PID.TID 0000.0001)                 2.350000000000000E+01,      /* J = 10 */
(PID.TID 0000.0001)                 2.450000000000000E+01,      /* J = 11 */
(PID.TID 0000.0001)                 2.550000000000000E+01,      /* J = 12 */
(PID.TID 0000.0001)                 2.650000000000000E+01,      /* J = 13 */
(PID.TID 0000.0001)                 2.750000000000000E+01,      /* J = 14 */
(PID.TID 0000.0001)                 2.850000000000000E+01,      /* J = 15 */
(PID.TID 0000.0001)                 2.950000000000000E+01,      /* J = 16 */
(PID.TID 0000.0001)                 3.050000000000000E+01,      /* J = 17 */
(PID.TID 0000.0001)                 3.150000000000000E+01,      /* J = 18 */
(PID.TID 0000.0001)                 3.250000000000000E+01,      /* J = 19 */
(PID.TID 0000.0001)                 3.350000000000000E+01,      /* J = 20 */
(PID.TID 0000.0001)                 3.450000000000000E+01,      /* J = 21 */
(PID.TID 0000.0001)                 3.550000000000000E+01,      /* J = 22 */
(PID.TID 0000.0001)                 3.650000000000000E+01,      /* J = 23 */
(PID.TID 0000.0001)                 3.750000000000000E+01,      /* J = 24 */
(PID.TID 0000.0001)                 3.850000000000000E+01,      /* J = 25 */
(PID.TID 0000.0001)                 3.950000000000000E+01,      /* J = 26 */
(PID.TID 0000.0001)                 4.050000000000000E+01,      /* J = 27 */
(PID.TID 0000.0001)                 4.150000000000000E+01,      /* J = 28 */
(PID.TID 0000.0001)                 4.250000000000000E+01,      /* J = 29 */
(PID.TID 0000.0001)                 4.350000000000000E+01,      /* J = 30 */
(PID.TID 0000.0001)                 4.450000000000000E+01,      /* J = 31 */
(PID.TID 0000.0001)                 4.550000000000000E+01,      /* J = 32 */
(PID.TID 0000.0001)                 4.650000000000000E+01,      /* J = 33 */
(PID.TID 0000.0001)                 4.750000000000000E+01,      /* J = 34 */
(PID.TID 0000.0001)                 4.850000000000000E+01,      /* J = 35 */
(PID.TID 0000.0001)                 4.950000000000000E+01,      /* J = 36 */
(PID.TID 0000.0001)                 5.050000000000000E+01,      /* J = 37 */
(PID.TID 0000.0001)                 5.150000000000000E+01,      /* J = 38 */
(PID.TID 0000.0001)                 5.250000000000000E+01,      /* J = 39 */
(PID.TID 0000.0001)                 5.350000000000000E+01,      /* J = 40 */
(PID.TID 0000.0001)                 5.450000000000000E+01,      /* J = 41 */
(PID.TID 0000.0001)                 5.550000000000000E+01,      /* J = 42 */
(PID.TID 0000.0001)                 5.650000000000000E+01,      /* J = 43 */
(PID.TID 0000.0001)                 5.750000000000000E+01,      /* J = 44 */
(PID.TID 0000.0001)                 5.850000000000000E+01,      /* J = 45 */
(PID.TID 0000.0001)                 5.950000000000000E+01,      /* J = 46 */
(PID.TID 0000.0001)                 6.050000000000000E+01,      /* J = 47 */
(PID.TID 0000.0001)                 6.150000000000000E+01,      /* J = 48 */
(PID.TID 0000.0001)                 6.250000000000000E+01,      /* J = 49 */
(PID.TID 0000.0001)                 6.350000000000000E+01,      /* J = 50 */
(PID.TID 0000.0001)                 6.450000000000000E+01,      /* J = 51 */
(PID.TID 0000.0001)                 6.550000000000000E+01,      /* J = 52 */
(PID.TID 0000.0001)                 6.650000000000000E+01,      /* J = 53 */
(PID.TID 0000.0001)                 6.750000000000000E+01,      /* J = 54 */
(PID.TID 0000.0001)                 6.850000000000000E+01,      /* J = 55 */
(PID.TID 0000.0001)                 6.950000000000000E+01,      /* J = 56 */
(PID.TID 0000.0001)                 7.050000000000000E+01,      /* J = 57 */
(PID.TID 0000.0001)                 7.150000000000000E+01,      /* J = 58 */
(PID.TID 0000.0001)                 7.250000000000000E+01,      /* J = 59 */
(PID.TID 0000.0001)                 7.350000000000000E+01,      /* J = 60 */
(PID.TID 0000.0001)                 7.450000000000000E+01,      /* J = 61 */
(PID.TID 0000.0001)                 7.550000000000000E+01       /* J = 62 */
(PID.TID 0000.0001)     ;
(PID.TID 0000.0001) rcoord = /* P-point R coordinate (  units of r ) */
(PID.TID 0000.0001)                -2.500000000000000E+01,      /* K =  1 */
(PID.TID 0000.0001)                -8.000000000000000E+01,      /* K =  2 */
(PID.TID 0000.0001)                -1.450000000000000E+02,      /* K =  3 */
(PID.TID 0000.0001)                -2.200000000000000E+02,      /* K =  4 */
(PID.TID 0000.0001)                -3.050000000000000E+02,      /* K =  5 */
(PID.TID 0000.0001)                -4.000000000000000E+02,      /* K =  6 */
(PID.TID 0000.0001)                -5.050000000000000E+02,      /* K =  7 */
(PID.TID 0000.0001)                -6.200000000000000E+02,      /* K =  8 */
(PID.TID 0000.0001)                -7.450000000000000E+02,      /* K =  9 */
(PID.TID 0000.0001)                -8.800000000000000E+02,      /* K = 10 */
(PID.TID 0000.0001)                -1.025000000000000E+03,      /* K = 11 */
(PID.TID 0000.0001)                -1.180000000000000E+03,      /* K = 12 */
(PID.TID 0000.0001)                -1.345000000000000E+03,      /* K = 13 */
(PID.TID 0000.0001)                -1.520000000000000E+03,      /* K = 14 */
(PID.TID 0000.0001)                -1.705000000000000E+03       /* K = 15 */
(PID.TID 0000.0001)     ;
(PID.TID 0000.0001) rF =   /* W-Interf. R coordinate (  units of r ) */
(PID.TID 0000.0001)                 0.000000000000000E+00,      /* K =  1 */
(PID.TID 0000.0001)                -5.000000000000000E+01,      /* K =  2 */
(PID.TID 0000.0001)                -1.100000000000000E+02,      /* K =  3 */
(PID.TID 0000.0001)                -1.800000000000000E+02,      /* K =  4 */
(PID.TID 0000.0001)                -2.600000000000000E+02,      /* K =  5 */
(PID.TID 0000.0001)                -3.500000000000000E+02,      /* K =  6 */
(PID.TID 0000.0001)                -4.500000000000000E+02,      /* K =  7 */
(PID.TID 0000.0001)                -5.600000000000000E+02,      /* K =  8 */
(PID.TID 0000.0001)                -6.800000000000000E+02,      /* K =  9 */
(PID.TID 0000.0001)                -8.100000000000000E+02,      /* K = 10 */
(PID.TID 0000.0001)                -9.500000000000000E+02,      /* K = 11 */
(PID.TID 0000.0001)                -1.100000000000000E+03,      /* K = 12 */
(PID.TID 0000.0001)                -1.260000000000000E+03,      /* K = 13 */
(PID.TID 0000.0001)                -1.430000000000000E+03,      /* K = 14 */
(PID.TID 0000.0001)                -1.610000000000000E+03,      /* K = 15 */
(PID.TID 0000.0001)                -1.800000000000000E+03       /* K = 16 */
(PID.TID 0000.0001)     ;
(PID.TID 0000.0001) deepFacC = /* deep-model grid factor @ cell-Center (-) */
(PID.TID 0000.0001)    15 @  1.000000000000000E+00              /* K =  1: 15 */
(PID.TID 0000.0001)     ;
(PID.TID 0000.0001) deepFacF = /* deep-model grid factor @ W-Interface (-) */
(PID.TID 0000.0001)    16 @  1.000000000000000E+00              /* K =  1: 16 */
(PID.TID 0000.0001)     ;
(PID.TID 0000.0001) rotateGrid = /* use rotated grid ( True/False ) */
(PID.TID 0000.0001)                   F
(PID.TID 0000.0001)     ;
(PID.TID 0000.0001) phiEuler = /* Euler angle, rotation about original z-coordinate [rad] */
(PID.TID 0000.0001)                 0.000000000000000E+00
(PID.TID 0000.0001)     ;
(PID.TID 0000.0001) thetaEuler = /* Euler angle, rotation about new x-coordinate [rad] */
(PID.TID 0000.0001)                 0.000000000000000E+00
(PID.TID 0000.0001)     ;
(PID.TID 0000.0001) psiEuler = /* Euler angle, rotation about new z-coordinate [rad] */
(PID.TID 0000.0001)                 0.000000000000000E+00
(PID.TID 0000.0001)     ;
(PID.TID 0000.0001) dxF =  /* dxF(:,1,:,1) ( units: m ) */
(PID.TID 0000.0001)    62 @  1.076362084889763E+05              /* I =  1: 62 */
(PID.TID 0000.0001)     ;
(PID.TID 0000.0001) dxF =  /* dxF(1,:,1,:) ( units: m ) */
(PID.TID 0000.0001)                 1.076362084889763E+05,      /* J =  1 */
(PID.TID 0000.0001)                 1.071339990328147E+05,      /* J =  2 */
(PID.TID 0000.0001)                 1.065991555227174E+05,      /* J =  3 */
(PID.TID 0000.0001)                 1.060318408771987E+05,      /* J =  4 */
(PID.TID 0000.0001)                 1.054322279057952E+05,      /* J =  5 */
(PID.TID 0000.0001)                 1.048004992564268E+05,      /* J =  6 */
(PID.TID 0000.0001)                 1.041368473597596E+05,      /* J =  7 */
(PID.TID 0000.0001)                 1.034414743705903E+05,      /* J =  8 */
(PID.TID 0000.0001)                 1.027145921062676E+05,      /* J =  9 */
(PID.TID 0000.0001)                 1.019564219821708E+05,      /* J = 10 */
(PID.TID 0000.0001)                 1.011671949442642E+05,      /* J = 11 */
(PID.TID 0000.0001)                 1.003471513987490E+05,      /* J = 12 */
(PID.TID 0000.0001)                 9.949654113883300E+04,      /* J = 13 */
(PID.TID 0000.0001)                 9.861562326864147E+04,      /* J = 14 */
(PID.TID 0000.0001)                 9.770466612429133E+04,      /* J = 15 */
(PID.TID 0000.0001)                 9.676394719215338E+04,      /* J = 16 */
(PID.TID 0000.0001)                 9.579375302432729E+04,      /* J = 17 */
(PID.TID 0000.0001)                 9.479437915135507E+04,      /* J = 18 */
(PID.TID 0000.0001)                 9.376612999219958E+04,      /* J = 19 */
(PID.TID 0000.0001)                 9.270931876151556E+04,      /* J = 20 */
(PID.TID 0000.0001)                 9.162426737424143E+04,      /* J = 21 */
(PID.TID 0000.0001)                 9.051130634754093E+04,      /* J = 22 */
(PID.TID 0000.0001)                 8.937077470012422E+04,      /* J = 23 */
(PID.TID 0000.0001)                 8.820301984897976E+04,      /* J = 24 */
(PID.TID 0000.0001)                 8.700839750354744E+04,      /* J = 25 */
(PID.TID 0000.0001)                 8.578727155736629E+04,      /* J = 26 */
(PID.TID 0000.0001)                 8.454001397722875E+04,      /* J = 27 */
(PID.TID 0000.0001)                 8.326700468987630E+04,      /* J = 28 */
(PID.TID 0000.0001)                 8.196863146626968E+04,      /* J = 29 */
(PID.TID 0000.0001)                 8.064528980347051E+04,      /* J = 30 */
(PID.TID 0000.0001)                 7.929738280416872E+04,      /* J = 31 */
(PID.TID 0000.0001)                 7.792532105389379E+04,      /* J = 32 */
(PID.TID 0000.0001)                 7.652952249594631E+04,      /* J = 33 */
(PID.TID 0000.0001)                 7.511041230408842E+04,      /* J = 34 */
(PID.TID 0000.0001)                 7.366842275303182E+04,      /* J = 35 */
(PID.TID 0000.0001)                 7.220399308676260E+04,      /* J = 36 */
(PID.TID 0000.0001)                 7.071756938474336E+04,      /* J = 37 */
(PID.TID 0000.0001)                 6.920960442603305E+04,      /* J = 38 */
(PID.TID 0000.0001)                 6.768055755136610E+04,      /* J = 39 */
(PID.TID 0000.0001)                 6.613089452323271E+04,      /* J = 40 */
(PID.TID 0000.0001)                 6.456108738400316E+04,      /* J = 41 */
(PID.TID 0000.0001)                 6.297161431213917E+04,      /* J = 42 */
(PID.TID 0000.0001)                 6.136295947653597E+04,      /* J = 43 */
(PID.TID 0000.0001)                 5.973561288903989E+04,      /* J = 44 */
(PID.TID 0000.0001)                 5.809007025518592E+04,      /* J = 45 */
(PID.TID 0000.0001)                 5.642683282320108E+04,      /* J = 46 */
(PID.TID 0000.0001)                 5.474640723131929E+04,      /* J = 47 */
(PID.TID 0000.0001)                 5.304930535345447E+04,      /* J = 48 */
(PID.TID 0000.0001)                 5.133604414327884E+04,      /* J = 49 */
(PID.TID 0000.0001)                 4.960714547675374E+04,      /* J = 50 */
(PID.TID 0000.0001)                 4.786313599316124E+04,      /* J = 51 */
(PID.TID 0000.0001)                 4.610454693468459E+04,      /* J = 52 */
(PID.TID 0000.0001)                 4.433191398458684E+04,      /* J = 53 */
(PID.TID 0000.0001)                 4.254577710403652E+04,      /* J = 54 */
(PID.TID 0000.0001)                 4.074668036763009E+04,      /* J = 55 */
(PID.TID 0000.0001)                 3.893517179766173E+04,      /* J = 56 */
(PID.TID 0000.0001)                 3.711180319719033E+04,      /* J = 57 */
(PID.TID 0000.0001)                 3.527712998195495E+04,      /* J = 58 */
(PID.TID 0000.0001)                 3.343171101118984E+04,      /* J = 59 */
(PID.TID 0000.0001)                 3.157610841739049E+04,      /* J = 60 */
(PID.TID 0000.0001)                 2.971088743508253E+04,      /* J = 61 */
(PID.TID 0000.0001)                 2.783661622864603E+04       /* J = 62 */
(PID.TID 0000.0001)     ;
(PID.TID 0000.0001) dyF =  /* dyF(:,1,:,1) ( units: m ) */
(PID.TID 0000.0001)    62 @  1.111774733520388E+05              /* I =  1: 62 */
(PID.TID 0000.0001)     ;
(PID.TID 0000.0001) dyF =  /* dyF(1,:,1,:) ( units: m ) */
(PID.TID 0000.0001)    62 @  1.111774733520388E+05              /* J =  1: 62 */
(PID.TID 0000.0001)     ;
(PID.TID 0000.0001) dxG =  /* dxG(:,1,:,1) ( units: m ) */
(PID.TID 0000.0001)    62 @  1.078750272516467E+05              /* I =  1: 62 */
(PID.TID 0000.0001)     ;
(PID.TID 0000.0001) dxG =  /* dxG(1,:,1,:) ( units: m ) */
(PID.TID 0000.0001)                 1.078750272516467E+05,      /* J =  1 */
(PID.TID 0000.0001)                 1.073891928122989E+05,      /* J =  2 */
(PID.TID 0000.0001)                 1.068706465845181E+05,      /* J =  3 */
(PID.TID 0000.0001)                 1.063195465225083E+05,      /* J =  4 */
(PID.TID 0000.0001)                 1.057360604966873E+05,      /* J =  5 */
(PID.TID 0000.0001)                 1.051203662425507E+05,      /* J =  6 */
(PID.TID 0000.0001)                 1.044726513065328E+05,      /* J =  7 */
(PID.TID 0000.0001)                 1.037931129888776E+05,      /* J =  8 */
(PID.TID 0000.0001)                 1.030819582835396E+05,      /* J =  9 */
(PID.TID 0000.0001)                 1.023394038151311E+05,      /* J = 10 */
(PID.TID 0000.0001)                 1.015656757729363E+05,      /* J = 11 */
(PID.TID 0000.0001)                 1.007610098420124E+05,      /* J = 12 */
(PID.TID 0000.0001)                 9.992565113139676E+04,      /* J = 13 */
(PID.TID 0000.0001)                 9.905985409944497E+04,      /* J = 14 */
(PID.TID 0000.0001)                 9.816388247632016E+04,      /* J = 15 */
(PID.TID 0000.0001)                 9.723800918365814E+04,      /* J = 16 */
(PID.TID 0000.0001)                 9.628251625143307E+04,      /* J = 17 */
(PID.TID 0000.0001)                 9.529769473204811E+04,      /* J = 18 */
(PID.TID 0000.0001)                 9.428384461167829E+04,      /* J = 19 */
(PID.TID 0000.0001)                 9.324127471889161E+04,      /* J = 20 */
(PID.TID 0000.0001)                 9.217030263057706E+04,      /* J = 21 */
(PID.TID 0000.0001)                 9.107125457520749E+04,      /* J = 22 */
(PID.TID 0000.0001)                 8.994446533346725E+04,      /* J = 23 */
(PID.TID 0000.0001)                 8.879027813627481E+04,      /* J = 24 */
(PID.TID 0000.0001)                 8.760904456023134E+04,      /* J = 25 */
(PID.TID 0000.0001)                 8.640112442052695E+04,      /* J = 26 */
(PID.TID 0000.0001)                 8.516688566133757E+04,      /* J = 27 */
(PID.TID 0000.0001)                 8.390670424374563E+04,      /* J = 28 */
(PID.TID 0000.0001)                 8.262096403121852E+04,      /* J = 29 */
(PID.TID 0000.0001)                 8.131005667268025E+04,      /* J = 30 */
(PID.TID 0000.0001)                 7.997438148321130E+04,      /* J = 31 */
(PID.TID 0000.0001)                 7.861434532241331E+04,      /* J = 32 */
(PID.TID 0000.0001)                 7.723036247047585E+04,      /* J = 33 */
(PID.TID 0000.0001)                 7.582285450198258E+04,      /* J = 34 */
(PID.TID 0000.0001)                 7.439225015749552E+04,      /* J = 35 */
(PID.TID 0000.0001)                 7.293898521295657E+04,      /* J = 36 */
(PID.TID 0000.0001)                 7.146350234694594E+04,      /* J = 37 */
(PID.TID 0000.0001)                 6.996625100583794E+04,      /* J = 38 */
(PID.TID 0000.0001)                 6.844768726689526E+04,      /* J = 39 */
(PID.TID 0000.0001)                 6.690827369934347E+04,      /* J = 40 */
(PID.TID 0000.0001)                 6.534847922346782E+04,      /* J = 41 */
(PID.TID 0000.0001)                 6.376877896777581E+04,      /* J = 42 */
(PID.TID 0000.0001)                 6.216965412426815E+04,      /* J = 43 */
(PID.TID 0000.0001)                 6.055159180186330E+04,      /* J = 44 */
(PID.TID 0000.0001)                 5.891508487801914E+04,      /* J = 45 */
(PID.TID 0000.0001)                 5.726063184859791E+04,      /* J = 46 */
(PID.TID 0000.0001)                 5.558873667601941E+04,      /* J = 47 */
(PID.TID 0000.0001)                 5.389990863574919E+04,      /* J = 48 */
(PID.TID 0000.0001)                 5.219466216116839E+04,      /* J = 49 */
(PID.TID 0000.0001)                 5.047351668687224E+04,      /* J = 50 */
(PID.TID 0000.0001)                 4.873699649044534E+04,      /* J = 51 */
(PID.TID 0000.0001)                 4.698563053276157E+04,      /* J = 52 */
(PID.TID 0000.0001)                 4.521995229685750E+04,      /* J = 53 */
(PID.TID 0000.0001)                 4.344049962542827E+04,      /* J = 54 */
(PID.TID 0000.0001)                 4.164781455699558E+04,      /* J = 55 */
(PID.TID 0000.0001)                 3.984244316079742E+04,      /* J = 56 */
(PID.TID 0000.0001)                 3.802493537045003E+04,      /* J = 57 */
(PID.TID 0000.0001)                 3.619584481643300E+04,      /* J = 58 */
(PID.TID 0000.0001)                 3.435572865744784E+04,      /* J = 59 */
(PID.TID 0000.0001)                 3.250514741070222E+04,      /* J = 60 */
(PID.TID 0000.0001)                 3.064466478117086E+04,      /* J = 61 */
(PID.TID 0000.0001)                 2.877484748988563E+04       /* J = 62 */
(PID.TID 0000.0001)     ;
(PID.TID 0000.0001) dyG =  /* dyG(:,1,:,1) ( units: m ) */
(PID.TID 0000.0001)    62 @  1.111774733520388E+05              /* I =  1: 62 */
(PID.TID 0000.0001)     ;
(PID.TID 0000.0001) dyG =  /* dyG(1,:,1,:) ( units: m ) */
(PID.TID 0000.0001)    62 @  1.111774733520388E+05              /* J =  1: 62 */
(PID.TID 0000.0001)     ;
(PID.TID 0000.0001) dxC =  /* dxC(:,1,:,1) ( units: m ) */
(PID.TID 0000.0001)    62 @  1.076362084889763E+05              /* I =  1: 62 */
(PID.TID 0000.0001)     ;
(PID.TID 0000.0001) dxC =  /* dxC(1,:,1,:) ( units: m ) */
(PID.TID 0000.0001)                 1.076362084889763E+05,      /* J =  1 */
(PID.TID 0000.0001)                 1.071339990328147E+05,      /* J =  2 */
(PID.TID 0000.0001)                 1.065991555227174E+05,      /* J =  3 */
(PID.TID 0000.0001)                 1.060318408771987E+05,      /* J =  4 */
(PID.TID 0000.0001)                 1.054322279057952E+05,      /* J =  5 */
(PID.TID 0000.0001)                 1.048004992564268E+05,      /* J =  6 */
(PID.TID 0000.0001)                 1.041368473597596E+05,      /* J =  7 */
(PID.TID 0000.0001)                 1.034414743705903E+05,      /* J =  8 */
(PID.TID 0000.0001)                 1.027145921062676E+05,      /* J =  9 */
(PID.TID 0000.0001)                 1.019564219821708E+05,      /* J = 10 */
(PID.TID 0000.0001)                 1.011671949442642E+05,      /* J = 11 */
(PID.TID 0000.0001)                 1.003471513987490E+05,      /* J = 12 */
(PID.TID 0000.0001)                 9.949654113883300E+04,      /* J = 13 */
(PID.TID 0000.0001)                 9.861562326864147E+04,      /* J = 14 */
(PID.TID 0000.0001)                 9.770466612429133E+04,      /* J = 15 */
(PID.TID 0000.0001)                 9.676394719215338E+04,      /* J = 16 */
(PID.TID 0000.0001)                 9.579375302432729E+04,      /* J = 17 */
(PID.TID 0000.0001)                 9.479437915135507E+04,      /* J = 18 */
(PID.TID 0000.0001)                 9.376612999219958E+04,      /* J = 19 */
(PID.TID 0000.0001)                 9.270931876151556E+04,      /* J = 20 */
(PID.TID 0000.0001)                 9.162426737424143E+04,      /* J = 21 */
(PID.TID 0000.0001)                 9.051130634754093E+04,      /* J = 22 */
(PID.TID 0000.0001)                 8.937077470012422E+04,      /* J = 23 */
(PID.TID 0000.0001)                 8.820301984897976E+04,      /* J = 24 */
(PID.TID 0000.0001)                 8.700839750354744E+04,      /* J = 25 */
(PID.TID 0000.0001)                 8.578727155736629E+04,      /* J = 26 */
(PID.TID 0000.0001)                 8.454001397722875E+04,      /* J = 27 */
(PID.TID 0000.0001)                 8.326700468987630E+04,      /* J = 28 */
(PID.TID 0000.0001)                 8.196863146626968E+04,      /* J = 29 */
(PID.TID 0000.0001)                 8.064528980347051E+04,      /* J = 30 */
(PID.TID 0000.0001)                 7.929738280416872E+04,      /* J = 31 */
(PID.TID 0000.0001)                 7.792532105389379E+04,      /* J = 32 */
(PID.TID 0000.0001)                 7.652952249594631E+04,      /* J = 33 */
(PID.TID 0000.0001)                 7.511041230408842E+04,      /* J = 34 */
(PID.TID 0000.0001)                 7.366842275303182E+04,      /* J = 35 */
(PID.TID 0000.0001)                 7.220399308676260E+04,      /* J = 36 */
(PID.TID 0000.0001)                 7.071756938474336E+04,      /* J = 37 */
(PID.TID 0000.0001)                 6.920960442603305E+04,      /* J = 38 */
(PID.TID 0000.0001)                 6.768055755136610E+04,      /* J = 39 */
(PID.TID 0000.0001)                 6.613089452323271E+04,      /* J = 40 */
(PID.TID 0000.0001)                 6.456108738400316E+04,      /* J = 41 */
(PID.TID 0000.0001)                 6.297161431213917E+04,      /* J = 42 */
(PID.TID 0000.0001)                 6.136295947653597E+04,      /* J = 43 */
(PID.TID 0000.0001)                 5.973561288903989E+04,      /* J = 44 */
(PID.TID 0000.0001)                 5.809007025518592E+04,      /* J = 45 */
(PID.TID 0000.0001)                 5.642683282320108E+04,      /* J = 46 */
(PID.TID 0000.0001)                 5.474640723131929E+04,      /* J = 47 */
(PID.TID 0000.0001)                 5.304930535345447E+04,      /* J = 48 */
(PID.TID 0000.0001)                 5.133604414327884E+04,      /* J = 49 */
(PID.TID 0000.0001)                 4.960714547675374E+04,      /* J = 50 */
(PID.TID 0000.0001)                 4.786313599316124E+04,      /* J = 51 */
(PID.TID 0000.0001)                 4.610454693468459E+04,      /* J = 52 */
(PID.TID 0000.0001)                 4.433191398458684E+04,      /* J = 53 */
(PID.TID 0000.0001)                 4.254577710403652E+04,      /* J = 54 */
(PID.TID 0000.0001)                 4.074668036763009E+04,      /* J = 55 */
(PID.TID 0000.0001)                 3.893517179766173E+04,      /* J = 56 */
(PID.TID 0000.0001)                 3.711180319719033E+04,      /* J = 57 */
(PID.TID 0000.0001)                 3.527712998195495E+04,      /* J = 58 */
(PID.TID 0000.0001)                 3.343171101118984E+04,      /* J = 59 */
(PID.TID 0000.0001)                 3.157610841739049E+04,      /* J = 60 */
(PID.TID 0000.0001)                 2.971088743508253E+04,      /* J = 61 */
(PID.TID 0000.0001)                 2.783661622864603E+04       /* J = 62 */
(PID.TID 0000.0001)     ;
(PID.TID 0000.0001) dyC =  /* dyC(:,1,:,1) ( units: m ) */
(PID.TID 0000.0001)    62 @  1.111774733520388E+05              /* I =  1: 62 */
(PID.TID 0000.0001)     ;
(PID.TID 0000.0001) dyC =  /* dyC(1,:,1,:) ( units: m ) */
(PID.TID 0000.0001)    62 @  1.111774733520388E+05              /* J =  1: 62 */
(PID.TID 0000.0001)     ;
(PID.TID 0000.0001) dxV =  /* dxV(:,1,:,1) ( units: m ) */
(PID.TID 0000.0001)    62 @  1.078750272516467E+05              /* I =  1: 62 */
(PID.TID 0000.0001)     ;
(PID.TID 0000.0001) dxV =  /* dxV(1,:,1,:) ( units: m ) */
(PID.TID 0000.0001)                 1.078750272516467E+05,      /* J =  1 */
(PID.TID 0000.0001)                 1.073891928122989E+05,      /* J =  2 */
(PID.TID 0000.0001)                 1.068706465845181E+05,      /* J =  3 */
(PID.TID 0000.0001)                 1.063195465225083E+05,      /* J =  4 */
(PID.TID 0000.0001)                 1.057360604966873E+05,      /* J =  5 */
(PID.TID 0000.0001)                 1.051203662425507E+05,      /* J =  6 */
(PID.TID 0000.0001)                 1.044726513065328E+05,      /* J =  7 */
(PID.TID 0000.0001)                 1.037931129888776E+05,      /* J =  8 */
(PID.TID 0000.0001)                 1.030819582835396E+05,      /* J =  9 */
(PID.TID 0000.0001)                 1.023394038151311E+05,      /* J = 10 */
(PID.TID 0000.0001)                 1.015656757729363E+05,      /* J = 11 */
(PID.TID 0000.0001)                 1.007610098420124E+05,      /* J = 12 */
(PID.TID 0000.0001)                 9.992565113139676E+04,      /* J = 13 */
(PID.TID 0000.0001)                 9.905985409944497E+04,      /* J = 14 */
(PID.TID 0000.0001)                 9.816388247632016E+04,      /* J = 15 */
(PID.TID 0000.0001)                 9.723800918365814E+04,      /* J = 16 */
(PID.TID 0000.0001)                 9.628251625143307E+04,      /* J = 17 */
(PID.TID 0000.0001)                 9.529769473204811E+04,      /* J = 18 */
(PID.TID 0000.0001)                 9.428384461167829E+04,      /* J = 19 */
(PID.TID 0000.0001)                 9.324127471889161E+04,      /* J = 20 */
(PID.TID 0000.0001)                 9.217030263057706E+04,      /* J = 21 */
(PID.TID 0000.0001)                 9.107125457520749E+04,      /* J = 22 */
(PID.TID 0000.0001)                 8.994446533346725E+04,      /* J = 23 */
(PID.TID 0000.0001)                 8.879027813627481E+04,      /* J = 24 */
(PID.TID 0000.0001)                 8.760904456023134E+04,      /* J = 25 */
(PID.TID 0000.0001)                 8.640112442052695E+04,      /* J = 26 */
(PID.TID 0000.0001)                 8.516688566133757E+04,      /* J = 27 */
(PID.TID 0000.0001)                 8.390670424374563E+04,      /* J = 28 */
(PID.TID 0000.0001)                 8.262096403121852E+04,      /* J = 29 */
(PID.TID 0000.0001)                 8.131005667268025E+04,      /* J = 30 */
(PID.TID 0000.0001)                 7.997438148321130E+04,      /* J = 31 */
(PID.TID 0000.0001)                 7.861434532241331E+04,      /* J = 32 */
(PID.TID 0000.0001)                 7.723036247047585E+04,      /* J = 33 */
(PID.TID 0000.0001)                 7.582285450198258E+04,      /* J = 34 */
(PID.TID 0000.0001)                 7.439225015749552E+04,      /* J = 35 */
(PID.TID 0000.0001)                 7.293898521295657E+04,      /* J = 36 */
(PID.TID 0000.0001)                 7.146350234694594E+04,      /* J = 37 */
(PID.TID 0000.0001)                 6.996625100583794E+04,      /* J = 38 */
(PID.TID 0000.0001)                 6.844768726689526E+04,      /* J = 39 */
(PID.TID 0000.0001)                 6.690827369934347E+04,      /* J = 40 */
(PID.TID 0000.0001)                 6.534847922346782E+04,      /* J = 41 */
(PID.TID 0000.0001)                 6.376877896777581E+04,      /* J = 42 */
(PID.TID 0000.0001)                 6.216965412426815E+04,      /* J = 43 */
(PID.TID 0000.0001)                 6.055159180186330E+04,      /* J = 44 */
(PID.TID 0000.0001)                 5.891508487801914E+04,      /* J = 45 */
(PID.TID 0000.0001)                 5.726063184859791E+04,      /* J = 46 */
(PID.TID 0000.0001)                 5.558873667601941E+04,      /* J = 47 */
(PID.TID 0000.0001)                 5.389990863574919E+04,      /* J = 48 */
(PID.TID 0000.0001)                 5.219466216116839E+04,      /* J = 49 */
(PID.TID 0000.0001)                 5.047351668687224E+04,      /* J = 50 */
(PID.TID 0000.0001)                 4.873699649044534E+04,      /* J = 51 */
(PID.TID 0000.0001)                 4.698563053276157E+04,      /* J = 52 */
(PID.TID 0000.0001)                 4.521995229685750E+04,      /* J = 53 */
(PID.TID 0000.0001)                 4.344049962542827E+04,      /* J = 54 */
(PID.TID 0000.0001)                 4.164781455699558E+04,      /* J = 55 */
(PID.TID 0000.0001)                 3.984244316079742E+04,      /* J = 56 */
(PID.TID 0000.0001)                 3.802493537045003E+04,      /* J = 57 */
(PID.TID 0000.0001)                 3.619584481643300E+04,      /* J = 58 */
(PID.TID 0000.0001)                 3.435572865744784E+04,      /* J = 59 */
(PID.TID 0000.0001)                 3.250514741070222E+04,      /* J = 60 */
(PID.TID 0000.0001)                 3.064466478117086E+04,      /* J = 61 */
(PID.TID 0000.0001)                 2.877484748988563E+04       /* J = 62 */
(PID.TID 0000.0001)     ;
(PID.TID 0000.0001) dyU =  /* dyU(:,1,:,1) ( units: m ) */
(PID.TID 0000.0001)    62 @  1.111774733520388E+05              /* I =  1: 62 */
(PID.TID 0000.0001)     ;
(PID.TID 0000.0001) dyU =  /* dyU(1,:,1,:) ( units: m ) */
(PID.TID 0000.0001)    62 @  1.111774733520388E+05              /* J =  1: 62 */
(PID.TID 0000.0001)     ;
(PID.TID 0000.0001) rA  =  /* rA (:,1,:,1) ( units: m^2 ) */
(PID.TID 0000.0001)    62 @  1.196656981524731E+10              /* I =  1: 62 */
(PID.TID 0000.0001)     ;
(PID.TID 0000.0001) rA  =  /* rA (1,:,1,:) ( units: m^2 ) */
(PID.TID 0000.0001)                 1.196656981524731E+10,      /* J =  1 */
(PID.TID 0000.0001)                 1.191073614548694E+10,      /* J =  2 */
(PID.TID 0000.0001)                 1.185127435011478E+10,      /* J =  3 */
(PID.TID 0000.0001)                 1.178820254176956E+10,      /* J =  4 */
(PID.TID 0000.0001)                 1.172153993273542E+10,      /* J =  5 */
(PID.TID 0000.0001)                 1.165130682908850E+10,      /* J =  6 */
(PID.TID 0000.0001)                 1.157752462451282E+10,      /* J =  7 */
(PID.TID 0000.0001)                 1.150021579378244E+10,      /* J =  8 */
(PID.TID 0000.0001)                 1.141940388591624E+10,      /* J =  9 */
(PID.TID 0000.0001)                 1.133511351700407E+10,      /* J = 10 */
(PID.TID 0000.0001)                 1.124737036270897E+10,      /* J = 11 */
(PID.TID 0000.0001)                 1.115620115044562E+10,      /* J = 12 */
(PID.TID 0000.0001)                 1.106163365123932E+10,      /* J = 13 */
(PID.TID 0000.0001)                 1.096369667126647E+10,      /* J = 14 */
(PID.TID 0000.0001)                 1.086242004307971E+10,      /* J = 15 */
(PID.TID 0000.0001)                 1.075783461652121E+10,      /* J = 16 */
(PID.TID 0000.0001)                 1.064997224932514E+10,      /* J = 17 */
(PID.TID 0000.0001)                 1.053886579741327E+10,      /* J = 18 */
(PID.TID 0000.0001)                 1.042454910488727E+10,      /* J = 19 */
(PID.TID 0000.0001)                 1.030705699371901E+10,      /* J = 20 */
(PID.TID 0000.0001)                 1.018642525314361E+10,      /* J = 21 */
(PID.TID 0000.0001)                 1.006269062875826E+10,      /* J = 22 */
(PID.TID 0000.0001)                 9.935890811327726E+09,      /* J = 23 */
(PID.TID 0000.0001)                 9.806064425305017E+09,      /* J = 24 */
(PID.TID 0000.0001)                 9.673251017064777E+09,      /* J = 25 */
(PID.TID 0000.0001)                 9.537491042857967E+09,      /* J = 26 */
(PID.TID 0000.0001)                 9.398825856487764E+09,      /* J = 27 */
(PID.TID 0000.0001)                 9.257297696713127E+09,      /* J = 28 */
(PID.TID 0000.0001)                 9.112949674382580E+09,      /* J = 29 */
(PID.TID 0000.0001)                 8.965825759302174E+09,      /* J = 30 */
(PID.TID 0000.0001)                 8.815970766841537E+09,      /* J = 31 */
(PID.TID 0000.0001)                 8.663430344283134E+09,      /* J = 32 */
(PID.TID 0000.0001)                 8.508250956917325E+09,      /* J = 33 */
(PID.TID 0000.0001)                 8.350479873888739E+09,      /* J = 34 */
(PID.TID 0000.0001)                 8.190165153797634E+09,      /* J = 35 */
(PID.TID 0000.0001)                 8.027355630060758E+09,      /* J = 36 */
(PID.TID 0000.0001)                 7.862100896036314E+09,      /* J = 37 */
(PID.TID 0000.0001)                 7.694451289916993E+09,      /* J = 38 */
(PID.TID 0000.0001)                 7.524457879396867E+09,      /* J = 39 */
(PID.TID 0000.0001)                 7.352172446115779E+09,      /* J = 40 */
(PID.TID 0000.0001)                 7.177647469885383E+09,      /* J = 41 */
(PID.TID 0000.0001)                 7.000936112704308E+09,      /* J = 42 */
(PID.TID 0000.0001)                 6.822092202563635E+09,      /* J = 43 */
(PID.TID 0000.0001)                 6.641170217051002E+09,      /* J = 44 */
(PID.TID 0000.0001)                 6.458225266755869E+09,      /* J = 45 */
(PID.TID 0000.0001)                 6.273313078482073E+09,      /* J = 46 */
(PID.TID 0000.0001)                 6.086489978273794E+09,      /* J = 47 */
(PID.TID 0000.0001)                 5.897812874256923E+09,      /* J = 48 */
(PID.TID 0000.0001)                 5.707339239305150E+09,      /* J = 49 */
(PID.TID 0000.0001)                 5.515127093532944E+09,      /* J = 50 */
(PID.TID 0000.0001)                 5.321234986621584E+09,      /* J = 51 */
(PID.TID 0000.0001)                 5.125721979985523E+09,      /* J = 52 */
(PID.TID 0000.0001)                 4.928647628780381E+09,      /* J = 53 */
(PID.TID 0000.0001)                 4.730071963762505E+09,      /* J = 54 */
(PID.TID 0000.0001)                 4.530055473003297E+09,      /* J = 55 */
(PID.TID 0000.0001)                 4.328659083463362E+09,      /* J = 56 */
(PID.TID 0000.0001)                 4.125944142434001E+09,      /* J = 57 */
(PID.TID 0000.0001)                 3.921972398849929E+09,      /* J = 58 */
(PID.TID 0000.0001)                 3.716805984480110E+09,      /* J = 59 */
(PID.TID 0000.0001)                 3.510507395001996E+09,      /* J = 60 */
(PID.TID 0000.0001)                 3.303139470964198E+09,      /* J = 61 */
(PID.TID 0000.0001)                 3.094765378645360E+09       /* J = 62 */
(PID.TID 0000.0001)     ;
(PID.TID 0000.0001) rAw =  /* rAw(:,1,:,1) ( units: m^2 ) */
(PID.TID 0000.0001)    62 @  1.196656981524731E+10              /* I =  1: 62 */
(PID.TID 0000.0001)     ;
(PID.TID 0000.0001) rAw =  /* rAw(1,:,1,:) ( units: m^2 ) */
(PID.TID 0000.0001)                 1.196656981524731E+10,      /* J =  1 */
(PID.TID 0000.0001)                 1.191073614548694E+10,      /* J =  2 */
(PID.TID 0000.0001)                 1.185127435011478E+10,      /* J =  3 */
(PID.TID 0000.0001)                 1.178820254176956E+10,      /* J =  4 */
(PID.TID 0000.0001)                 1.172153993273542E+10,      /* J =  5 */
(PID.TID 0000.0001)                 1.165130682908850E+10,      /* J =  6 */
(PID.TID 0000.0001)                 1.157752462451282E+10,      /* J =  7 */
(PID.TID 0000.0001)                 1.150021579378244E+10,      /* J =  8 */
(PID.TID 0000.0001)                 1.141940388591624E+10,      /* J =  9 */
(PID.TID 0000.0001)                 1.133511351700407E+10,      /* J = 10 */
(PID.TID 0000.0001)                 1.124737036270897E+10,      /* J = 11 */
(PID.TID 0000.0001)                 1.115620115044562E+10,      /* J = 12 */
(PID.TID 0000.0001)                 1.106163365123932E+10,      /* J = 13 */
(PID.TID 0000.0001)                 1.096369667126647E+10,      /* J = 14 */
(PID.TID 0000.0001)                 1.086242004307971E+10,      /* J = 15 */
(PID.TID 0000.0001)                 1.075783461652121E+10,      /* J = 16 */
(PID.TID 0000.0001)                 1.064997224932514E+10,      /* J = 17 */
(PID.TID 0000.0001)                 1.053886579741327E+10,      /* J = 18 */
(PID.TID 0000.0001)                 1.042454910488727E+10,      /* J = 19 */
(PID.TID 0000.0001)                 1.030705699371901E+10,      /* J = 20 */
(PID.TID 0000.0001)                 1.018642525314361E+10,      /* J = 21 */
(PID.TID 0000.0001)                 1.006269062875826E+10,      /* J = 22 */
(PID.TID 0000.0001)                 9.935890811327726E+09,      /* J = 23 */
(PID.TID 0000.0001)                 9.806064425305017E+09,      /* J = 24 */
(PID.TID 0000.0001)                 9.673251017064777E+09,      /* J = 25 */
(PID.TID 0000.0001)                 9.537491042857967E+09,      /* J = 26 */
(PID.TID 0000.0001)                 9.398825856487764E+09,      /* J = 27 */
(PID.TID 0000.0001)                 9.257297696713127E+09,      /* J = 28 */
(PID.TID 0000.0001)                 9.112949674382580E+09,      /* J = 29 */
(PID.TID 0000.0001)                 8.965825759302174E+09,      /* J = 30 */
(PID.TID 0000.0001)                 8.815970766841537E+09,      /* J = 31 */
(PID.TID 0000.0001)                 8.663430344283134E+09,      /* J = 32 */
(PID.TID 0000.0001)                 8.508250956917325E+09,      /* J = 33 */
(PID.TID 0000.0001)                 8.350479873888739E+09,      /* J = 34 */
(PID.TID 0000.0001)                 8.190165153797634E+09,      /* J = 35 */
(PID.TID 0000.0001)                 8.027355630060758E+09,      /* J = 36 */
(PID.TID 0000.0001)                 7.862100896036314E+09,      /* J = 37 */
(PID.TID 0000.0001)                 7.694451289916993E+09,      /* J = 38 */
(PID.TID 0000.0001)                 7.524457879396867E+09,      /* J = 39 */
(PID.TID 0000.0001)                 7.352172446115779E+09,      /* J = 40 */
(PID.TID 0000.0001)                 7.177647469885383E+09,      /* J = 41 */
(PID.TID 0000.0001)                 7.000936112704308E+09,      /* J = 42 */
(PID.TID 0000.0001)                 6.822092202563635E+09,      /* J = 43 */
(PID.TID 0000.0001)                 6.641170217051002E+09,      /* J = 44 */
(PID.TID 0000.0001)                 6.458225266755869E+09,      /* J = 45 */
(PID.TID 0000.0001)                 6.273313078482073E+09,      /* J = 46 */
(PID.TID 0000.0001)                 6.086489978273794E+09,      /* J = 47 */
(PID.TID 0000.0001)                 5.897812874256923E+09,      /* J = 48 */
(PID.TID 0000.0001)                 5.707339239305150E+09,      /* J = 49 */
(PID.TID 0000.0001)                 5.515127093532944E+09,      /* J = 50 */
(PID.TID 0000.0001)                 5.321234986621584E+09,      /* J = 51 */
(PID.TID 0000.0001)                 5.125721979985523E+09,      /* J = 52 */
(PID.TID 0000.0001)                 4.928647628780381E+09,      /* J = 53 */
(PID.TID 0000.0001)                 4.730071963762505E+09,      /* J = 54 */
(PID.TID 0000.0001)                 4.530055473003297E+09,      /* J = 55 */
(PID.TID 0000.0001)                 4.328659083463362E+09,      /* J = 56 */
(PID.TID 0000.0001)                 4.125944142434001E+09,      /* J = 57 */
(PID.TID 0000.0001)                 3.921972398849929E+09,      /* J = 58 */
(PID.TID 0000.0001)                 3.716805984480110E+09,      /* J = 59 */
(PID.TID 0000.0001)                 3.510507395001996E+09,      /* J = 60 */
(PID.TID 0000.0001)                 3.303139470964198E+09,      /* J = 61 */
(PID.TID 0000.0001)                 3.094765378645360E+09       /* J = 62 */
(PID.TID 0000.0001)     ;
(PID.TID 0000.0001) rAs =  /* rAs(:,1,:,1) ( units: m^2 ) */
(PID.TID 0000.0001)    62 @  1.199312074487231E+10              /* I =  1: 62 */
(PID.TID 0000.0001)     ;
(PID.TID 0000.0001) rAs =  /* rAs(1,:,1,:) ( units: m^2 ) */
(PID.TID 0000.0001)                 1.199312074487231E+10,      /* J =  1 */
(PID.TID 0000.0001)                 1.193910758500046E+10,      /* J =  2 */
(PID.TID 0000.0001)                 1.188145765730164E+10,      /* J =  3 */
(PID.TID 0000.0001)                 1.182018852250200E+10,      /* J =  4 */
(PID.TID 0000.0001)                 1.175531884377377E+10,      /* J =  5 */
(PID.TID 0000.0001)                 1.168686838104932E+10,      /* J =  6 */
(PID.TID 0000.0001)                 1.161485798500282E+10,      /* J =  7 */
(PID.TID 0000.0001)                 1.153930959069846E+10,      /* J =  8 */
(PID.TID 0000.0001)                 1.146024621090888E+10,      /* J =  9 */
(PID.TID 0000.0001)                 1.137769192910560E+10,      /* J = 10 */
(PID.TID 0000.0001)                 1.129167189212255E+10,      /* J = 11 */
(PID.TID 0000.0001)                 1.120221230249629E+10,      /* J = 12 */
(PID.TID 0000.0001)                 1.110934041048438E+10,      /* J = 13 */
(PID.TID 0000.0001)                 1.101308450576488E+10,      /* J = 14 */
(PID.TID 0000.0001)                 1.091347390881877E+10,      /* J = 15 */
(PID.TID 0000.0001)                 1.081053896199886E+10,      /* J = 16 */
(PID.TID 0000.0001)                 1.070431102028693E+10,      /* J = 17 */
(PID.TID 0000.0001)                 1.059482244174344E+10,      /* J = 18 */
(PID.TID 0000.0001)                 1.048210657764984E+10,      /* J = 19 */
(PID.TID 0000.0001)                 1.036619776235002E+10,      /* J = 20 */
(PID.TID 0000.0001)                 1.024713130279239E+10,      /* J = 21 */
(PID.TID 0000.0001)                 1.012494346777366E+10,      /* J = 22 */
(PID.TID 0000.0001)                 9.999671476892084E+09,      /* J = 23 */
(PID.TID 0000.0001)                 9.871353489209755E+09,      /* J = 24 */
(PID.TID 0000.0001)                 9.740028591628536E+09,      /* J = 25 */
(PID.TID 0000.0001)                 9.605736786984652E+09,      /* J = 26 */
(PID.TID 0000.0001)                 9.468518981862513E+09,      /* J = 27 */
(PID.TID 0000.0001)                 9.328416974134933E+09,      /* J = 28 */
(PID.TID 0000.0001)                 9.185473440230581E+09,      /* J = 29 */
(PID.TID 0000.0001)                 9.039731922134653E+09,      /* J = 30 */
(PID.TID 0000.0001)                 8.891236814125528E+09,      /* J = 31 */
(PID.TID 0000.0001)                 8.740033349251320E+09,      /* J = 32 */
(PID.TID 0000.0001)                 8.586167585552389E+09,      /* J = 33 */
(PID.TID 0000.0001)                 8.429686392030848E+09,      /* J = 34 */
(PID.TID 0000.0001)                 8.270637434373945E+09,      /* J = 35 */
(PID.TID 0000.0001)                 8.109069160435303E+09,      /* J = 36 */
(PID.TID 0000.0001)                 7.945030785475936E+09,      /* J = 37 */
(PID.TID 0000.0001)                 7.778572277174043E+09,      /* J = 38 */
(PID.TID 0000.0001)                 7.609744340403865E+09,      /* J = 39 */
(PID.TID 0000.0001)                 7.438598401790304E+09,      /* J = 40 */
(PID.TID 0000.0001)                 7.265186594044338E+09,      /* J = 41 */
(PID.TID 0000.0001)                 7.089561740082285E+09,      /* J = 42 */
(PID.TID 0000.0001)                 6.911777336936083E+09,      /* J = 43 */
(PID.TID 0000.0001)                 6.731887539457176E+09,      /* J = 44 */
(PID.TID 0000.0001)                 6.549947143820458E+09,      /* J = 45 */
(PID.TID 0000.0001)                 6.366011570833056E+09,      /* J = 46 */
(PID.TID 0000.0001)                 6.180136849052222E+09,      /* J = 47 */
(PID.TID 0000.0001)                 5.992379597718760E+09,      /* J = 48 */
(PID.TID 0000.0001)                 5.802797009510403E+09,      /* J = 49 */
(PID.TID 0000.0001)                 5.611446833120007E+09,      /* J = 50 */
(PID.TID 0000.0001)                 5.418387355664783E+09,      /* J = 51 */
(PID.TID 0000.0001)                 5.223677384932224E+09,      /* J = 52 */
(PID.TID 0000.0001)                 5.027376231465073E+09,      /* J = 53 */
(PID.TID 0000.0001)                 4.829543690496597E+09,      /* J = 54 */
(PID.TID 0000.0001)                 4.630240023735217E+09,      /* J = 55 */
(PID.TID 0000.0001)                 4.429525941008306E+09,      /* J = 56 */
(PID.TID 0000.0001)                 4.227462581770208E+09,      /* J = 57 */
(PID.TID 0000.0001)                 4.024111496477147E+09,      /* J = 58 */
(PID.TID 0000.0001)                 3.819534627839939E+09,      /* J = 59 */
(PID.TID 0000.0001)                 3.613794291954373E+09,      /* J = 60 */
(PID.TID 0000.0001)                 3.406953159319860E+09,      /* J = 61 */
(PID.TID 0000.0001)                 3.199074235749182E+09       /* J = 62 */
(PID.TID 0000.0001)     ;
(PID.TID 0000.0001) globalArea = /* Integrated horizontal Area (m^2) */
(PID.TID 0000.0001)                 3.004640278222622E+13
(PID.TID 0000.0001)     ;
(PID.TID 0000.0001) // =======================================================
(PID.TID 0000.0001) // End of Model config. summary
(PID.TID 0000.0001) // =======================================================
(PID.TID 0000.0001) 
(PID.TID 0000.0001) == Packages configuration : Check & print summary ==
(PID.TID 0000.0001) 
** WARNING ** PACKAGES_CHECK: useMNC is TRUE
** WARNING ** but pkg/mnc has not been compiled (#undef ALLOW_MNC)
(PID.TID 0000.0001) CTRL_CHECK:  --> Starts to check CTRL set-up
** WARNING ** CTRL_CHECK: ALLOW_GENTIM2D_CONTROL is
** WARNING **  unsafe without calendar package (currently: useCAL=F)
(PID.TID 0000.0001) CTRL_CHECK:  <-- Ends Normally
(PID.TID 0000.0001) 
(PID.TID 0000.0001) COST_CHECK: #define ALLOW_COST
(PID.TID 0000.0001) GRDCHK_CHECK: grdchk package
(PID.TID 0000.0001) GAD_CHECK: #define ALLOW_GENERIC_ADVDIFF
(PID.TID 0000.0001) // =======================================================
(PID.TID 0000.0001) // Check Model config. (CONFIG_CHECK):
(PID.TID 0000.0001) // CONFIG_CHECK : Normal End
(PID.TID 0000.0001) // =======================================================
(PID.TID 0000.0001) 
(PID.TID 0000.0001) Start initial hydrostatic pressure computation
(PID.TID 0000.0001) Pressure is predetermined for buoyancyRelation OCEANIC
(PID.TID 0000.0001) 
(PID.TID 0000.0001) // =======================================================
(PID.TID 0000.0001) // Model current state
(PID.TID 0000.0001) // =======================================================
(PID.TID 0000.0001) 
(PID.TID 0000.0001) // =======================================================
(PID.TID 0000.0001) // Begin MONITOR dynamic field statistics
(PID.TID 0000.0001) // =======================================================
(PID.TID 0000.0001) %MON time_tsnumber                =                     0
(PID.TID 0000.0001) %MON time_secondsf                =   0.0000000000000E+00
(PID.TID 0000.0001) %MON dynstat_eta_max              =   0.0000000000000E+00
(PID.TID 0000.0001) %MON dynstat_eta_min              =   0.0000000000000E+00
(PID.TID 0000.0001) %MON dynstat_eta_mean             =   0.0000000000000E+00
(PID.TID 0000.0001) %MON dynstat_eta_sd               =   0.0000000000000E+00
(PID.TID 0000.0001) %MON dynstat_eta_del2             =   0.0000000000000E+00
(PID.TID 0000.0001) %MON dynstat_uvel_max             =   0.0000000000000E+00
(PID.TID 0000.0001) %MON dynstat_uvel_min             =   0.0000000000000E+00
(PID.TID 0000.0001) %MON dynstat_uvel_mean            =   0.0000000000000E+00
(PID.TID 0000.0001) %MON dynstat_uvel_sd              =   0.0000000000000E+00
(PID.TID 0000.0001) %MON dynstat_uvel_del2            =   0.0000000000000E+00
(PID.TID 0000.0001) %MON dynstat_vvel_max             =   0.0000000000000E+00
(PID.TID 0000.0001) %MON dynstat_vvel_min             =   0.0000000000000E+00
(PID.TID 0000.0001) %MON dynstat_vvel_mean            =   0.0000000000000E+00
(PID.TID 0000.0001) %MON dynstat_vvel_sd              =   0.0000000000000E+00
(PID.TID 0000.0001) %MON dynstat_vvel_del2            =   0.0000000000000E+00
(PID.TID 0000.0001) %MON dynstat_wvel_max             =   0.0000000000000E+00
(PID.TID 0000.0001) %MON dynstat_wvel_min             =   0.0000000000000E+00
(PID.TID 0000.0001) %MON dynstat_wvel_mean            =   0.0000000000000E+00
(PID.TID 0000.0001) %MON dynstat_wvel_sd              =   0.0000000000000E+00
(PID.TID 0000.0001) %MON dynstat_wvel_del2            =   0.0000000000000E+00
(PID.TID 0000.0001) %MON dynstat_theta_max            =   3.0000000000000E+01
(PID.TID 0000.0001) %MON dynstat_theta_min            =   2.0000000000000E+00
(PID.TID 0000.0001) %MON dynstat_theta_mean           =   9.8888888888886E+00
(PID.TID 0000.0001) %MON dynstat_theta_sd             =   7.6368179010843E+00
(PID.TID 0000.0001) %MON dynstat_theta_del2           =   0.0000000000000E+00
(PID.TID 0000.0001) %MON dynstat_salt_max             =   3.0000000000000E+01
(PID.TID 0000.0001) %MON dynstat_salt_min             =   3.0000000000000E+01
(PID.TID 0000.0001) %MON dynstat_salt_mean            =   3.0000000000000E+01
(PID.TID 0000.0001) %MON dynstat_salt_sd              =   1.4566126083082E-13
(PID.TID 0000.0001) %MON dynstat_salt_del2            =   0.0000000000000E+00
(PID.TID 0000.0001) %MON trAdv_CFL_u_max              =   0.0000000000000E+00
(PID.TID 0000.0001) %MON trAdv_CFL_v_max              =   0.0000000000000E+00
(PID.TID 0000.0001) %MON trAdv_CFL_w_max              =   0.0000000000000E+00
(PID.TID 0000.0001) %MON advcfl_uvel_max              =   0.0000000000000E+00
(PID.TID 0000.0001) %MON advcfl_vvel_max              =   0.0000000000000E+00
(PID.TID 0000.0001) %MON advcfl_wvel_max              =   0.0000000000000E+00
(PID.TID 0000.0001) %MON advcfl_W_hf_max              =   0.0000000000000E+00
(PID.TID 0000.0001) %MON pe_b_mean                    =   0.0000000000000E+00
(PID.TID 0000.0001) %MON ke_max                       =   0.0000000000000E+00
(PID.TID 0000.0001) %MON ke_mean                      =   0.0000000000000E+00
(PID.TID 0000.0001) %MON ke_vol                       =   5.4083525008008E+16
(PID.TID 0000.0001) %MON vort_r_min                   =   0.0000000000000E+00
(PID.TID 0000.0001) %MON vort_r_max                   =   0.0000000000000E+00
(PID.TID 0000.0001) %MON vort_a_mean                  =   8.8888580844099E-05
(PID.TID 0000.0001) %MON vort_a_sd                    =   3.0186886807873E-05
(PID.TID 0000.0001) %MON vort_p_mean                  =   9.3126335191217E-05
(PID.TID 0000.0001) %MON vort_p_sd                    =   4.3980032850710E-05
(PID.TID 0000.0001) %MON surfExpan_theta_mean         =   0.0000000000000E+00
(PID.TID 0000.0001) %MON surfExpan_salt_mean          =   0.0000000000000E+00
(PID.TID 0000.0001) // =======================================================
(PID.TID 0000.0001) // End MONITOR dynamic field statistics
(PID.TID 0000.0001) // =======================================================
(PID.TID 0000.0001) SOLVE_FOR_PRESSURE: putPmEinXvector =    F
 cg2d: Sum(rhs),rhsMax =   0.00000000000000E+00  1.64867252901168E-03
(PID.TID 0000.0001)      cg2d_init_res =   7.75659675921699E+00
(PID.TID 0000.0001)      cg2d_iters(min,last) =      -1      37
(PID.TID 0000.0001)      cg2d_last_res =   6.80324852422627E-08
(PID.TID 0000.0001) // =======================================================
(PID.TID 0000.0001) // Begin MONITOR dynamic field statistics
(PID.TID 0000.0001) // =======================================================
(PID.TID 0000.0001) %MON time_tsnumber                =                     1
(PID.TID 0000.0001) %MON time_secondsf                =   1.2000000000000E+03
(PID.TID 0000.0001) %MON dynstat_eta_max              =   7.9864701371703E-04
(PID.TID 0000.0001) %MON dynstat_eta_min              =  -7.9864701371703E-04
(PID.TID 0000.0001) %MON dynstat_eta_mean             =   1.2267033255237E-20
(PID.TID 0000.0001) %MON dynstat_eta_sd               =   1.1630132156913E-04
(PID.TID 0000.0001) %MON dynstat_eta_del2             =   2.8343358693983E-07
(PID.TID 0000.0001) %MON dynstat_uvel_max             =   2.3971903148502E-03
(PID.TID 0000.0001) %MON dynstat_uvel_min             =  -2.3971903699829E-03
(PID.TID 0000.0001) %MON dynstat_uvel_mean            =   1.9339888929349E-06
(PID.TID 0000.0001) %MON dynstat_uvel_sd              =   2.8154445916187E-04
(PID.TID 0000.0001) %MON dynstat_uvel_del2            =   2.0550561781797E-08
(PID.TID 0000.0001) %MON dynstat_vvel_max             =   8.3510737976055E-06
(PID.TID 0000.0001) %MON dynstat_vvel_min             =  -8.3510737976055E-06
(PID.TID 0000.0001) %MON dynstat_vvel_mean            =  -5.3714004621570E-23
(PID.TID 0000.0001) %MON dynstat_vvel_sd              =   1.3419362924094E-06
(PID.TID 0000.0001) %MON dynstat_vvel_del2            =   8.4836515466334E-10
(PID.TID 0000.0001) %MON dynstat_wvel_max             =   3.2751319937489E-06
(PID.TID 0000.0001) %MON dynstat_wvel_min             =  -3.2751319937489E-06
(PID.TID 0000.0001) %MON dynstat_wvel_mean            =   1.2839311120919E-25
(PID.TID 0000.0001) %MON dynstat_wvel_sd              =   9.8512221711261E-08
(PID.TID 0000.0001) %MON dynstat_wvel_del2            =   7.2745291955174E-10
(PID.TID 0000.0001) %MON dynstat_theta_max            =   2.9999871168920E+01
(PID.TID 0000.0001) %MON dynstat_theta_min            =   2.0000003413939E+00
(PID.TID 0000.0001) %MON dynstat_theta_mean           =   9.8887302777833E+00
(PID.TID 0000.0001) %MON dynstat_theta_sd             =   7.6363995924759E+00
(PID.TID 0000.0001) %MON dynstat_theta_del2           =   5.6057633344524E-18
(PID.TID 0000.0001) %MON dynstat_salt_max             =   3.0000000000000E+01
(PID.TID 0000.0001) %MON dynstat_salt_min             =   3.0000000000000E+01
(PID.TID 0000.0001) %MON dynstat_salt_mean            =   3.0000000000000E+01
(PID.TID 0000.0001) %MON dynstat_salt_sd              =   1.4566126083082E-13
(PID.TID 0000.0001) %MON dynstat_salt_del2            =   0.0000000000000E+00
(PID.TID 0000.0001) %MON trAdv_CFL_u_max              =   0.0000000000000E+00
(PID.TID 0000.0001) %MON trAdv_CFL_v_max              =   0.0000000000000E+00
(PID.TID 0000.0001) %MON trAdv_CFL_w_max              =   0.0000000000000E+00
(PID.TID 0000.0001) %MON advcfl_uvel_max              =   9.6807142625397E-05
(PID.TID 0000.0001) %MON advcfl_vvel_max              =   9.0137761319639E-08
(PID.TID 0000.0001) %MON advcfl_wvel_max              =   7.1457425318158E-05
(PID.TID 0000.0001) %MON advcfl_W_hf_max              =   7.8603167849973E-05
(PID.TID 0000.0001) %MON pe_b_mean                    =   3.6858342911527E-11
(PID.TID 0000.0001) %MON ke_max                       =   2.8732973037568E-06
(PID.TID 0000.0001) %MON ke_mean                      =   3.8976300995777E-08
(PID.TID 0000.0001) %MON ke_vol                       =   5.4083525008008E+16
(PID.TID 0000.0001) %MON vort_r_min                   =  -2.2260406218619E-08
(PID.TID 0000.0001) %MON vort_r_max                   =   2.1510869966686E-08
(PID.TID 0000.0001) %MON vort_a_mean                  =   8.8888580844099E-05
(PID.TID 0000.0001) %MON vort_a_sd                    =   3.0186886753186E-05
(PID.TID 0000.0001) %MON vort_p_mean                  =   9.3126335191217E-05
(PID.TID 0000.0001) %MON vort_p_sd                    =   4.3980031408486E-05
(PID.TID 0000.0001) %MON surfExpan_theta_mean         =   6.0660419004671E-23
(PID.TID 0000.0001) %MON surfExpan_salt_mean          =  -1.4708032731721E-22
(PID.TID 0000.0001) // =======================================================
(PID.TID 0000.0001) // End MONITOR dynamic field statistics
(PID.TID 0000.0001) // =======================================================
 cg2d: Sum(rhs),rhsMax =  -5.19584375524573E-14  3.23898321808473E-03
(PID.TID 0000.0001)      cg2d_init_res =   3.71201199971923E+00
(PID.TID 0000.0001)      cg2d_iters(min,last) =      -1      40
(PID.TID 0000.0001)      cg2d_last_res =   8.79633865110371E-08
(PID.TID 0000.0001) // =======================================================
(PID.TID 0000.0001) // Begin MONITOR dynamic field statistics
(PID.TID 0000.0001) // =======================================================
(PID.TID 0000.0001) %MON time_tsnumber                =                     2
(PID.TID 0000.0001) %MON time_secondsf                =   2.4000000000000E+03
(PID.TID 0000.0001) %MON dynstat_eta_max              =   1.7121998500765E-03
(PID.TID 0000.0001) %MON dynstat_eta_min              =  -1.5803599088303E-03
(PID.TID 0000.0001) %MON dynstat_eta_mean             =   4.9197076972692E-20
(PID.TID 0000.0001) %MON dynstat_eta_sd               =   2.9555548755300E-04
(PID.TID 0000.0001) %MON dynstat_eta_del2             =   3.4623108900329E-07
(PID.TID 0000.0001) %MON dynstat_uvel_max             =   4.7785652657842E-03
(PID.TID 0000.0001) %MON dynstat_uvel_min             =  -4.7750436032009E-03
(PID.TID 0000.0001) %MON dynstat_uvel_mean            =   3.8651593106197E-06
(PID.TID 0000.0001) %MON dynstat_uvel_sd              =   5.6081041720145E-04
(PID.TID 0000.0001) %MON dynstat_uvel_del2            =   4.0740005310381E-08
(PID.TID 0000.0001) %MON dynstat_vvel_max             =   5.9969551110352E-04
(PID.TID 0000.0001) %MON dynstat_vvel_min             =  -4.5339625721639E-04
(PID.TID 0000.0001) %MON dynstat_vvel_mean            =  -2.0200125660071E-06
(PID.TID 0000.0001) %MON dynstat_vvel_sd              =   4.6824296331220E-05
(PID.TID 0000.0001) %MON dynstat_vvel_del2            =   3.1852099376046E-08
(PID.TID 0000.0001) %MON dynstat_wvel_max             =   7.0157254790793E-06
(PID.TID 0000.0001) %MON dynstat_wvel_min             =  -7.1686636029841E-06
(PID.TID 0000.0001) %MON dynstat_wvel_mean            =   9.9987555631933E-26
(PID.TID 0000.0001) %MON dynstat_wvel_sd              =   2.2494484334593E-07
(PID.TID 0000.0001) %MON dynstat_wvel_del2            =   1.4920986286502E-09
(PID.TID 0000.0001) %MON dynstat_theta_max            =   2.9999773321850E+01
(PID.TID 0000.0001) %MON dynstat_theta_min            =   1.9999989872044E+00
(PID.TID 0000.0001) %MON dynstat_theta_mean           =   9.8885717778120E+00
(PID.TID 0000.0001) %MON dynstat_theta_sd             =   7.6359817202701E+00
(PID.TID 0000.0001) %MON dynstat_theta_del2           =   4.5070554846237E-08
(PID.TID 0000.0001) %MON dynstat_salt_max             =   3.0000000000000E+01
(PID.TID 0000.0001) %MON dynstat_salt_min             =   3.0000000000000E+01
(PID.TID 0000.0001) %MON dynstat_salt_mean            =   3.0000000000000E+01
(PID.TID 0000.0001) %MON dynstat_salt_sd              =   1.4566126083082E-13
(PID.TID 0000.0001) %MON dynstat_salt_del2            =   0.0000000000000E+00
(PID.TID 0000.0001) %MON trAdv_CFL_u_max              =   9.6808371350564E-05
(PID.TID 0000.0001) %MON trAdv_CFL_v_max              =   9.1584210818092E-08
(PID.TID 0000.0001) %MON trAdv_CFL_w_max              =   9.4576108124314E-05
(PID.TID 0000.0001) %MON advcfl_uvel_max              =   1.9276146571711E-04
(PID.TID 0000.0001) %MON advcfl_vvel_max              =   6.4728455470969E-06
(PID.TID 0000.0001) %MON advcfl_wvel_max              =   1.5640720588329E-04
(PID.TID 0000.0001) %MON advcfl_W_hf_max              =   1.7204792647162E-04
(PID.TID 0000.0001) %MON pe_b_mean                    =   2.3803705095684E-10
(PID.TID 0000.0001) %MON ke_max                       =   1.1518925944169E-05
(PID.TID 0000.0001) %MON ke_mean                      =   1.5572423627637E-07
(PID.TID 0000.0001) %MON ke_vol                       =   5.4083525008008E+16
(PID.TID 0000.0001) %MON vort_r_min                   =  -4.4324710076027E-08
(PID.TID 0000.0001) %MON vort_r_max                   =   4.2848220700321E-08
(PID.TID 0000.0001) %MON vort_a_mean                  =   8.8888580844101E-05
(PID.TID 0000.0001) %MON vort_a_sd                    =   3.0186886644942E-05
(PID.TID 0000.0001) %MON vort_p_mean                  =   9.3126335191219E-05
(PID.TID 0000.0001) %MON vort_p_sd                    =   4.3980029866206E-05
(PID.TID 0000.0001) %MON surfExpan_theta_mean         =   1.5157711047779E-11
(PID.TID 0000.0001) %MON surfExpan_salt_mean          =   4.6494213368849E-23
(PID.TID 0000.0001) // =======================================================
(PID.TID 0000.0001) // End MONITOR dynamic field statistics
(PID.TID 0000.0001) // =======================================================
 cg2d: Sum(rhs),rhsMax =   1.77635683940025E-14  4.54649289659410E-03
(PID.TID 0000.0001)      cg2d_init_res =   2.93236776399430E+00
(PID.TID 0000.0001)      cg2d_iters(min,last) =      -1      41
(PID.TID 0000.0001)      cg2d_last_res =   9.16842692169452E-08
(PID.TID 0000.0001) // =======================================================
(PID.TID 0000.0001) // Begin MONITOR dynamic field statistics
(PID.TID 0000.0001) // =======================================================
(PID.TID 0000.0001) %MON time_tsnumber                =                     3
(PID.TID 0000.0001) %MON time_secondsf                =   3.6000000000000E+03
(PID.TID 0000.0001) %MON dynstat_eta_max              =   2.6717226830338E-03
(PID.TID 0000.0001) %MON dynstat_eta_min              =  -2.3891042763717E-03
(PID.TID 0000.0001) %MON dynstat_eta_mean             =  -6.9828109251562E-20
(PID.TID 0000.0001) %MON dynstat_eta_sd               =   5.1572708104520E-04
(PID.TID 0000.0001) %MON dynstat_eta_del2             =   3.5619042125255E-07
(PID.TID 0000.0001) %MON dynstat_uvel_max             =   7.0676565000047E-03
(PID.TID 0000.0001) %MON dynstat_uvel_min             =  -7.1342843528823E-03
(PID.TID 0000.0001) %MON dynstat_uvel_mean            =   5.3907501990131E-06
(PID.TID 0000.0001) %MON dynstat_uvel_sd              =   8.3075782642673E-04
(PID.TID 0000.0001) %MON dynstat_uvel_del2            =   5.8685195923173E-08
(PID.TID 0000.0001) %MON dynstat_vvel_max             =   1.5790490651483E-03
(PID.TID 0000.0001) %MON dynstat_vvel_min             =  -1.2000123991717E-03
(PID.TID 0000.0001) %MON dynstat_vvel_mean            =  -5.5818601019969E-06
(PID.TID 0000.0001) %MON dynstat_vvel_sd              =   1.2368568595889E-04
(PID.TID 0000.0001) %MON dynstat_vvel_del2            =   8.3861913396472E-08
(PID.TID 0000.0001) %MON dynstat_wvel_max             =   1.0552596287879E-05
(PID.TID 0000.0001) %MON dynstat_wvel_min             =  -1.1041856904655E-05
(PID.TID 0000.0001) %MON dynstat_wvel_mean            =  -1.2725688898610E-24
(PID.TID 0000.0001) %MON dynstat_wvel_sd              =   3.5180092967661E-07
(PID.TID 0000.0001) %MON dynstat_wvel_del2            =   2.1899225948989E-09
(PID.TID 0000.0001) %MON dynstat_theta_max            =   2.9999714064910E+01
(PID.TID 0000.0001) %MON dynstat_theta_min            =   1.9999962595148E+00
(PID.TID 0000.0001) %MON dynstat_theta_mean           =   9.8884133513466E+00
(PID.TID 0000.0001) %MON dynstat_theta_sd             =   7.6355641851966E+00
(PID.TID 0000.0001) %MON dynstat_theta_del2           =   1.2197416892782E-07
(PID.TID 0000.0001) %MON dynstat_salt_max             =   3.0000000000000E+01
(PID.TID 0000.0001) %MON dynstat_salt_min             =   3.0000000000000E+01
(PID.TID 0000.0001) %MON dynstat_salt_mean            =   3.0000000000000E+01
(PID.TID 0000.0001) %MON dynstat_salt_sd              =   1.4566126083082E-13
(PID.TID 0000.0001) %MON dynstat_salt_del2            =   0.0000000000000E+00
(PID.TID 0000.0001) %MON trAdv_CFL_u_max              =   1.9276391234303E-04
(PID.TID 0000.0001) %MON trAdv_CFL_v_max              =   6.2819869064073E-06
(PID.TID 0000.0001) %MON trAdv_CFL_w_max              =   1.9031898319881E-04
(PID.TID 0000.0001) %MON advcfl_uvel_max              =   2.8492740864907E-04
(PID.TID 0000.0001) %MON advcfl_vvel_max              =   1.7043550469779E-05
(PID.TID 0000.0001) %MON advcfl_wvel_max              =   2.4091324155610E-04
(PID.TID 0000.0001) %MON advcfl_W_hf_max              =   2.6500456571171E-04
(PID.TID 0000.0001) %MON pe_b_mean                    =   7.2478030028626E-10
(PID.TID 0000.0001) %MON ke_max                       =   2.5666785215411E-05
(PID.TID 0000.0001) %MON ke_mean                      =   3.4689516400886E-07
(PID.TID 0000.0001) %MON ke_vol                       =   5.4083525008008E+16
(PID.TID 0000.0001) %MON vort_r_min                   =  -6.5517891421401E-08
(PID.TID 0000.0001) %MON vort_r_max                   =   6.4018554780574E-08
(PID.TID 0000.0001) %MON vort_a_mean                  =   8.8888580844101E-05
(PID.TID 0000.0001) %MON vort_a_sd                    =   3.0186886252591E-05
(PID.TID 0000.0001) %MON vort_p_mean                  =   9.3126335191219E-05
(PID.TID 0000.0001) %MON vort_p_sd                    =   4.3980028592333E-05
(PID.TID 0000.0001) %MON surfExpan_theta_mean         =   6.2383044827527E-11
(PID.TID 0000.0001) %MON surfExpan_salt_mean          =  -1.0848649786065E-22
(PID.TID 0000.0001) // =======================================================
(PID.TID 0000.0001) // End MONITOR dynamic field statistics
(PID.TID 0000.0001) // =======================================================
 cg2d: Sum(rhs),rhsMax =   2.13162820728030E-14  5.70329250172606E-03
(PID.TID 0000.0001)      cg2d_init_res =   2.59870620456556E+00
(PID.TID 0000.0001)      cg2d_iters(min,last) =      -1      41
(PID.TID 0000.0001)      cg2d_last_res =   8.24549331363908E-08
(PID.TID 0000.0001) // =======================================================
(PID.TID 0000.0001) // Begin MONITOR dynamic field statistics
(PID.TID 0000.0001) // =======================================================
(PID.TID 0000.0001) %MON time_tsnumber                =                     4
(PID.TID 0000.0001) %MON time_secondsf                =   4.8000000000000E+03
(PID.TID 0000.0001) %MON dynstat_eta_max              =   3.6465261233762E-03
(PID.TID 0000.0001) %MON dynstat_eta_min              =  -3.2354058794116E-03
(PID.TID 0000.0001) %MON dynstat_eta_mean             =   1.6758746220375E-19
(PID.TID 0000.0001) %MON dynstat_eta_sd               =   7.6425298217026E-04
(PID.TID 0000.0001) %MON dynstat_eta_del2             =   3.7143229042414E-07
(PID.TID 0000.0001) %MON dynstat_uvel_max             =   9.2396240401381E-03
(PID.TID 0000.0001) %MON dynstat_uvel_min             =  -9.4732035015554E-03
(PID.TID 0000.0001) %MON dynstat_uvel_mean            =   6.3576318742796E-06
(PID.TID 0000.0001) %MON dynstat_uvel_sd              =   1.0891654421778E-03
(PID.TID 0000.0001) %MON dynstat_uvel_del2            =   7.9065396534527E-08
(PID.TID 0000.0001) %MON dynstat_vvel_max             =   2.9075202258569E-03
(PID.TID 0000.0001) %MON dynstat_vvel_min             =  -2.2212912597296E-03
(PID.TID 0000.0001) %MON dynstat_vvel_mean            =  -1.0717890799216E-05
(PID.TID 0000.0001) %MON dynstat_vvel_sd              =   2.2864732275698E-04
(PID.TID 0000.0001) %MON dynstat_vvel_del2            =   1.5477135397720E-07
(PID.TID 0000.0001) %MON dynstat_wvel_max             =   1.3823867294209E-05
(PID.TID 0000.0001) %MON dynstat_wvel_min             =  -1.4824539906454E-05
(PID.TID 0000.0001) %MON dynstat_wvel_mean            =  -2.9087288911108E-25
(PID.TID 0000.0001) %MON dynstat_wvel_sd              =   4.7326244844946E-07
(PID.TID 0000.0001) %MON dynstat_wvel_del2            =   2.8405612078466E-09
(PID.TID 0000.0001) %MON dynstat_theta_max            =   2.9999692819473E+01
(PID.TID 0000.0001) %MON dynstat_theta_min            =   1.9999924396702E+00
(PID.TID 0000.0001) %MON dynstat_theta_mean           =   9.8882549983342E+00
(PID.TID 0000.0001) %MON dynstat_theta_sd             =   7.6351469869382E+00
(PID.TID 0000.0001) %MON dynstat_theta_del2           =   2.2627848026638E-07
(PID.TID 0000.0001) %MON dynstat_salt_max             =   3.0000000000000E+01
(PID.TID 0000.0001) %MON dynstat_salt_min             =   3.0000000000000E+01
(PID.TID 0000.0001) %MON dynstat_salt_mean            =   3.0000000000000E+01
(PID.TID 0000.0001) %MON dynstat_salt_sd              =   1.4566126083082E-13
(PID.TID 0000.0001) %MON dynstat_salt_del2            =   0.0000000000000E+00
(PID.TID 0000.0001) %MON trAdv_CFL_u_max              =   2.8493102509170E-04
(PID.TID 0000.0001) %MON trAdv_CFL_v_max              =   1.6541003506234E-05
(PID.TID 0000.0001) %MON trAdv_CFL_w_max              =   2.8419502237086E-04
(PID.TID 0000.0001) %MON advcfl_uvel_max              =   3.7222474612154E-04
(PID.TID 0000.0001) %MON advcfl_vvel_max              =   3.1382474936990E-05
(PID.TID 0000.0001) %MON advcfl_wvel_max              =   3.2344450704990E-04
(PID.TID 0000.0001) %MON advcfl_W_hf_max              =   3.5578895775489E-04
(PID.TID 0000.0001) %MON pe_b_mean                    =   1.5916251415605E-09
(PID.TID 0000.0001) %MON ke_max                       =   4.5047502345302E-05
(PID.TID 0000.0001) %MON ke_mean                      =   6.0908287794573E-07
(PID.TID 0000.0001) %MON ke_vol                       =   5.4083525008008E+16
(PID.TID 0000.0001) %MON vort_r_min                   =  -8.5591556868389E-08
(PID.TID 0000.0001) %MON vort_r_max                   =   8.5006535668407E-08
(PID.TID 0000.0001) %MON vort_a_mean                  =   8.8888580844101E-05
(PID.TID 0000.0001) %MON vort_a_sd                    =   3.0186885512018E-05
(PID.TID 0000.0001) %MON vort_p_mean                  =   9.3126335191219E-05
(PID.TID 0000.0001) %MON vort_p_sd                    =   4.3980027356621E-05
(PID.TID 0000.0001) %MON surfExpan_theta_mean         =   1.5915041014568E-10
(PID.TID 0000.0001) %MON surfExpan_salt_mean          =  -4.3394599144259E-22
(PID.TID 0000.0001) // =======================================================
(PID.TID 0000.0001) // End MONITOR dynamic field statistics
(PID.TID 0000.0001) // =======================================================
 cg2d: Sum(rhs),rhsMax =  -7.10542735760100E-15  6.79851067790923E-03
(PID.TID 0000.0001)      cg2d_init_res =   2.36533326011137E+00
(PID.TID 0000.0001)      cg2d_iters(min,last) =      -1      40
(PID.TID 0000.0001)      cg2d_last_res =   8.04564501966222E-08
(PID.TID 0000.0001) // =======================================================
(PID.TID 0000.0001) // Begin MONITOR dynamic field statistics
(PID.TID 0000.0001) // =======================================================
(PID.TID 0000.0001) %MON time_tsnumber                =                     5
(PID.TID 0000.0001) %MON time_secondsf                =   6.0000000000000E+03
(PID.TID 0000.0001) %MON dynstat_eta_max              =   4.6168930781014E-03
(PID.TID 0000.0001) %MON dynstat_eta_min              =  -4.0758757089816E-03
(PID.TID 0000.0001) %MON dynstat_eta_mean             =   1.0156815891136E-20
(PID.TID 0000.0001) %MON dynstat_eta_sd               =   1.0315436751536E-03
(PID.TID 0000.0001) %MON dynstat_eta_del2             =   4.0497802452552E-07
(PID.TID 0000.0001) %MON dynstat_uvel_max             =   1.1263077004100E-02
(PID.TID 0000.0001) %MON dynstat_uvel_min             =  -1.1789433069030E-02
(PID.TID 0000.0001) %MON dynstat_uvel_mean            =   6.5826048661035E-06
(PID.TID 0000.0001) %MON dynstat_uvel_sd              =   1.3333224313902E-03
(PID.TID 0000.0001) %MON dynstat_uvel_del2            =   1.1095916765068E-07
(PID.TID 0000.0001) %MON dynstat_vvel_max             =   4.5537496934481E-03
(PID.TID 0000.0001) %MON dynstat_vvel_min             =  -3.4982841617962E-03
(PID.TID 0000.0001) %MON dynstat_vvel_mean            =  -1.7416375761963E-05
(PID.TID 0000.0001) %MON dynstat_vvel_sd              =   3.5965241289329E-04
(PID.TID 0000.0001) %MON dynstat_vvel_del2            =   2.4326680310197E-07
(PID.TID 0000.0001) %MON dynstat_wvel_max             =   1.6788133486363E-05
(PID.TID 0000.0001) %MON dynstat_wvel_min             =  -1.8461959422997E-05
(PID.TID 0000.0001) %MON dynstat_wvel_mean            =   9.5988053406656E-24
(PID.TID 0000.0001) %MON dynstat_wvel_sd              =   5.8761037125249E-07
(PID.TID 0000.0001) %MON dynstat_wvel_del2            =   3.4455798679946E-09
(PID.TID 0000.0001) %MON dynstat_theta_max            =   2.9999707812755E+01
(PID.TID 0000.0001) %MON dynstat_theta_min            =   1.9999877223712E+00
(PID.TID 0000.0001) %MON dynstat_theta_mean           =   9.8880967187016E+00
(PID.TID 0000.0001) %MON dynstat_theta_sd             =   7.6347301251228E+00
(PID.TID 0000.0001) %MON dynstat_theta_del2           =   3.5686110474388E-07
(PID.TID 0000.0001) %MON dynstat_salt_max             =   3.0000000000000E+01
(PID.TID 0000.0001) %MON dynstat_salt_min             =   3.0000000000000E+01
(PID.TID 0000.0001) %MON dynstat_salt_mean            =   3.0000000000000E+01
(PID.TID 0000.0001) %MON dynstat_salt_sd              =   1.4566126083082E-13
(PID.TID 0000.0001) %MON dynstat_salt_del2            =   0.0000000000000E+00
(PID.TID 0000.0001) %MON trAdv_CFL_u_max              =   3.7222947058609E-04
(PID.TID 0000.0001) %MON trAdv_CFL_v_max              =   3.0457129744622E-05
(PID.TID 0000.0001) %MON trAdv_CFL_w_max              =   3.7528502656174E-04
(PID.TID 0000.0001) %MON advcfl_uvel_max              =   4.5340395959708E-04
(PID.TID 0000.0001) %MON advcfl_vvel_max              =   4.9151140670688E-05
(PID.TID 0000.0001) %MON advcfl_wvel_max              =   4.0280638741085E-04
(PID.TID 0000.0001) %MON advcfl_W_hf_max              =   4.4308702615193E-04
(PID.TID 0000.0001) %MON pe_b_mean                    =   2.8996244139670E-09
(PID.TID 0000.0001) %MON ke_max                       =   6.9940551385815E-05
(PID.TID 0000.0001) %MON ke_mean                      =   9.3793727388498E-07
(PID.TID 0000.0001) %MON ke_vol                       =   5.4083525008008E+16
(PID.TID 0000.0001) %MON vort_r_min                   =  -1.0425838474354E-07
(PID.TID 0000.0001) %MON vort_r_max                   =   1.0579091460753E-07
(PID.TID 0000.0001) %MON vort_a_mean                  =   8.8888580844101E-05
(PID.TID 0000.0001) %MON vort_a_sd                    =   3.0186884346261E-05
(PID.TID 0000.0001) %MON vort_p_mean                  =   9.3126335191219E-05
(PID.TID 0000.0001) %MON vort_p_sd                    =   4.3980026083396E-05
(PID.TID 0000.0001) %MON surfExpan_theta_mean         =   3.2267487848121E-10
(PID.TID 0000.0001) %MON surfExpan_salt_mean          =  -2.5416836641638E-21
(PID.TID 0000.0001) // =======================================================
(PID.TID 0000.0001) // End MONITOR dynamic field statistics
(PID.TID 0000.0001) // =======================================================
 cg2d: Sum(rhs),rhsMax =   0.00000000000000E+00  7.85497338416778E-03
(PID.TID 0000.0001)      cg2d_init_res =   2.17210511836072E+00
(PID.TID 0000.0001)      cg2d_iters(min,last) =      -1      39
(PID.TID 0000.0001)      cg2d_last_res =   7.08526395652125E-08
(PID.TID 0000.0001) // =======================================================
(PID.TID 0000.0001) // Begin MONITOR dynamic field statistics
(PID.TID 0000.0001) // =======================================================
(PID.TID 0000.0001) %MON time_tsnumber                =                     6
(PID.TID 0000.0001) %MON time_secondsf                =   7.2000000000000E+03
(PID.TID 0000.0001) %MON dynstat_eta_max              =   5.5610659655132E-03
(PID.TID 0000.0001) %MON dynstat_eta_min              =  -4.8805627970614E-03
(PID.TID 0000.0001) %MON dynstat_eta_mean             =  -1.0156815891136E-20
(PID.TID 0000.0001) %MON dynstat_eta_sd               =   1.3092624665984E-03
(PID.TID 0000.0001) %MON dynstat_eta_del2             =   4.6231612063504E-07
(PID.TID 0000.0001) %MON dynstat_uvel_max             =   1.3108861092529E-02
(PID.TID 0000.0001) %MON dynstat_uvel_min             =  -1.4080654882188E-02
(PID.TID 0000.0001) %MON dynstat_uvel_mean            =   5.8991309168694E-06
(PID.TID 0000.0001) %MON dynstat_uvel_sd              =   1.5608687591447E-03
(PID.TID 0000.0001) %MON dynstat_uvel_del2            =   1.6417991652386E-07
(PID.TID 0000.0001) %MON dynstat_vvel_max             =   6.4790510306200E-03
(PID.TID 0000.0001) %MON dynstat_vvel_min             =  -5.0074811212851E-03
(PID.TID 0000.0001) %MON dynstat_vvel_mean            =  -2.5601166208862E-05
(PID.TID 0000.0001) %MON dynstat_vvel_sd              =   5.1420258286967E-04
(PID.TID 0000.0001) %MON dynstat_vvel_del2            =   3.4779955922076E-07
(PID.TID 0000.0001) %MON dynstat_wvel_max             =   1.9414940366086E-05
(PID.TID 0000.0001) %MON dynstat_wvel_min             =  -2.1912950835186E-05
(PID.TID 0000.0001) %MON dynstat_wvel_mean            =  -1.3380152899110E-23
(PID.TID 0000.0001) %MON dynstat_wvel_sd              =   6.9414388113397E-07
(PID.TID 0000.0001) %MON dynstat_wvel_del2            =   4.0048117124358E-09
(PID.TID 0000.0001) %MON dynstat_theta_max            =   2.9999757632278E+01
(PID.TID 0000.0001) %MON dynstat_theta_min            =   1.9999823289868E+00
(PID.TID 0000.0001) %MON dynstat_theta_mean           =   9.8879385123643E+00
(PID.TID 0000.0001) %MON dynstat_theta_sd             =   7.6343135993486E+00
(PID.TID 0000.0001) %MON dynstat_theta_del2           =   5.1225566986552E-07
(PID.TID 0000.0001) %MON dynstat_salt_max             =   3.0000000000000E+01
(PID.TID 0000.0001) %MON dynstat_salt_min             =   3.0000000000000E+01
(PID.TID 0000.0001) %MON dynstat_salt_mean            =   3.0000000000000E+01
(PID.TID 0000.0001) %MON dynstat_salt_sd              =   1.4566126083082E-13
(PID.TID 0000.0001) %MON dynstat_salt_del2            =   0.0000000000000E+00
(PID.TID 0000.0001) %MON trAdv_CFL_u_max              =   4.5340971442923E-04
(PID.TID 0000.0001) %MON trAdv_CFL_v_max              =   4.7701867730604E-05
(PID.TID 0000.0001) %MON trAdv_CFL_w_max              =   4.6249436524644E-04
(PID.TID 0000.0001) %MON advcfl_uvel_max              =   5.2743095008940E-04
(PID.TID 0000.0001) %MON advcfl_vvel_max              =   6.9931983542432E-05
(PID.TID 0000.0001) %MON advcfl_wvel_max              =   4.7810074549497E-04
(PID.TID 0000.0001) %MON advcfl_W_hf_max              =   5.2591082004446E-04
(PID.TID 0000.0001) %MON pe_b_mean                    =   4.6711083625578E-09
(PID.TID 0000.0001) %MON ke_max                       =   1.0006545269338E-04
(PID.TID 0000.0001) %MON ke_mean                      =   1.3284086670683E-06
(PID.TID 0000.0001) %MON ke_vol                       =   5.4083525008008E+16
(PID.TID 0000.0001) %MON vort_r_min                   =  -1.2128058821749E-07
(PID.TID 0000.0001) %MON vort_r_max                   =   1.2635088977881E-07
(PID.TID 0000.0001) %MON vort_a_mean                  =   8.8888580844101E-05
(PID.TID 0000.0001) %MON vort_a_sd                    =   3.0186882691909E-05
(PID.TID 0000.0001) %MON vort_p_mean                  =   9.3126335191219E-05
(PID.TID 0000.0001) %MON vort_p_sd                    =   4.3980024740088E-05
(PID.TID 0000.0001) %MON surfExpan_theta_mean         =   5.6856341465999E-10
(PID.TID 0000.0001) %MON surfExpan_salt_mean          =  -2.2317222417048E-21
(PID.TID 0000.0001) // =======================================================
(PID.TID 0000.0001) // End MONITOR dynamic field statistics
(PID.TID 0000.0001) // =======================================================
 cg2d: Sum(rhs),rhsMax =   2.48689957516035E-14  8.86910976992421E-03
(PID.TID 0000.0001)      cg2d_init_res =   2.00206207957843E+00
(PID.TID 0000.0001)      cg2d_iters(min,last) =      -1      40
(PID.TID 0000.0001)      cg2d_last_res =   7.89659131094869E-08
(PID.TID 0000.0001) // =======================================================
(PID.TID 0000.0001) // Begin MONITOR dynamic field statistics
(PID.TID 0000.0001) // =======================================================
(PID.TID 0000.0001) %MON time_tsnumber                =                     7
(PID.TID 0000.0001) %MON time_secondsf                =   8.4000000000000E+03
(PID.TID 0000.0001) %MON dynstat_eta_max              =   6.4505103730841E-03
(PID.TID 0000.0001) %MON dynstat_eta_min              =  -5.6417666029346E-03
(PID.TID 0000.0001) %MON dynstat_eta_mean             =   1.5235223836705E-19
(PID.TID 0000.0001) %MON dynstat_eta_sd               =   1.5899555340093E-03
(PID.TID 0000.0001) %MON dynstat_eta_del2             =   5.4359423961944E-07
(PID.TID 0000.0001) %MON dynstat_uvel_max             =   1.4750731557389E-02
(PID.TID 0000.0001) %MON dynstat_uvel_min             =  -1.6344598455548E-02
(PID.TID 0000.0001) %MON dynstat_uvel_mean            =   4.1655317207733E-06
(PID.TID 0000.0001) %MON dynstat_uvel_sd              =   1.7698853767288E-03
(PID.TID 0000.0001) %MON dynstat_uvel_del2            =   2.4488564804992E-07
(PID.TID 0000.0001) %MON dynstat_vvel_max             =   8.6392677011418E-03
(PID.TID 0000.0001) %MON dynstat_vvel_min             =  -6.7218527210485E-03
(PID.TID 0000.0001) %MON dynstat_vvel_mean            =  -3.5136341286387E-05
(PID.TID 0000.0001) %MON dynstat_vvel_sd              =   6.8946807747204E-04
(PID.TID 0000.0001) %MON dynstat_vvel_del2            =   4.6670402192340E-07
(PID.TID 0000.0001) %MON dynstat_wvel_max             =   2.1681751853260E-05
(PID.TID 0000.0001) %MON dynstat_wvel_min             =  -2.5145243540157E-05
(PID.TID 0000.0001) %MON dynstat_wvel_mean            =  -2.0942848015998E-23
(PID.TID 0000.0001) %MON dynstat_wvel_sd              =   7.9266086205263E-07
(PID.TID 0000.0001) %MON dynstat_wvel_del2            =   4.5221424152213E-09
(PID.TID 0000.0001) %MON dynstat_theta_max            =   2.9999841058731E+01
(PID.TID 0000.0001) %MON dynstat_theta_min            =   1.9999765018177E+00
(PID.TID 0000.0001) %MON dynstat_theta_mean           =   9.8877803792276E+00
(PID.TID 0000.0001) %MON dynstat_theta_sd             =   7.6338974091880E+00
(PID.TID 0000.0001) %MON dynstat_theta_del2           =   6.9084247877978E-07
(PID.TID 0000.0001) %MON dynstat_salt_max             =   3.0000000000000E+01
(PID.TID 0000.0001) %MON dynstat_salt_min             =   3.0000000000000E+01
(PID.TID 0000.0001) %MON dynstat_salt_mean            =   3.0000000000000E+01
(PID.TID 0000.0001) %MON dynstat_salt_sd              =   1.4566126083082E-13
(PID.TID 0000.0001) %MON dynstat_salt_del2            =   0.0000000000000E+00
(PID.TID 0000.0001) %MON trAdv_CFL_u_max              =   5.2743764450951E-04
(PID.TID 0000.0001) %MON trAdv_CFL_v_max              =   6.7869965652074E-05
(PID.TID 0000.0001) %MON trAdv_CFL_w_max              =   5.4479427779270E-04
(PID.TID 0000.0001) %MON advcfl_uvel_max              =   5.9356400277139E-04
(PID.TID 0000.0001) %MON advcfl_vvel_max              =   9.3248397618671E-05
(PID.TID 0000.0001) %MON advcfl_wvel_max              =   5.4862349542160E-04
(PID.TID 0000.0001) %MON advcfl_W_hf_max              =   6.0348584496376E-04
(PID.TID 0000.0001) %MON pe_b_mean                    =   6.8886871853454E-09
(PID.TID 0000.0001) %MON ke_max                       =   1.3530315044618E-04
(PID.TID 0000.0001) %MON ke_mean                      =   1.7748635219733E-06
(PID.TID 0000.0001) %MON ke_vol                       =   5.4083525008008E+16
(PID.TID 0000.0001) %MON vort_r_min                   =  -1.3727804969645E-07
(PID.TID 0000.0001) %MON vort_r_max                   =   1.4666608728180E-07
(PID.TID 0000.0001) %MON vort_a_mean                  =   8.8888580844101E-05
(PID.TID 0000.0001) %MON vort_a_sd                    =   3.0186880501927E-05
(PID.TID 0000.0001) %MON vort_p_mean                  =   9.3126335191219E-05
(PID.TID 0000.0001) %MON vort_p_sd                    =   4.3980023315438E-05
(PID.TID 0000.0001) %MON surfExpan_theta_mean         =   9.0970973507049E-10
(PID.TID 0000.0001) %MON surfExpan_salt_mean          =  -7.4390741390159E-22
(PID.TID 0000.0001) // =======================================================
(PID.TID 0000.0001) // End MONITOR dynamic field statistics
(PID.TID 0000.0001) // =======================================================
 cg2d: Sum(rhs),rhsMax =   7.10542735760100E-14  9.83207586437284E-03
(PID.TID 0000.0001)      cg2d_init_res =   1.84950965764908E+00
(PID.TID 0000.0001)      cg2d_iters(min,last) =      -1      40
(PID.TID 0000.0001)      cg2d_last_res =   7.33105403144919E-08
(PID.TID 0000.0001) // =======================================================
(PID.TID 0000.0001) // Begin MONITOR dynamic field statistics
(PID.TID 0000.0001) // =======================================================
(PID.TID 0000.0001) %MON time_tsnumber                =                     8
(PID.TID 0000.0001) %MON time_secondsf                =   9.6000000000000E+03
(PID.TID 0000.0001) %MON dynstat_eta_max              =   7.2505797492706E-03
(PID.TID 0000.0001) %MON dynstat_eta_min              =  -6.3523645329127E-03
(PID.TID 0000.0001) %MON dynstat_eta_mean             =  -4.1642945153659E-19
(PID.TID 0000.0001) %MON dynstat_eta_sd               =   1.8671936081596E-03
(PID.TID 0000.0001) %MON dynstat_eta_del2             =   6.4560719089767E-07
(PID.TID 0000.0001) %MON dynstat_uvel_max             =   1.6270441851514E-02
(PID.TID 0000.0001) %MON dynstat_uvel_min             =  -1.8579032102740E-02
(PID.TID 0000.0001) %MON dynstat_uvel_mean            =   1.2699702272093E-06
(PID.TID 0000.0001) %MON dynstat_uvel_sd              =   1.9589355789205E-03
(PID.TID 0000.0001) %MON dynstat_uvel_del2            =   3.5606255312506E-07
(PID.TID 0000.0001) %MON dynstat_vvel_max             =   1.0986287508989E-02
(PID.TID 0000.0001) %MON dynstat_vvel_min             =  -8.6112668810117E-03
(PID.TID 0000.0001) %MON dynstat_vvel_mean            =  -4.5830832557989E-05
(PID.TID 0000.0001) %MON dynstat_vvel_sd              =   8.8235640607774E-04
(PID.TID 0000.0001) %MON dynstat_vvel_del2            =   5.9829123289927E-07
(PID.TID 0000.0001) %MON dynstat_wvel_max             =   2.3572080787991E-05
(PID.TID 0000.0001) %MON dynstat_wvel_min             =  -2.8131616543690E-05
(PID.TID 0000.0001) %MON dynstat_wvel_mean            =  -1.7452373346665E-23
(PID.TID 0000.0001) %MON dynstat_wvel_sd              =   8.8333557771826E-07
(PID.TID 0000.0001) %MON dynstat_wvel_del2            =   5.0059280901761E-09
(PID.TID 0000.0001) %MON dynstat_theta_max            =   2.9999956869302E+01
(PID.TID 0000.0001) %MON dynstat_theta_min            =   1.9999704939544E+00
(PID.TID 0000.0001) %MON dynstat_theta_mean           =   9.8876223191896E+00
(PID.TID 0000.0001) %MON dynstat_theta_sd             =   7.6334815541933E+00
(PID.TID 0000.0001) %MON dynstat_theta_del2           =   8.9103456217140E-07
(PID.TID 0000.0001) %MON dynstat_salt_max             =   3.0000000000000E+01
(PID.TID 0000.0001) %MON dynstat_salt_min             =   3.0000000000000E+01
(PID.TID 0000.0001) %MON dynstat_salt_mean            =   3.0000000000000E+01
(PID.TID 0000.0001) %MON dynstat_salt_sd              =   1.4566126083082E-13
(PID.TID 0000.0001) %MON dynstat_salt_del2            =   0.0000000000000E+00
(PID.TID 0000.0001) %MON trAdv_CFL_u_max              =   5.9357153658561E-04
(PID.TID 0000.0001) %MON trAdv_CFL_v_max              =   9.0498870801371E-05
(PID.TID 0000.0001) %MON trAdv_CFL_w_max              =   6.2127473311517E-04
(PID.TID 0000.0001) %MON advcfl_uvel_max              =   6.5127529705592E-04
(PID.TID 0000.0001) %MON advcfl_vvel_max              =   1.1858108134048E-04
(PID.TID 0000.0001) %MON advcfl_wvel_max              =   6.1378072458960E-04
(PID.TID 0000.0001) %MON advcfl_W_hf_max              =   6.7515879704856E-04
(PID.TID 0000.0001) %MON pe_b_mean                    =   9.5004726192091E-09
(PID.TID 0000.0001) %MON ke_max                       =   1.7552905781762E-04
(PID.TID 0000.0001) %MON ke_mean                      =   2.2711774225600E-06
(PID.TID 0000.0001) %MON ke_vol                       =   5.4083525008008E+16
(PID.TID 0000.0001) %MON vort_r_min                   =  -1.7448626960886E-07
(PID.TID 0000.0001) %MON vort_r_max                   =   1.8657852154175E-07
(PID.TID 0000.0001) %MON vort_a_mean                  =   8.8888580844101E-05
(PID.TID 0000.0001) %MON vort_a_sd                    =   3.0186877746543E-05
(PID.TID 0000.0001) %MON vort_p_mean                  =   9.3126335191219E-05
(PID.TID 0000.0001) %MON vort_p_sd                    =   4.3980021816424E-05
(PID.TID 0000.0001) %MON surfExpan_theta_mean         =   1.3553018900378E-09
(PID.TID 0000.0001) %MON surfExpan_salt_mean          =  -2.0457453882294E-21
(PID.TID 0000.0001) // =======================================================
(PID.TID 0000.0001) // End MONITOR dynamic field statistics
(PID.TID 0000.0001) // =======================================================
 cg2d: Sum(rhs),rhsMax =  -1.59872115546023E-13  1.07355395381139E-02
(PID.TID 0000.0001)      cg2d_init_res =   1.71124687666406E+00
(PID.TID 0000.0001)      cg2d_iters(min,last) =      -1      40
(PID.TID 0000.0001)      cg2d_last_res =   7.09883109782321E-08
(PID.TID 0000.0001) // =======================================================
(PID.TID 0000.0001) // Begin MONITOR dynamic field statistics
(PID.TID 0000.0001) // =======================================================
(PID.TID 0000.0001) %MON time_tsnumber                =                     9
(PID.TID 0000.0001) %MON time_secondsf                =   1.0800000000000E+04
(PID.TID 0000.0001) %MON dynstat_eta_max              =   7.9237196042755E-03
(PID.TID 0000.0001) %MON dynstat_eta_min              =  -7.0061383247577E-03
(PID.TID 0000.0001) %MON dynstat_eta_mean             =  -1.3000724340655E-18
(PID.TID 0000.0001) %MON dynstat_eta_sd               =   2.1357371371127E-03
(PID.TID 0000.0001) %MON dynstat_eta_del2             =   7.6382250441664E-07
(PID.TID 0000.0001) %MON dynstat_uvel_max             =   1.7634182782312E-02
(PID.TID 0000.0001) %MON dynstat_uvel_min             =  -2.0781744728041E-02
(PID.TID 0000.0001) %MON dynstat_uvel_mean            =  -2.8654749922828E-06
(PID.TID 0000.0001) %MON dynstat_uvel_sd              =   2.1270975910265E-03
(PID.TID 0000.0001) %MON dynstat_uvel_del2            =   4.9927564506605E-07
(PID.TID 0000.0001) %MON dynstat_vvel_max             =   1.3468962910242E-02
(PID.TID 0000.0001) %MON dynstat_vvel_min             =  -1.0643026449780E-02
(PID.TID 0000.0001) %MON dynstat_vvel_mean            =  -5.7445237978882E-05
(PID.TID 0000.0001) %MON dynstat_vvel_sd              =   1.0895815349918E-03
(PID.TID 0000.0001) %MON dynstat_vvel_del2            =   7.4094104091805E-07
(PID.TID 0000.0001) %MON dynstat_wvel_max             =   2.5075741284739E-05
(PID.TID 0000.0001) %MON dynstat_wvel_min             =  -3.0848300364453E-05
(PID.TID 0000.0001) %MON dynstat_wvel_mean            =   4.1885696031995E-23
(PID.TID 0000.0001) %MON dynstat_wvel_sd              =   9.6663856528932E-07
(PID.TID 0000.0001) %MON dynstat_wvel_del2            =   5.4680976309684E-09
(PID.TID 0000.0001) %MON dynstat_theta_max            =   3.0000103779153E+01
(PID.TID 0000.0001) %MON dynstat_theta_min            =   1.9999645607893E+00
(PID.TID 0000.0001) %MON dynstat_theta_mean           =   9.8874643321433E+00
(PID.TID 0000.0001) %MON dynstat_theta_sd             =   7.6330660339044E+00
(PID.TID 0000.0001) %MON dynstat_theta_del2           =   1.1113986658150E-06
(PID.TID 0000.0001) %MON dynstat_salt_max             =   3.0000000000000E+01
(PID.TID 0000.0001) %MON dynstat_salt_min             =   3.0000000000000E+01
(PID.TID 0000.0001) %MON dynstat_salt_mean            =   3.0000000000000E+01
(PID.TID 0000.0001) %MON dynstat_salt_sd              =   1.4566126083082E-13
(PID.TID 0000.0001) %MON dynstat_salt_del2            =   0.0000000000000E+00
(PID.TID 0000.0001) %MON trAdv_CFL_u_max              =   6.5128356337106E-04
(PID.TID 0000.0001) %MON trAdv_CFL_v_max              =   1.1508459377076E-04
(PID.TID 0000.0001) %MON trAdv_CFL_w_max              =   6.9116018457229E-04
(PID.TID 0000.0001) %MON advcfl_uvel_max              =   7.0019217287846E-04
(PID.TID 0000.0001) %MON advcfl_vvel_max              =   1.4537797095921E-04
(PID.TID 0000.0001) %MON advcfl_wvel_max              =   6.7305382613351E-04
(PID.TID 0000.0001) %MON advcfl_W_hf_max              =   7.4035920874686E-04
(PID.TID 0000.0001) %MON pe_b_mean                    =   1.2429741748846E-08
(PID.TID 0000.0001) %MON ke_max                       =   2.2061226007138E-04
(PID.TID 0000.0001) %MON ke_mean                      =   2.8108315378192E-06
(PID.TID 0000.0001) %MON ke_vol                       =   5.4083525008008E+16
(PID.TID 0000.0001) %MON vort_r_min                   =  -2.1414133753932E-07
(PID.TID 0000.0001) %MON vort_r_max                   =   2.3282052727211E-07
(PID.TID 0000.0001) %MON vort_a_mean                  =   8.8888580844101E-05
(PID.TID 0000.0001) %MON vort_a_sd                    =   3.0186874413763E-05
(PID.TID 0000.0001) %MON vort_p_mean                  =   9.3126335191219E-05
(PID.TID 0000.0001) %MON vort_p_sd                    =   4.3980020267591E-05
(PID.TID 0000.0001) %MON surfExpan_theta_mean         =   1.9100230791629E-09
(PID.TID 0000.0001) %MON surfExpan_salt_mean          =   1.0538688363606E-21
(PID.TID 0000.0001) // =======================================================
(PID.TID 0000.0001) // End MONITOR dynamic field statistics
(PID.TID 0000.0001) // =======================================================
 cg2d: Sum(rhs),rhsMax =   4.97379915032070E-14  1.15726477671213E-02
(PID.TID 0000.0001)      cg2d_init_res =   1.58424258203878E+00
(PID.TID 0000.0001)      cg2d_iters(min,last) =      -1      40
(PID.TID 0000.0001)      cg2d_last_res =   7.35847704109060E-08
(PID.TID 0000.0001) // =======================================================
(PID.TID 0000.0001) // Begin MONITOR dynamic field statistics
(PID.TID 0000.0001) // =======================================================
(PID.TID 0000.0001) %MON time_tsnumber                =                    10
(PID.TID 0000.0001) %MON time_secondsf                =   1.2000000000000E+04
(PID.TID 0000.0001) %MON dynstat_eta_max              =   8.4351802125882E-03
(PID.TID 0000.0001) %MON dynstat_eta_min              =  -7.5980084604061E-03
(PID.TID 0000.0001) %MON dynstat_eta_mean             =  -1.2188179069364E-19
(PID.TID 0000.0001) %MON dynstat_eta_sd               =   2.3914978972136E-03
(PID.TID 0000.0001) %MON dynstat_eta_del2             =   8.9387918887691E-07
(PID.TID 0000.0001) %MON dynstat_uvel_max             =   1.8792360955067E-02
(PID.TID 0000.0001) %MON dynstat_uvel_min             =  -2.2950518283931E-02
(PID.TID 0000.0001) %MON dynstat_uvel_mean            =  -8.2810980063849E-06
(PID.TID 0000.0001) %MON dynstat_uvel_sd              =   2.2739862651523E-03
(PID.TID 0000.0001) %MON dynstat_uvel_del2            =   6.7536368391695E-07
(PID.TID 0000.0001) %MON dynstat_vvel_max             =   1.6034431643962E-02
(PID.TID 0000.0001) %MON dynstat_vvel_min             =  -1.2782368390854E-02
(PID.TID 0000.0001) %MON dynstat_vvel_mean            =  -6.9700724621411E-05
(PID.TID 0000.0001) %MON dynstat_vvel_sd              =   1.3077358585103E-03
(PID.TID 0000.0001) %MON dynstat_vvel_del2            =   8.9319257591244E-07
(PID.TID 0000.0001) %MON dynstat_wvel_max             =   2.6189075412813E-05
(PID.TID 0000.0001) %MON dynstat_wvel_min             =  -3.3273273539320E-05
(PID.TID 0000.0001) %MON dynstat_wvel_mean            =  -8.8425358289768E-23
(PID.TID 0000.0001) %MON dynstat_wvel_sd              =   1.0432529336138E-06
(PID.TID 0000.0001) %MON dynstat_wvel_del2            =   5.9225163122853E-09
(PID.TID 0000.0001) %MON dynstat_theta_max            =   3.0000280436193E+01
(PID.TID 0000.0001) %MON dynstat_theta_min            =   1.9999589512407E+00
(PID.TID 0000.0001) %MON dynstat_theta_mean           =   9.8873064179805E+00
(PID.TID 0000.0001) %MON dynstat_theta_sd             =   7.6326508478575E+00
(PID.TID 0000.0001) %MON dynstat_theta_del2           =   1.3507460301857E-06
(PID.TID 0000.0001) %MON dynstat_salt_max             =   3.0000000000000E+01
(PID.TID 0000.0001) %MON dynstat_salt_min             =   3.0000000000000E+01
(PID.TID 0000.0001) %MON dynstat_salt_mean            =   3.0000000000000E+01
(PID.TID 0000.0001) %MON dynstat_salt_sd              =   1.4566126083082E-13
(PID.TID 0000.0001) %MON dynstat_salt_del2            =   0.0000000000000E+00
(PID.TID 0000.0001) %MON trAdv_CFL_u_max              =   7.0020106007130E-04
(PID.TID 0000.0001) %MON trAdv_CFL_v_max              =   1.4109134899030E-04
(PID.TID 0000.0001) %MON trAdv_CFL_w_max              =   7.5382200584696E-04
(PID.TID 0000.0001) %MON advcfl_uvel_max              =   7.4004636855808E-04
(PID.TID 0000.0001) %MON advcfl_vvel_max              =   1.7306849483643E-04
(PID.TID 0000.0001) %MON advcfl_wvel_max              =   7.2596233176699E-04
(PID.TID 0000.0001) %MON advcfl_W_hf_max              =   7.9855856494369E-04
(PID.TID 0000.0001) %MON pe_b_mean                    =   1.5584989474228E-08
(PID.TID 0000.0001) %MON ke_max                       =   2.7041425004462E-04
(PID.TID 0000.0001) %MON ke_mean                      =   3.3870134955721E-06
(PID.TID 0000.0001) %MON ke_vol                       =   5.4083525008008E+16
(PID.TID 0000.0001) %MON vort_r_min                   =  -2.5532824349035E-07
(PID.TID 0000.0001) %MON vort_r_max                   =   2.8178614862459E-07
(PID.TID 0000.0001) %MON vort_a_mean                  =   8.8888580844101E-05
(PID.TID 0000.0001) %MON vort_a_sd                    =   3.0186870509610E-05
(PID.TID 0000.0001) %MON vort_p_mean                  =   9.3126335191219E-05
(PID.TID 0000.0001) %MON vort_p_sd                    =   4.3980018710593E-05
(PID.TID 0000.0001) %MON surfExpan_theta_mean         =   2.5735177491463E-09
(PID.TID 0000.0001) %MON surfExpan_salt_mean          =  -4.9593827593439E-22
(PID.TID 0000.0001) // =======================================================
(PID.TID 0000.0001) // End MONITOR dynamic field statistics
(PID.TID 0000.0001) // =======================================================
(PID.TID 0000.0001) DIAGSTATS_CLOSE_IO: close file: dynStDiag.0000000000.txt , unit=     9
(PID.TID 0000.0001) %CHECKPOINT        10 ckptA
(PID.TID 0000.0001)   early fc =  0.000000000000000D+00
 --> objf_test(bi,bj)        =  0.808124009691853D+06
 --> objf_test(bi,bj)        =  0.808124065426659D+06
 --> objf_test(bi,bj)        =  0.804391886267214D+06
 --> objf_test(bi,bj)        =  0.804390483525038D+06
(PID.TID 0000.0001)   local fc =  0.322503044491076D+07
(PID.TID 0000.0001)  global fc =  0.322503044491076D+07
 cg2d: Sum(rhs),rhsMax =   4.97379915032070E-14  1.15726477671213E-02
(PID.TID 0000.0001) Did not write pickup because writePickupAtEnd = FALSE
 cg2d: Sum(rhs),rhsMax =   4.97379915032070E-14  1.15726477671213E-02
 cg2d: Sum(rhs),rhsMax =   4.97379915032070E-14  1.15726477671213E-02
 cg2d: Sum(rhs),rhsMax =   0.00000000000000E+00  0.00000000000000E+00
 cg2d: Sum(rhs),rhsMax =  -1.59872115546023E-13  1.07355395381139E-02
 cg2d: Sum(rhs),rhsMax =  -1.59872115546023E-13  1.07355395381139E-02
 cg2d: Sum(rhs),rhsMax =  -1.59872115546023E-13  1.07355395381139E-02
 cg2d: Sum(rhs),rhsMax =  -3.81916720471054E-14  5.65480494609326E-06
 cg2d: Sum(rhs),rhsMax =   7.10542735760100E-14  9.83207586437284E-03
 cg2d: Sum(rhs),rhsMax =   7.10542735760100E-14  9.83207586437284E-03
 cg2d: Sum(rhs),rhsMax =   7.10542735760100E-14  9.83207586437284E-03
 cg2d: Sum(rhs),rhsMax =  -7.99360577730113E-14  3.62629960186689E-06
 cg2d: Sum(rhs),rhsMax =   2.48689957516035E-14  8.86910976992421E-03
 cg2d: Sum(rhs),rhsMax =   2.48689957516035E-14  8.86910976992421E-03
 cg2d: Sum(rhs),rhsMax =   2.48689957516035E-14  8.86910976992421E-03
 cg2d: Sum(rhs),rhsMax =  -8.21565038222616E-14  3.01025345713378E-06
 cg2d: Sum(rhs),rhsMax =   0.00000000000000E+00  7.85497338416778E-03
 cg2d: Sum(rhs),rhsMax =   0.00000000000000E+00  7.85497338416778E-03
 cg2d: Sum(rhs),rhsMax =   0.00000000000000E+00  7.85497338416778E-03
 cg2d: Sum(rhs),rhsMax =  -3.07309733216243E-13  2.48328740844247E-06
 cg2d: Sum(rhs),rhsMax =  -7.10542735760100E-15  6.79851067790923E-03
 cg2d: Sum(rhs),rhsMax =  -7.10542735760100E-15  6.79851067790923E-03
 cg2d: Sum(rhs),rhsMax =  -7.10542735760100E-15  6.79851067790923E-03
 cg2d: Sum(rhs),rhsMax =  -2.02504679691629E-13  2.20490669334809E-06
 cg2d: Sum(rhs),rhsMax =   2.13162820728030E-14  5.70329250172606E-03
 cg2d: Sum(rhs),rhsMax =   2.13162820728030E-14  5.70329250172606E-03
 cg2d: Sum(rhs),rhsMax =   2.13162820728030E-14  5.70329250172606E-03
 cg2d: Sum(rhs),rhsMax =  -4.33431068813661E-13  2.04505020340773E-06
 cg2d: Sum(rhs),rhsMax =   1.77635683940025E-14  4.54649289659410E-03
 cg2d: Sum(rhs),rhsMax =   1.77635683940025E-14  4.54649289659410E-03
 cg2d: Sum(rhs),rhsMax =   1.77635683940025E-14  4.54649289659410E-03
 cg2d: Sum(rhs),rhsMax =  -5.68434188608080E-14  2.11307801790825E-06
 cg2d: Sum(rhs),rhsMax =  -5.19584375524573E-14  3.23898321808473E-03
 cg2d: Sum(rhs),rhsMax =  -5.19584375524573E-14  3.23898321808473E-03
 cg2d: Sum(rhs),rhsMax =  -5.19584375524573E-14  3.23898321808473E-03
 cg2d: Sum(rhs),rhsMax =   4.40536496171262E-13  2.18118369549837E-06
(PID.TID 0000.0001) SOLVE_FOR_PRESSURE: putPmEinXvector =    F
 cg2d: Sum(rhs),rhsMax =   0.00000000000000E+00  1.64867252901168E-03
(PID.TID 0000.0001) SOLVE_FOR_PRESSURE: putPmEinXvector =    F
 cg2d: Sum(rhs),rhsMax =   0.00000000000000E+00  1.64867252901168E-03
 cg2d: Sum(rhs),rhsMax =   0.00000000000000E+00  1.64867252901168E-03
 cg2d: Sum(rhs),rhsMax =  -3.26849658449646E-13  2.23277119680451E-06
(PID.TID 0000.0001) Start initial hydrostatic pressure computation
(PID.TID 0000.0001) Pressure is predetermined for buoyancyRelation OCEANIC
(PID.TID 0000.0001) 
(PID.TID 0000.0001) // =======================================================
(PID.TID 0000.0001) // Model current state
(PID.TID 0000.0001) // =======================================================
(PID.TID 0000.0001) 
 ph-pack: packing ecco_cost
 ph-pack: packing ecco_ctrl
(PID.TID 0000.0001) // =======================================================
(PID.TID 0000.0001) // Gradient-check starts (grdchk_main)
(PID.TID 0000.0001) // =======================================================
(PID.TID 0000.0001) Start initial hydrostatic pressure computation
(PID.TID 0000.0001) Pressure is predetermined for buoyancyRelation OCEANIC
(PID.TID 0000.0001) 
(PID.TID 0000.0001) // =======================================================
(PID.TID 0000.0001) // Model current state
(PID.TID 0000.0001) // =======================================================
(PID.TID 0000.0001) 
(PID.TID 0000.0001) SOLVE_FOR_PRESSURE: putPmEinXvector =    F
 cg2d: Sum(rhs),rhsMax =   0.00000000000000E+00  1.64867252901168E-03
 cg2d: Sum(rhs),rhsMax =  -5.19584375524573E-14  3.23898321808473E-03
 cg2d: Sum(rhs),rhsMax =   1.77635683940025E-14  4.54649289659410E-03
 cg2d: Sum(rhs),rhsMax =   2.13162820728030E-14  5.70329250172606E-03
 cg2d: Sum(rhs),rhsMax =  -7.10542735760100E-15  6.79851067790923E-03
 cg2d: Sum(rhs),rhsMax =   0.00000000000000E+00  7.85497338416778E-03
 cg2d: Sum(rhs),rhsMax =   2.48689957516035E-14  8.86910976992421E-03
 cg2d: Sum(rhs),rhsMax =   7.10542735760100E-14  9.83207586437284E-03
 cg2d: Sum(rhs),rhsMax =  -1.59872115546023E-13  1.07355395381139E-02
 cg2d: Sum(rhs),rhsMax =   4.97379915032070E-14  1.15726477671213E-02
(PID.TID 0000.0001) Did not write pickup because writePickupAtEnd = FALSE
(PID.TID 0000.0001)   early fc =  0.000000000000000D+00
 --> objf_test(bi,bj)        =  0.808124009691853D+06
 --> objf_test(bi,bj)        =  0.808124065426659D+06
 --> objf_test(bi,bj)        =  0.804391886267214D+06
 --> objf_test(bi,bj)        =  0.804390483525038D+06
(PID.TID 0000.0001)   local fc =  0.322503044491076D+07
(PID.TID 0000.0001)  global fc =  0.322503044491076D+07
(PID.TID 0000.0001) grdchk reference fc: fcref       =  3.22503044491076E+06
grad-res -------------------------------
 grad-res  proc    #    i    j    k   bi   bj iobc       fc ref            fc + eps           fc - eps
 grad-res  proc    #    i    j    k   bi   bj iobc      adj grad            fd grad          1 - fd/adj
 grad-res exact position met: 
 grad-res     0  183    4    8    1    1    1
(PID.TID 0000.0001) ====== Starts gradient-check number   1 (=ichknum) =======
 ph-test icomp, ncvarcomp, ichknum          183       54000           1
 ph-grd _loc: bi, bj, icomptest, ichknum            1           1           0
           1
 ph-grd -->hit<--            4           8           1           1
(PID.TID 0000.0001) grdchk pos: i,j,k=    4    8    1 ; bi,bj=   1   1 ; iobc=  1 ; rec=   1
(PID.TID 0000.0001) Start initial hydrostatic pressure computation
(PID.TID 0000.0001) Pressure is predetermined for buoyancyRelation OCEANIC
(PID.TID 0000.0001) 
(PID.TID 0000.0001) // =======================================================
(PID.TID 0000.0001) // Model current state
(PID.TID 0000.0001) // =======================================================
(PID.TID 0000.0001) 
(PID.TID 0000.0001) SOLVE_FOR_PRESSURE: putPmEinXvector =    F
 cg2d: Sum(rhs),rhsMax =  -6.10622663543836E-16  1.08785860432881E-01
 cg2d: Sum(rhs),rhsMax =  -8.60422844084496E-16  1.29805715041030E-01
 cg2d: Sum(rhs),rhsMax =   1.08246744900953E-15  1.24189107959659E-01
 cg2d: Sum(rhs),rhsMax =   2.49800180540660E-15  1.21703129952424E-01
 cg2d: Sum(rhs),rhsMax =  -8.77076189453874E-15  1.21890072870959E-01
 cg2d: Sum(rhs),rhsMax =   4.44089209850063E-15  1.22321453646954E-01
 cg2d: Sum(rhs),rhsMax =  -9.32587340685131E-15  1.22491301403011E-01
 cg2d: Sum(rhs),rhsMax =  -1.02140518265514E-14  1.22459692113437E-01
 cg2d: Sum(rhs),rhsMax =   7.99360577730113E-15  1.22294890623101E-01
 cg2d: Sum(rhs),rhsMax =  -8.88178419700125E-16  1.22023311508427E-01
(PID.TID 0000.0001) Did not write pickup because writePickupAtEnd = FALSE
(PID.TID 0000.0001)   early fc =  0.000000000000000D+00
 --> objf_test(bi,bj)        =  0.808184706230157D+06
 --> objf_test(bi,bj)        =  0.808124065559103D+06
 --> objf_test(bi,bj)        =  0.804391886465630D+06
 --> objf_test(bi,bj)        =  0.804390483526484D+06
(PID.TID 0000.0001)   local fc =  0.322509114178137D+07
(PID.TID 0000.0001)  global fc =  0.322509114178137D+07
(PID.TID 0000.0001) grdchk perturb(+)fc: fcpertplus  =  3.22509114178137E+06
(PID.TID 0000.0001) Start initial hydrostatic pressure computation
(PID.TID 0000.0001) Pressure is predetermined for buoyancyRelation OCEANIC
(PID.TID 0000.0001) 
(PID.TID 0000.0001) // =======================================================
(PID.TID 0000.0001) // Model current state
(PID.TID 0000.0001) // =======================================================
(PID.TID 0000.0001) 
(PID.TID 0000.0001) SOLVE_FOR_PRESSURE: putPmEinXvector =    F
 cg2d: Sum(rhs),rhsMax =   5.55111512312578E-16  1.08785860432881E-01
 cg2d: Sum(rhs),rhsMax =   1.60288449180257E-15  1.29135759183346E-01
 cg2d: Sum(rhs),rhsMax =   7.77156117237610E-16  1.22267545225503E-01
 cg2d: Sum(rhs),rhsMax =  -2.38697950294409E-15  1.18176406252163E-01
 cg2d: Sum(rhs),rhsMax =  -5.10702591327572E-15  1.16818511440935E-01
 cg2d: Sum(rhs),rhsMax =   6.21724893790088E-15  1.15894064285974E-01
 cg2d: Sum(rhs),rhsMax =  -8.88178419700125E-16  1.14890028290182E-01
 cg2d: Sum(rhs),rhsMax =   3.99680288865056E-15  1.13848174086443E-01
 cg2d: Sum(rhs),rhsMax =  -8.88178419700125E-16  1.12825239466408E-01
 cg2d: Sum(rhs),rhsMax =   5.32907051820075E-15  1.11838118987715E-01
(PID.TID 0000.0001) Did not write pickup because writePickupAtEnd = FALSE
(PID.TID 0000.0001)   early fc =  0.000000000000000D+00
 --> objf_test(bi,bj)        =  0.808065331297454D+06
 --> objf_test(bi,bj)        =  0.808124065294175D+06
 --> objf_test(bi,bj)        =  0.804391886068813D+06
 --> objf_test(bi,bj)        =  0.804390483523603D+06
(PID.TID 0000.0001)   local fc =  0.322497176618404D+07
(PID.TID 0000.0001)  global fc =  0.322497176618404D+07
(PID.TID 0000.0001) grdchk perturb(-)fc: fcpertminus =  3.22497176618404E+06
grad-res -------------------------------
 grad-res     0    1    4    8    1    1    1    1   3.22503044491E+06  3.22509114178E+06  3.22497176618E+06
 grad-res     0    1    1  183    0    1    1    1   5.96880260013E+01  5.96877986651E+01  3.80873937089E-06
(PID.TID 0000.0001)  ADM  ref_cost_function      =  3.22503044491076E+06
(PID.TID 0000.0001)  ADM  adjoint_gradient       =  5.96880260012726E+01
(PID.TID 0000.0001)  ADM  finite-diff_grad       =  5.96877986651380E+01
(PID.TID 0000.0001) ====== End of gradient-check number   1 (ierr=  0) =======
(PID.TID 0000.0001) ====== Starts gradient-check number   2 (=ichknum) =======
 ph-test icomp, ncvarcomp, ichknum          184       54000           2
 ph-grd _loc: bi, bj, icomptest, ichknum            1           1         183
           2
 ph-grd -->hit<--            5           8           1           1
(PID.TID 0000.0001) grdchk pos: i,j,k=    5    8    1 ; bi,bj=   1   1 ; iobc=  1 ; rec=   1
(PID.TID 0000.0001) Start initial hydrostatic pressure computation
(PID.TID 0000.0001) Pressure is predetermined for buoyancyRelation OCEANIC
(PID.TID 0000.0001) 
(PID.TID 0000.0001) // =======================================================
(PID.TID 0000.0001) // Model current state
(PID.TID 0000.0001) // =======================================================
(PID.TID 0000.0001) 
(PID.TID 0000.0001) SOLVE_FOR_PRESSURE: putPmEinXvector =    F
 cg2d: Sum(rhs),rhsMax =  -6.10622663543836E-16  1.08785860432881E-01
 cg2d: Sum(rhs),rhsMax =  -3.53883589099269E-16  1.29686509478085E-01
 cg2d: Sum(rhs),rhsMax =   9.43689570931383E-16  1.23888845612868E-01
 cg2d: Sum(rhs),rhsMax =  -2.05391259555654E-15  1.21247731115286E-01
 cg2d: Sum(rhs),rhsMax =   3.88578058618805E-15  1.21350726267363E-01
 cg2d: Sum(rhs),rhsMax =   3.10862446895044E-15  1.21775241625617E-01
 cg2d: Sum(rhs),rhsMax =  -7.32747196252603E-15  1.21988876122241E-01
 cg2d: Sum(rhs),rhsMax =  -1.33226762955019E-15  1.22014860404550E-01
 cg2d: Sum(rhs),rhsMax =   1.55431223447522E-14  1.21898115321176E-01
 cg2d: Sum(rhs),rhsMax =  -1.15463194561016E-14  1.21660909389561E-01
(PID.TID 0000.0001) Did not write pickup because writePickupAtEnd = FALSE
(PID.TID 0000.0001)   early fc =  0.000000000000000D+00
 --> objf_test(bi,bj)        =  0.808184706436739D+06
 --> objf_test(bi,bj)        =  0.808124065602346D+06
 --> objf_test(bi,bj)        =  0.804391886469853D+06
 --> objf_test(bi,bj)        =  0.804390483526752D+06
(PID.TID 0000.0001)   local fc =  0.322509114203569D+07
(PID.TID 0000.0001)  global fc =  0.322509114203569D+07
(PID.TID 0000.0001) grdchk perturb(+)fc: fcpertplus  =  3.22509114203569E+06
(PID.TID 0000.0001) Start initial hydrostatic pressure computation
(PID.TID 0000.0001) Pressure is predetermined for buoyancyRelation OCEANIC
(PID.TID 0000.0001) 
(PID.TID 0000.0001) // =======================================================
(PID.TID 0000.0001) // Model current state
(PID.TID 0000.0001) // =======================================================
(PID.TID 0000.0001) 
(PID.TID 0000.0001) SOLVE_FOR_PRESSURE: putPmEinXvector =    F
 cg2d: Sum(rhs),rhsMax =   5.55111512312578E-16  1.08785860432881E-01
 cg2d: Sum(rhs),rhsMax =  -5.55111512312578E-17  1.29329864628522E-01
 cg2d: Sum(rhs),rhsMax =   1.74860126378462E-15  1.22695172756393E-01
 cg2d: Sum(rhs),rhsMax =  -5.55111512312578E-17  1.18694788996026E-01
 cg2d: Sum(rhs),rhsMax =  -8.88178419700125E-16  1.17305622993627E-01
 cg2d: Sum(rhs),rhsMax =   3.55271367880050E-15  1.16330157289962E-01
 cg2d: Sum(rhs),rhsMax =   7.10542735760100E-15  1.15303785415598E-01
 cg2d: Sum(rhs),rhsMax =  -1.42108547152020E-14  1.14257364228883E-01
 cg2d: Sum(rhs),rhsMax =  -1.68753899743024E-14  1.13225171537581E-01
 cg2d: Sum(rhs),rhsMax =  -1.37667655053519E-14  1.12215884899422E-01
(PID.TID 0000.0001) Did not write pickup because writePickupAtEnd = FALSE
(PID.TID 0000.0001)   early fc =  0.000000000000000D+00
 --> objf_test(bi,bj)        =  0.808065331102045D+06
 --> objf_test(bi,bj)        =  0.808124065250928D+06
 --> objf_test(bi,bj)        =  0.804391886064589D+06
 --> objf_test(bi,bj)        =  0.804390483523336D+06
(PID.TID 0000.0001)   local fc =  0.322497176594090D+07
(PID.TID 0000.0001)  global fc =  0.322497176594090D+07
(PID.TID 0000.0001) grdchk perturb(-)fc: fcpertminus =  3.22497176594090E+06
grad-res -------------------------------
 grad-res     0    2    5    8    1    1    1    1   3.22503044491E+06  3.22509114204E+06  3.22497176594E+06
 grad-res     0    2    2  184    0    1    1    1   5.96882747702E+01  5.96880473963E+01  3.80935626965E-06
(PID.TID 0000.0001)  ADM  ref_cost_function      =  3.22503044491076E+06
(PID.TID 0000.0001)  ADM  adjoint_gradient       =  5.96882747701557E+01
(PID.TID 0000.0001)  ADM  finite-diff_grad       =  5.96880473962519E+01
(PID.TID 0000.0001) ====== End of gradient-check number   2 (ierr=  0) =======
(PID.TID 0000.0001) ====== Starts gradient-check number   3 (=ichknum) =======
 ph-test icomp, ncvarcomp, ichknum          185       54000           3
 ph-grd _loc: bi, bj, icomptest, ichknum            1           1         184
           3
 ph-grd -->hit<--            6           8           1           1
(PID.TID 0000.0001) grdchk pos: i,j,k=    6    8    1 ; bi,bj=   1   1 ; iobc=  1 ; rec=   1
(PID.TID 0000.0001) Start initial hydrostatic pressure computation
(PID.TID 0000.0001) Pressure is predetermined for buoyancyRelation OCEANIC
(PID.TID 0000.0001) 
(PID.TID 0000.0001) // =======================================================
(PID.TID 0000.0001) // Model current state
(PID.TID 0000.0001) // =======================================================
(PID.TID 0000.0001) 
(PID.TID 0000.0001) SOLVE_FOR_PRESSURE: putPmEinXvector =    F
 cg2d: Sum(rhs),rhsMax =  -6.10622663543836E-16  1.08785860432881E-01
 cg2d: Sum(rhs),rhsMax =   9.57567358739198E-16  1.29613077100008E-01
 cg2d: Sum(rhs),rhsMax =   2.08166817117217E-15  1.23673388222602E-01
 cg2d: Sum(rhs),rhsMax =  -3.88578058618805E-16  1.20891106589100E-01
 cg2d: Sum(rhs),rhsMax =   3.55271367880050E-15  1.20899990752113E-01
 cg2d: Sum(rhs),rhsMax =   3.10862446895044E-15  1.21283606460966E-01
 cg2d: Sum(rhs),rhsMax =   4.21884749357559E-15  1.21498574335219E-01
 cg2d: Sum(rhs),rhsMax =  -1.42108547152020E-14  1.21553224746513E-01
 cg2d: Sum(rhs),rhsMax =   1.37667655053519E-14  1.21477254653196E-01
 cg2d: Sum(rhs),rhsMax =  -5.32907051820075E-15  1.21281210783672E-01
(PID.TID 0000.0001) Did not write pickup because writePickupAtEnd = FALSE
(PID.TID 0000.0001)   early fc =  0.000000000000000D+00
 --> objf_test(bi,bj)        =  0.808184706630879D+06
 --> objf_test(bi,bj)        =  0.808124065666098D+06
 --> objf_test(bi,bj)        =  0.804391886473670D+06
 --> objf_test(bi,bj)        =  0.804390483527123D+06
(PID.TID 0000.0001)   local fc =  0.322509114229777D+07
(PID.TID 0000.0001)  global fc =  0.322509114229777D+07
(PID.TID 0000.0001) grdchk perturb(+)fc: fcpertplus  =  3.22509114229777E+06
(PID.TID 0000.0001) Start initial hydrostatic pressure computation
(PID.TID 0000.0001) Pressure is predetermined for buoyancyRelation OCEANIC
(PID.TID 0000.0001) 
(PID.TID 0000.0001) // =======================================================
(PID.TID 0000.0001) // Model current state
(PID.TID 0000.0001) // =======================================================
(PID.TID 0000.0001) 
(PID.TID 0000.0001) SOLVE_FOR_PRESSURE: putPmEinXvector =    F
 cg2d: Sum(rhs),rhsMax =   5.55111512312578E-16  1.08785860432881E-01
 cg2d: Sum(rhs),rhsMax =   9.50628464835290E-16  1.29420772860783E-01
 cg2d: Sum(rhs),rhsMax =   1.99840144432528E-15  1.22962126121926E-01
 cg2d: Sum(rhs),rhsMax =  -5.71764857681956E-15  1.19117574100740E-01
 cg2d: Sum(rhs),rhsMax =  -2.33146835171283E-15  1.17793639313177E-01
 cg2d: Sum(rhs),rhsMax =   6.21724893790088E-15  1.16806898760082E-01
 cg2d: Sum(rhs),rhsMax =   6.88338275267597E-15  1.15742601683045E-01
 cg2d: Sum(rhs),rhsMax =  -2.22044604925031E-15  1.14664394618291E-01
 cg2d: Sum(rhs),rhsMax =  -2.22044604925031E-15  1.13611123166909E-01
 cg2d: Sum(rhs),rhsMax =  -6.21724893790088E-15  1.12582959835697E-01
(PID.TID 0000.0001) Did not write pickup because writePickupAtEnd = FALSE
(PID.TID 0000.0001)   early fc =  0.000000000000000D+00
 --> objf_test(bi,bj)        =  0.808065330932695D+06
 --> objf_test(bi,bj)        =  0.808124065187168D+06
 --> objf_test(bi,bj)        =  0.804391886060771D+06
 --> objf_test(bi,bj)        =  0.804390483522965D+06
(PID.TID 0000.0001)   local fc =  0.322497176570360D+07
(PID.TID 0000.0001)  global fc =  0.322497176570360D+07
(PID.TID 0000.0001) grdchk perturb(-)fc: fcpertminus =  3.22497176570360E+06
grad-res -------------------------------
 grad-res     0    3    6    8    1    1    1    1   3.22503044491E+06  3.22509114230E+06  3.22497176570E+06
 grad-res     0    3    3  185    0    1    1    1   5.96885242941E+01  5.96882970845E+01  3.80658775556E-06
(PID.TID 0000.0001)  ADM  ref_cost_function      =  3.22503044491076E+06
(PID.TID 0000.0001)  ADM  adjoint_gradient       =  5.96885242941384E+01
(PID.TID 0000.0001)  ADM  finite-diff_grad       =  5.96882970845327E+01
(PID.TID 0000.0001) ====== End of gradient-check number   3 (ierr=  0) =======
(PID.TID 0000.0001) ====== Starts gradient-check number   4 (=ichknum) =======
 ph-test icomp, ncvarcomp, ichknum          186       54000           4
 ph-grd _loc: bi, bj, icomptest, ichknum            1           1         185
           4
 ph-grd -->hit<--            7           8           1           1
(PID.TID 0000.0001) grdchk pos: i,j,k=    7    8    1 ; bi,bj=   1   1 ; iobc=  1 ; rec=   1
(PID.TID 0000.0001) Start initial hydrostatic pressure computation
(PID.TID 0000.0001) Pressure is predetermined for buoyancyRelation OCEANIC
(PID.TID 0000.0001) 
(PID.TID 0000.0001) // =======================================================
(PID.TID 0000.0001) // Model current state
(PID.TID 0000.0001) // =======================================================
(PID.TID 0000.0001) 
(PID.TID 0000.0001) SOLVE_FOR_PRESSURE: putPmEinXvector =    F
 cg2d: Sum(rhs),rhsMax =  -6.10622663543836E-16  1.08785860432881E-01
 cg2d: Sum(rhs),rhsMax =  -3.12250225675825E-16  1.29572131002774E-01
 cg2d: Sum(rhs),rhsMax =  -8.32667268468867E-16  1.23529527979940E-01
 cg2d: Sum(rhs),rhsMax =  -1.99840144432528E-15  1.20617983961598E-01
 cg2d: Sum(rhs),rhsMax =   1.44328993201270E-15  1.20521006526617E-01
 cg2d: Sum(rhs),rhsMax =  -2.88657986402541E-15  1.20844089754034E-01
 cg2d: Sum(rhs),rhsMax =  -5.10702591327572E-15  1.21039052157314E-01
 cg2d: Sum(rhs),rhsMax =   6.66133814775094E-15  1.21101376068342E-01
 cg2d: Sum(rhs),rhsMax =  -6.66133814775094E-15  1.21049983940156E-01
 cg2d: Sum(rhs),rhsMax =   1.73194791841524E-14  1.20887476603872E-01
(PID.TID 0000.0001) Did not write pickup because writePickupAtEnd = FALSE
(PID.TID 0000.0001)   early fc =  0.000000000000000D+00
 --> objf_test(bi,bj)        =  0.808184706802327D+06
 --> objf_test(bi,bj)        =  0.808124065755924D+06
 --> objf_test(bi,bj)        =  0.804391886477030D+06
 --> objf_test(bi,bj)        =  0.804390483527608D+06
(PID.TID 0000.0001)   local fc =  0.322509114256289D+07
(PID.TID 0000.0001)  global fc =  0.322509114256289D+07
(PID.TID 0000.0001) grdchk perturb(+)fc: fcpertplus  =  3.22509114256289E+06
(PID.TID 0000.0001) Start initial hydrostatic pressure computation
(PID.TID 0000.0001) Pressure is predetermined for buoyancyRelation OCEANIC
(PID.TID 0000.0001) 
(PID.TID 0000.0001) // =======================================================
(PID.TID 0000.0001) // Model current state
(PID.TID 0000.0001) // =======================================================
(PID.TID 0000.0001) 
(PID.TID 0000.0001) SOLVE_FOR_PRESSURE: putPmEinXvector =    F
 cg2d: Sum(rhs),rhsMax =   5.55111512312578E-16  1.08785860432881E-01
 cg2d: Sum(rhs),rhsMax =   3.81639164714898E-16  1.29466004904521E-01
 cg2d: Sum(rhs),rhsMax =  -2.77555756156289E-16  1.23124016069172E-01
 cg2d: Sum(rhs),rhsMax =   1.16573417585641E-15  1.19426413168046E-01
 cg2d: Sum(rhs),rhsMax =   2.44249065417534E-15  1.18214495080084E-01
 cg2d: Sum(rhs),rhsMax =   1.04360964314765E-14  1.17273700397871E-01
 cg2d: Sum(rhs),rhsMax =   5.77315972805081E-15  1.16201659179445E-01
 cg2d: Sum(rhs),rhsMax =   2.13162820728030E-14  1.15091657319395E-01
 cg2d: Sum(rhs),rhsMax =   6.21724893790088E-15  1.14004511940758E-01
 cg2d: Sum(rhs),rhsMax =   2.66453525910038E-14  1.12947564672185E-01
(PID.TID 0000.0001) Did not write pickup because writePickupAtEnd = FALSE
(PID.TID 0000.0001)   early fc =  0.000000000000000D+00
 --> objf_test(bi,bj)        =  0.808065330790887D+06
 --> objf_test(bi,bj)        =  0.808124065097328D+06
 --> objf_test(bi,bj)        =  0.804391886057411D+06
 --> objf_test(bi,bj)        =  0.804390483522478D+06
(PID.TID 0000.0001)   local fc =  0.322497176546810D+07
(PID.TID 0000.0001)  global fc =  0.322497176546810D+07
(PID.TID 0000.0001) grdchk perturb(-)fc: fcpertminus =  3.22497176546810E+06
grad-res -------------------------------
 grad-res     0    4    7    8    1    1    1    1   3.22503044491E+06  3.22509114256E+06  3.22497176547E+06
 grad-res     0    4    4  186    0    1    1    1   5.96887743665E+01  5.96885473924E+01  3.80262741961E-06
(PID.TID 0000.0001)  ADM  ref_cost_function      =  3.22503044491076E+06
(PID.TID 0000.0001)  ADM  adjoint_gradient       =  5.96887743665458E+01
(PID.TID 0000.0001)  ADM  finite-diff_grad       =  5.96885473923758E+01
(PID.TID 0000.0001) ====== End of gradient-check number   4 (ierr=  0) =======
(PID.TID 0000.0001) ====== Starts gradient-check number   5 (=ichknum) =======
 ph-test icomp, ncvarcomp, ichknum          187       54000           5
 ph-grd _loc: bi, bj, icomptest, ichknum            1           1         186
           5
 ph-grd -->hit<--            8           8           1           1
(PID.TID 0000.0001) grdchk pos: i,j,k=    8    8    1 ; bi,bj=   1   1 ; iobc=  1 ; rec=   1
(PID.TID 0000.0001) Start initial hydrostatic pressure computation
(PID.TID 0000.0001) Pressure is predetermined for buoyancyRelation OCEANIC
(PID.TID 0000.0001) 
(PID.TID 0000.0001) // =======================================================
(PID.TID 0000.0001) // Model current state
(PID.TID 0000.0001) // =======================================================
(PID.TID 0000.0001) 
(PID.TID 0000.0001) SOLVE_FOR_PRESSURE: putPmEinXvector =    F
 cg2d: Sum(rhs),rhsMax =  -6.10622663543836E-16  1.08785860432881E-01
 cg2d: Sum(rhs),rhsMax =  -1.30451205393456E-15  1.29550082348659E-01
 cg2d: Sum(rhs),rhsMax =  -5.27355936696949E-16  1.23438515246572E-01
 cg2d: Sum(rhs),rhsMax =  -1.44328993201270E-15  1.20419405542272E-01
 cg2d: Sum(rhs),rhsMax =  -1.99840144432528E-15  1.20213087687890E-01
 cg2d: Sum(rhs),rhsMax =  -5.55111512312578E-15  1.20457354647560E-01
 cg2d: Sum(rhs),rhsMax =   1.70974345792274E-14  1.20613141761078E-01
 cg2d: Sum(rhs),rhsMax =  -2.22044604925031E-15  1.20667931768686E-01
 cg2d: Sum(rhs),rhsMax =  -9.32587340685131E-15  1.20628980603115E-01
 cg2d: Sum(rhs),rhsMax =   3.06421554796543E-14  1.20490512000711E-01
(PID.TID 0000.0001) Did not write pickup because writePickupAtEnd = FALSE
(PID.TID 0000.0001)   early fc =  0.000000000000000D+00
 --> objf_test(bi,bj)        =  0.808184706937457D+06
 --> objf_test(bi,bj)        =  0.808124065879018D+06
 --> objf_test(bi,bj)        =  0.804391886479893D+06
 --> objf_test(bi,bj)        =  0.804390483528230D+06
(PID.TID 0000.0001)   local fc =  0.322509114282460D+07
(PID.TID 0000.0001)  global fc =  0.322509114282460D+07
(PID.TID 0000.0001) grdchk perturb(+)fc: fcpertplus  =  3.22509114282460E+06
(PID.TID 0000.0001) Start initial hydrostatic pressure computation
(PID.TID 0000.0001) Pressure is predetermined for buoyancyRelation OCEANIC
(PID.TID 0000.0001) 
(PID.TID 0000.0001) // =======================================================
(PID.TID 0000.0001) // Model current state
(PID.TID 0000.0001) // =======================================================
(PID.TID 0000.0001) 
(PID.TID 0000.0001) SOLVE_FOR_PRESSURE: putPmEinXvector =    F
 cg2d: Sum(rhs),rhsMax =   5.55111512312578E-16  1.08785860432881E-01
 cg2d: Sum(rhs),rhsMax =   6.24500451351651E-16  1.29489135816737E-01
 cg2d: Sum(rhs),rhsMax =   2.44249065417534E-15  1.23220972463971E-01
 cg2d: Sum(rhs),rhsMax =   7.77156117237610E-16  1.19640750873478E-01
 cg2d: Sum(rhs),rhsMax =   2.77555756156289E-15  1.18548793113924E-01
 cg2d: Sum(rhs),rhsMax =  -4.44089209850063E-15  1.17690508975719E-01
 cg2d: Sum(rhs),rhsMax =   1.37667655053519E-14  1.16649822835847E-01
 cg2d: Sum(rhs),rhsMax =  -6.21724893790088E-15  1.15530978159409E-01
 cg2d: Sum(rhs),rhsMax =  -1.28785870856518E-14  1.14414526528461E-01
 cg2d: Sum(rhs),rhsMax =   9.76996261670138E-15  1.13323174003166E-01
(PID.TID 0000.0001) Did not write pickup because writePickupAtEnd = FALSE
(PID.TID 0000.0001)   early fc =  0.000000000000000D+00
 --> objf_test(bi,bj)        =  0.808065330679172D+06
 --> objf_test(bi,bj)        =  0.808124064974216D+06
 --> objf_test(bi,bj)        =  0.804391886054550D+06
 --> objf_test(bi,bj)        =  0.804390483521857D+06
(PID.TID 0000.0001)   local fc =  0.322497176522979D+07
(PID.TID 0000.0001)  global fc =  0.322497176522979D+07
(PID.TID 0000.0001) grdchk perturb(-)fc: fcpertminus =  3.22497176522979E+06
grad-res -------------------------------
 grad-res     0    5    8    8    1    1    1    1   3.22503044491E+06  3.22509114282E+06  3.22497176523E+06
 grad-res     0    5    5  187    0    1    1    1   5.96890242323E+01  5.96887974022E+01  3.80019753288E-06
(PID.TID 0000.0001)  ADM  ref_cost_function      =  3.22503044491076E+06
(PID.TID 0000.0001)  ADM  adjoint_gradient       =  5.96890242322783E+01
(PID.TID 0000.0001)  ADM  finite-diff_grad       =  5.96887974021956E+01
(PID.TID 0000.0001) ====== End of gradient-check number   5 (ierr=  0) =======
(PID.TID 0000.0001) 
(PID.TID 0000.0001) // =======================================================
(PID.TID 0000.0001) // Gradient check results  >>> START <<<
(PID.TID 0000.0001) // =======================================================
(PID.TID 0000.0001) 
(PID.TID 0000.0001)  EPS =   1.000000E+00
(PID.TID 0000.0001) 
(PID.TID 0000.0001) grdchk output h.p:  Id Itile Jtile LAYER   bi   bj   X(Id)           X(Id)+/-EPS
(PID.TID 0000.0001) grdchk output h.c:  Id  FC                   FC1                  FC2
(PID.TID 0000.0001) grdchk output h.g:  Id     FC1-FC2/(2*EPS)      ADJ GRAD(FC)         1-FDGRD/ADGRD
(PID.TID 0000.0001) 
(PID.TID 0000.0001) grdchk output (p):   1     4     8     1    1    1   0.000000000E+00 -1.000000000E+00
(PID.TID 0000.0001) grdchk output (c):   1  3.2250304449108E+06  3.2250911417814E+06  3.2249717661840E+06
(PID.TID 0000.0001) grdchk output (g):   1     5.9687798665138E+01  5.9688026001273E+01  3.8087393708919E-06
(PID.TID 0000.0001) 
(PID.TID 0000.0001) grdchk output (p):   2     5     8     1    1    1   0.000000000E+00 -1.000000000E+00
(PID.TID 0000.0001) grdchk output (c):   2  3.2250304449108E+06  3.2250911420357E+06  3.2249717659409E+06
(PID.TID 0000.0001) grdchk output (g):   2     5.9688047396252E+01  5.9688274770156E+01  3.8093562696462E-06
(PID.TID 0000.0001) 
(PID.TID 0000.0001) grdchk output (p):   3     6     8     1    1    1   0.000000000E+00 -1.000000000E+00
(PID.TID 0000.0001) grdchk output (c):   3  3.2250304449108E+06  3.2250911422978E+06  3.2249717657036E+06
(PID.TID 0000.0001) grdchk output (g):   3     5.9688297084533E+01  5.9688524294138E+01  3.8065877555615E-06
(PID.TID 0000.0001) 
(PID.TID 0000.0001) grdchk output (p):   4     7     8     1    1    1   0.000000000E+00 -1.000000000E+00
(PID.TID 0000.0001) grdchk output (c):   4  3.2250304449108E+06  3.2250911425629E+06  3.2249717654681E+06
(PID.TID 0000.0001) grdchk output (g):   4     5.9688547392376E+01  5.9688774366546E+01  3.8026274196135E-06
(PID.TID 0000.0001) 
(PID.TID 0000.0001) grdchk output (p):   5     8     8     1    1    1   0.000000000E+00 -1.000000000E+00
(PID.TID 0000.0001) grdchk output (c):   5  3.2250304449108E+06  3.2250911428246E+06  3.2249717652298E+06
(PID.TID 0000.0001) grdchk output (g):   5     5.9688797402196E+01  5.9689024232278E+01  3.8001975328772E-06
(PID.TID 0000.0001) 
(PID.TID 0000.0001) grdchk  summary  :  RMS of    5 ratios =  3.8055033229928E-06
(PID.TID 0000.0001) 
(PID.TID 0000.0001) // =======================================================
(PID.TID 0000.0001) // Gradient check results  >>> END <<<
(PID.TID 0000.0001) // =======================================================
(PID.TID 0000.0001) 
(PID.TID 0000.0001)   Seconds in section "ALL                    [THE_MODEL_MAIN]":
(PID.TID 0000.0001)           User time:   3.16883988864720
(PID.TID 0000.0001)         System time:  0.000000000000000E+000
(PID.TID 0000.0001)     Wall clock time:   5.80891108512878
(PID.TID 0000.0001)          No. starts:           1
(PID.TID 0000.0001)           No. stops:           1
(PID.TID 0000.0001)   Seconds in section "INITIALISE_FIXED       [THE_MODEL_MAIN]":
(PID.TID 0000.0001)           User time:  4.484400060027838E-002
(PID.TID 0000.0001)         System time:  0.000000000000000E+000
(PID.TID 0000.0001)     Wall clock time:  0.733244895935059
(PID.TID 0000.0001)          No. starts:           1
(PID.TID 0000.0001)           No. stops:           1
(PID.TID 0000.0001)   Seconds in section "FORWARD_STEP        [MAIN_DO_LOOP]":
(PID.TID 0000.0001)           User time:   1.77311437577009
(PID.TID 0000.0001)         System time:  0.000000000000000E+000
(PID.TID 0000.0001)     Wall clock time:   1.99253773689270
(PID.TID 0000.0001)          No. starts:         120
(PID.TID 0000.0001)           No. stops:         120
(PID.TID 0000.0001)   Seconds in section "DO_STATEVARS_DIAGS  [FORWARD_STEP]":
(PID.TID 0000.0001)           User time:  8.713006973266602E-003
(PID.TID 0000.0001)         System time:  0.000000000000000E+000
(PID.TID 0000.0001)     Wall clock time:  9.496450424194336E-003
(PID.TID 0000.0001)          No. starts:          20
(PID.TID 0000.0001)           No. stops:          20
(PID.TID 0000.0001)   Seconds in section "LOAD_FIELDS_DRIVER  [FORWARD_STEP]":
(PID.TID 0000.0001)           User time:  2.024769783020020E-003
(PID.TID 0000.0001)         System time:  0.000000000000000E+000
(PID.TID 0000.0001)     Wall clock time:  2.230644226074219E-003
(PID.TID 0000.0001)          No. starts:         130
(PID.TID 0000.0001)           No. stops:         130
(PID.TID 0000.0001)   Seconds in section "EXTERNAL_FLDS_LOAD [LOAD_FLDS_DRIVER]":
(PID.TID 0000.0001)           User time:  6.384700536727905E-004
(PID.TID 0000.0001)         System time:  0.000000000000000E+000
(PID.TID 0000.0001)     Wall clock time:  7.030963897705078E-004
(PID.TID 0000.0001)          No. starts:         140
(PID.TID 0000.0001)           No. stops:         140
(PID.TID 0000.0001)   Seconds in section "CTRL_MAP_FORCING  [FORWARD_STEP]":
(PID.TID 0000.0001)           User time:  7.969996333122253E-002
(PID.TID 0000.0001)         System time:  0.000000000000000E+000
(PID.TID 0000.0001)     Wall clock time:  8.341836929321289E-002
(PID.TID 0000.0001)          No. starts:         130
(PID.TID 0000.0001)           No. stops:         130
(PID.TID 0000.0001)   Seconds in section "DO_ATMOSPHERIC_PHYS [FORWARD_STEP]":
(PID.TID 0000.0001)           User time:  5.438573658466339E-003
(PID.TID 0000.0001)         System time:  0.000000000000000E+000
(PID.TID 0000.0001)     Wall clock time:  5.851030349731445E-003
(PID.TID 0000.0001)          No. starts:         130
(PID.TID 0000.0001)           No. stops:         130
(PID.TID 0000.0001)   Seconds in section "DO_OCEANIC_PHYS     [FORWARD_STEP]":
(PID.TID 0000.0001)           User time:  0.117423653602600
(PID.TID 0000.0001)         System time:  0.000000000000000E+000
(PID.TID 0000.0001)     Wall clock time:  0.117804527282715
(PID.TID 0000.0001)          No. starts:         130
(PID.TID 0000.0001)           No. stops:         130
(PID.TID 0000.0001)   Seconds in section "THERMODYNAMICS      [FORWARD_STEP]":
(PID.TID 0000.0001)           User time:  0.391849823296070
(PID.TID 0000.0001)         System time:  0.000000000000000E+000
(PID.TID 0000.0001)     Wall clock time:  0.395391941070557
(PID.TID 0000.0001)          No. starts:         130
(PID.TID 0000.0001)           No. stops:         130
(PID.TID 0000.0001)   Seconds in section "DYNAMICS            [FORWARD_STEP]":
(PID.TID 0000.0001)           User time:  0.879400126636028
(PID.TID 0000.0001)         System time:  0.000000000000000E+000
(PID.TID 0000.0001)     Wall clock time:  0.881564378738403
(PID.TID 0000.0001)          No. starts:         130
(PID.TID 0000.0001)           No. stops:         130
(PID.TID 0000.0001)   Seconds in section "SOLVE_FOR_PRESSURE  [FORWARD_STEP]":
(PID.TID 0000.0001)           User time:  0.191191270947456
(PID.TID 0000.0001)         System time:  0.000000000000000E+000
(PID.TID 0000.0001)     Wall clock time:  0.193488597869873
(PID.TID 0000.0001)          No. starts:         130
(PID.TID 0000.0001)           No. stops:         130
(PID.TID 0000.0001)   Seconds in section "MOM_CORRECTION_STEP [FORWARD_STEP]":
(PID.TID 0000.0001)           User time:  3.151005506515503E-002
(PID.TID 0000.0001)         System time:  0.000000000000000E+000
(PID.TID 0000.0001)     Wall clock time:  3.204512596130371E-002
(PID.TID 0000.0001)          No. starts:         130
(PID.TID 0000.0001)           No. stops:         130
(PID.TID 0000.0001)   Seconds in section "INTEGR_CONTINUITY   [FORWARD_STEP]":
(PID.TID 0000.0001)           User time:  5.914953351020813E-002
(PID.TID 0000.0001)         System time:  0.000000000000000E+000
(PID.TID 0000.0001)     Wall clock time:  5.985045433044434E-002
(PID.TID 0000.0001)          No. starts:         130
(PID.TID 0000.0001)           No. stops:         130
(PID.TID 0000.0001)   Seconds in section "TRC_CORRECTION_STEP [FORWARD_STEP]":
(PID.TID 0000.0001)           User time:  6.717741489410400E-004
(PID.TID 0000.0001)         System time:  0.000000000000000E+000
(PID.TID 0000.0001)     Wall clock time:  6.885528564453125E-004
(PID.TID 0000.0001)          No. starts:         130
(PID.TID 0000.0001)           No. stops:         130
(PID.TID 0000.0001)   Seconds in section "BLOCKING_EXCHANGES  [FORWARD_STEP]":
(PID.TID 0000.0001)           User time:  3.358193486928940E-002
(PID.TID 0000.0001)         System time:  0.000000000000000E+000
(PID.TID 0000.0001)     Wall clock time:  3.398895263671875E-002
(PID.TID 0000.0001)          No. starts:         130
(PID.TID 0000.0001)           No. stops:         130
(PID.TID 0000.0001)   Seconds in section "MONITOR             [FORWARD_STEP]":
(PID.TID 0000.0001)           User time:  4.412398487329483E-002
(PID.TID 0000.0001)         System time:  0.000000000000000E+000
(PID.TID 0000.0001)     Wall clock time:  4.413080215454102E-002
(PID.TID 0000.0001)          No. starts:          10
(PID.TID 0000.0001)           No. stops:          10
(PID.TID 0000.0001)   Seconds in section "COST_TILE           [FORWARD_STEP]":
(PID.TID 0000.0001)           User time:  5.480366200208664E-002
(PID.TID 0000.0001)         System time:  0.000000000000000E+000
(PID.TID 0000.0001)     Wall clock time:  5.490279197692871E-002
(PID.TID 0000.0001)          No. starts:         130
(PID.TID 0000.0001)           No. stops:         130
(PID.TID 0000.0001)   Seconds in section "DO_THE_MODEL_IO     [FORWARD_STEP]":
(PID.TID 0000.0001)           User time:  2.546221017837524E-003
(PID.TID 0000.0001)         System time:  0.000000000000000E+000
(PID.TID 0000.0001)     Wall clock time:  0.152157783508301
(PID.TID 0000.0001)          No. starts:         130
(PID.TID 0000.0001)           No. stops:         130
(PID.TID 0000.0001)   Seconds in section "DO_WRITE_PICKUP     [FORWARD_STEP]":
(PID.TID 0000.0001)           User time:  2.724826335906982E-003
(PID.TID 0000.0001)         System time:  0.000000000000000E+000
(PID.TID 0000.0001)     Wall clock time:  5.869340896606445E-002
(PID.TID 0000.0001)          No. starts:         130
(PID.TID 0000.0001)           No. stops:         130
(PID.TID 0000.0001)   Seconds in section "CTRL_PACK           [THE_MODEL_MAIN]":
(PID.TID 0000.0001)           User time:  7.488965988159180E-003
(PID.TID 0000.0001)         System time:  0.000000000000000E+000
(PID.TID 0000.0001)     Wall clock time:  4.100704193115234E-002
(PID.TID 0000.0001)          No. starts:           1
(PID.TID 0000.0001)           No. stops:           1
(PID.TID 0000.0001)   Seconds in section "CTRL_PACK     [THE_MODEL_MAIN]":
(PID.TID 0000.0001)           User time:  8.641004562377930E-003
(PID.TID 0000.0001)         System time:  0.000000000000000E+000
(PID.TID 0000.0001)     Wall clock time:  3.573107719421387E-002
(PID.TID 0000.0001)          No. starts:           1
(PID.TID 0000.0001)           No. stops:           1
(PID.TID 0000.0001)   Seconds in section "GRDCHK_MAIN         [THE_MODEL_MAIN]":
(PID.TID 0000.0001)           User time:   1.65509712696075
(PID.TID 0000.0001)         System time:  0.000000000000000E+000
(PID.TID 0000.0001)     Wall clock time:   2.26285886764526
(PID.TID 0000.0001)          No. starts:           1
(PID.TID 0000.0001)           No. stops:           1
(PID.TID 0000.0001)   Seconds in section "INITIALISE_VARIA    [THE_MAIN_LOOP]":
(PID.TID 0000.0001)           User time:  9.217810630798340E-002
(PID.TID 0000.0001)         System time:  0.000000000000000E+000
(PID.TID 0000.0001)     Wall clock time:  0.375612735748291
(PID.TID 0000.0001)          No. starts:          11
(PID.TID 0000.0001)           No. stops:          11
(PID.TID 0000.0001)   Seconds in section "MAIN LOOP           [THE_MAIN_LOOP]":
(PID.TID 0000.0001)           User time:   1.54389202594757
(PID.TID 0000.0001)         System time:  0.000000000000000E+000
(PID.TID 0000.0001)     Wall clock time:   1.55277323722839
(PID.TID 0000.0001)          No. starts:          11
(PID.TID 0000.0001)           No. stops:          11
(PID.TID 0000.0001)   Seconds in section "MAIN_DO_LOOP        [THE_MAIN_LOOP]":
(PID.TID 0000.0001)           User time:   1.54288828372955
(PID.TID 0000.0001)         System time:  0.000000000000000E+000
(PID.TID 0000.0001)     Wall clock time:   1.55168652534485
(PID.TID 0000.0001)          No. starts:         110
(PID.TID 0000.0001)           No. stops:         110
(PID.TID 0000.0001)   Seconds in section "COST_FINAL         [ADJOINT SPIN-DOWN]":
(PID.TID 0000.0001)           User time:  3.401041030883789E-004
(PID.TID 0000.0001)         System time:  0.000000000000000E+000
(PID.TID 0000.0001)     Wall clock time:  3.921985626220703E-004
(PID.TID 0000.0001)          No. starts:          11
(PID.TID 0000.0001)           No. stops:          11
(PID.TID 0000.0001) // ======================================================
(PID.TID 0000.0001) // Tile <-> Tile communication statistics
(PID.TID 0000.0001) // ======================================================
(PID.TID 0000.0001) // o Tile number: 000001
(PID.TID 0000.0001) //         No. X exchanges =              0
(PID.TID 0000.0001) //            Max. X spins =              0
(PID.TID 0000.0001) //            Min. X spins =     1000000000
(PID.TID 0000.0001) //          Total. X spins =              0
(PID.TID 0000.0001) //            Avg. X spins =       0.00E+00
(PID.TID 0000.0001) //         No. Y exchanges =              0
(PID.TID 0000.0001) //            Max. Y spins =              0
(PID.TID 0000.0001) //            Min. Y spins =     1000000000
(PID.TID 0000.0001) //          Total. Y spins =              0
(PID.TID 0000.0001) //            Avg. Y spins =       0.00E+00
(PID.TID 0000.0001) // o Tile number: 000002
(PID.TID 0000.0001) //         No. X exchanges =              0
(PID.TID 0000.0001) //            Max. X spins =              0
(PID.TID 0000.0001) //            Min. X spins =     1000000000
(PID.TID 0000.0001) //          Total. X spins =              0
(PID.TID 0000.0001) //            Avg. X spins =       0.00E+00
(PID.TID 0000.0001) //         No. Y exchanges =              0
(PID.TID 0000.0001) //            Max. Y spins =              0
(PID.TID 0000.0001) //            Min. Y spins =     1000000000
(PID.TID 0000.0001) //          Total. Y spins =              0
(PID.TID 0000.0001) //            Avg. Y spins =       0.00E+00
(PID.TID 0000.0001) // o Tile number: 000003
(PID.TID 0000.0001) //         No. X exchanges =              0
(PID.TID 0000.0001) //            Max. X spins =              0
(PID.TID 0000.0001) //            Min. X spins =     1000000000
(PID.TID 0000.0001) //          Total. X spins =              0
(PID.TID 0000.0001) //            Avg. X spins =       0.00E+00
(PID.TID 0000.0001) //         No. Y exchanges =              0
(PID.TID 0000.0001) //            Max. Y spins =              0
(PID.TID 0000.0001) //            Min. Y spins =     1000000000
(PID.TID 0000.0001) //          Total. Y spins =              0
(PID.TID 0000.0001) //            Avg. Y spins =       0.00E+00
(PID.TID 0000.0001) // o Tile number: 000004
(PID.TID 0000.0001) //         No. X exchanges =              0
(PID.TID 0000.0001) //            Max. X spins =              0
(PID.TID 0000.0001) //            Min. X spins =     1000000000
(PID.TID 0000.0001) //          Total. X spins =              0
(PID.TID 0000.0001) //            Avg. X spins =       0.00E+00
(PID.TID 0000.0001) //         No. Y exchanges =              0
(PID.TID 0000.0001) //            Max. Y spins =              0
(PID.TID 0000.0001) //            Min. Y spins =     1000000000
(PID.TID 0000.0001) //          Total. Y spins =              0
(PID.TID 0000.0001) //            Avg. Y spins =       0.00E+00
(PID.TID 0000.0001) // o Thread number: 000001
(PID.TID 0000.0001) //            No. barriers =          38022
(PID.TID 0000.0001) //      Max. barrier spins =              1
(PID.TID 0000.0001) //      Min. barrier spins =              1
(PID.TID 0000.0001) //     Total barrier spins =          38022
(PID.TID 0000.0001) //      Avg. barrier spins =       1.00E+00
PROGRAM MAIN: Execution ended Normally
NORMAL END
