(PID.TID 0000.0001) 
(PID.TID 0000.0001) // ======================================================
(PID.TID 0000.0001) //                      MITgcm UV
(PID.TID 0000.0001) //                      =========
(PID.TID 0000.0001) // ======================================================
(PID.TID 0000.0001) // execution environment starting up...
(PID.TID 0000.0001) 
(PID.TID 0000.0001) // MITgcmUV version:  checkpoint69i
(PID.TID 0000.0001) // Build user:        averdy
(PID.TID 0000.0001) // Build host:        lani
(PID.TID 0000.0001) // Build date:        Thu Jan  8 02:14:17 PM PST 2026
(PID.TID 0000.0001) 
(PID.TID 0000.0001) // =======================================================
(PID.TID 0000.0001) // Execution Environment parameter file "eedata"
(PID.TID 0000.0001) // =======================================================
(PID.TID 0000.0001) ># Example "eedata" file
(PID.TID 0000.0001) ># Lines beginning "#" are comments
(PID.TID 0000.0001) ># nTx - No. threads per process in X
(PID.TID 0000.0001) ># nTy - No. threads per process in Y
(PID.TID 0000.0001) > &EEPARMS
(PID.TID 0000.0001) > nTx=1,
(PID.TID 0000.0001) > nTy=1,
(PID.TID 0000.0001) > /
(PID.TID 0000.0001) ># Note: Some systems use & as the
(PID.TID 0000.0001) ># namelist terminator. Other systems
(PID.TID 0000.0001) ># use a / character (as shown here).
(PID.TID 0000.0001) 
(PID.TID 0000.0001) // =======================================================
(PID.TID 0000.0001) // Computational Grid Specification ( see files "SIZE.h" )
(PID.TID 0000.0001) //                                  ( and "eedata"       )
(PID.TID 0000.0001) // =======================================================
(PID.TID 0000.0001)      nPx =    1 ; /* No. processes in X */
(PID.TID 0000.0001)      nPy =    1 ; /* No. processes in Y */
(PID.TID 0000.0001)      nSx =    2 ; /* No. tiles in X per process */
(PID.TID 0000.0001)      nSy =    2 ; /* No. tiles in Y per process */
(PID.TID 0000.0001)      sNx =   64 ; /* Tile size in X */
(PID.TID 0000.0001)      sNy =   32 ; /* Tile size in Y */
(PID.TID 0000.0001)      OLx =    4 ; /* Tile overlap distance in X */
(PID.TID 0000.0001)      OLy =    4 ; /* Tile overlap distance in Y */
(PID.TID 0000.0001)      nTx =    1 ; /* No. threads in X per process */
(PID.TID 0000.0001)      nTy =    1 ; /* No. threads in Y per process */
(PID.TID 0000.0001)       Nr =   15 ; /* No. levels in the vertical   */
(PID.TID 0000.0001)       Nx =  128 ; /* Total domain size in X ( = nPx*nSx*sNx ) */
(PID.TID 0000.0001)       Ny =   64 ; /* Total domain size in Y ( = nPy*nSy*sNy ) */
(PID.TID 0000.0001)   nTiles =    4 ; /* Total no. tiles per process ( = nSx*nSy ) */
(PID.TID 0000.0001)   nProcs =    1 ; /* Total no. processes ( = nPx*nPy ) */
(PID.TID 0000.0001) nThreads =    1 ; /* Total no. threads per process ( = nTx*nTy ) */
(PID.TID 0000.0001) usingMPI =    F ; /* Flag used to control whether MPI is in use */
(PID.TID 0000.0001)                   /*  note: To execute a program with MPI calls */
(PID.TID 0000.0001)                   /*  it must be launched appropriately e.g     */
(PID.TID 0000.0001)                   /*  "mpirun -np 64 ......"                    */
(PID.TID 0000.0001) useCoupler=   F ; /* Flag used to control communications with   */
(PID.TID 0000.0001)                   /*  other model components, through a coupler */
(PID.TID 0000.0001) useNest2W_parent =    F ;/* Control 2-W Nesting comm */
(PID.TID 0000.0001) useNest2W_child  =    F ;/* Control 2-W Nesting comm */
(PID.TID 0000.0001) debugMode =    F ; /* print debug msg. (sequence of S/R calls)  */
(PID.TID 0000.0001) printMapIncludesZeros=    F ; /* print zeros in Std.Output maps */
(PID.TID 0000.0001) maxLengthPrt1D=   65 /* maxLength of 1D array printed to StdOut */
(PID.TID 0000.0001) 
(PID.TID 0000.0001) // ======================================================
(PID.TID 0000.0001) // Mapping of tiles to threads
(PID.TID 0000.0001) // ======================================================
(PID.TID 0000.0001) // -o- Thread   1, tiles (   1:   2,   1:   2)
(PID.TID 0000.0001) 
(PID.TID 0000.0001) W2_READPARMS: file data.exch2 not found
(PID.TID 0000.0001) => use W2_EXCH2 default: Single sub-domain (nFacets=1)
(PID.TID 0000.0001) W2_useE2ioLayOut=    T ;/* T: use Exch2 glob IO map; F: use model default */
(PID.TID 0000.0001) W2_mapIO        =  -1 ; /* select option for Exch2 global-IO map */
(PID.TID 0000.0001) W2_printMsg     =  -1 ; /* select option for printing information */
(PID.TID 0000.0001) ===== Start setting W2 TOPOLOGY:
(PID.TID 0000.0001)  write to log-file: w2_tile_topology.0000.log
(PID.TID 0000.0001) =====       setting W2 TOPOLOGY: Done
(PID.TID 0000.0001) 
(PID.TID 0000.0001)  INI_PARMS: opening model parameter file "data"
(PID.TID 0000.0001)  OPEN_COPY_DATA_FILE: opening file data
(PID.TID 0000.0001) // =======================================================
(PID.TID 0000.0001) // Parameter file "data"
(PID.TID 0000.0001) // =======================================================
(PID.TID 0000.0001) ># ====================
(PID.TID 0000.0001) ># | Model parameters |
(PID.TID 0000.0001) ># ====================
(PID.TID 0000.0001) >#
(PID.TID 0000.0001) ># Continuous equation parameters
(PID.TID 0000.0001) > &PARM01
(PID.TID 0000.0001) > tRef=15*20.,
(PID.TID 0000.0001) > sRef=15*35.,
(PID.TID 0000.0001) > viscA4=0.,
(PID.TID 0000.0001) > viscAh=2.E5,
(PID.TID 0000.0001) > diffKhT=0.E3,
(PID.TID 0000.0001) > diffKhS=0.E3,
(PID.TID 0000.0001) > viscAz=1.E-3,
(PID.TID 0000.0001) >#diffKzT=3.E-5,
(PID.TID 0000.0001) >#diffKzS=3.E-5,
(PID.TID 0000.0001) > diffKrBL79surf= 3.E-5,
(PID.TID 0000.0001) > diffKrBL79deep= 13.E-5,
(PID.TID 0000.0001) > diffKrBL79Ho  = -2000.,
(PID.TID 0000.0001) > diffKrBL79scl = 150.,
(PID.TID 0000.0001) > gravity=9.81,
(PID.TID 0000.0001) > rhoConst=1035.,
(PID.TID 0000.0001) > rhoConstFresh=1000.,
(PID.TID 0000.0001) > implicitFreeSurface=.TRUE.,
(PID.TID 0000.0001) > eosType='JMD95Z',
(PID.TID 0000.0001) > implicitDiffusion=.TRUE.,
(PID.TID 0000.0001) > implicitViscosity=.TRUE.,
(PID.TID 0000.0001) > ivdc_kappa=100.,
(PID.TID 0000.0001) > tempAdvScheme       = 2,
(PID.TID 0000.0001) > saltAdvScheme       = 2,
(PID.TID 0000.0001) > allowFreezing=.TRUE.,
(PID.TID 0000.0001) ># turn on looped cells
(PID.TID 0000.0001) > hFacMin=.1,
(PID.TID 0000.0001) > hFacMindz=50.,
(PID.TID 0000.0001) > useCDscheme=.TRUE.,
(PID.TID 0000.0001) > /
(PID.TID 0000.0001) >
(PID.TID 0000.0001) ># Elliptic solver parameters
(PID.TID 0000.0001) > &PARM02
(PID.TID 0000.0001) > cg2dMaxIters=1000,
(PID.TID 0000.0001) > cg2dTargetResidual=1.E-13,
(PID.TID 0000.0001) > /
(PID.TID 0000.0001) >
(PID.TID 0000.0001) ># Time stepping parameters
(PID.TID 0000.0001) > &PARM03
(PID.TID 0000.0001) > nIter0=0,
(PID.TID 0000.0001) > nTimeSteps = 4,
(PID.TID 0000.0001) > deltaTmom  = 900.,
(PID.TID 0000.0001) > tauCD =     321428.,
(PID.TID 0000.0001) ># deltaTtracer= 43200.,
(PID.TID 0000.0001) ># deltaTClock = 43200.,
(PID.TID 0000.0001) > abEps = 0.1,
(PID.TID 0000.0001) > pChkptFreq = 216000.,
(PID.TID 0000.0001) > chkptFreq  = 216000.,
(PID.TID 0000.0001) > dumpFreq   = 216000.,
(PID.TID 0000.0001) ># taveFreq   = 216000.,
(PID.TID 0000.0001) > monitorFreq= 86400.,
(PID.TID 0000.0001) > monitorFreq= 1.,
(PID.TID 0000.0001) > adjMonitorFreq= 1.,
(PID.TID 0000.0001) > /
(PID.TID 0000.0001) >
(PID.TID 0000.0001) ># Gridding parameters
(PID.TID 0000.0001) > &PARM04
(PID.TID 0000.0001) > usingSphericalPolarGrid=.TRUE.,
(PID.TID 0000.0001) > delZ=  50., 70.,  100., 140., 190.,
(PID.TID 0000.0001) >       240., 290., 340., 390., 440.,
(PID.TID 0000.0001) >       490., 540., 590., 640., 690.,
(PID.TID 0000.0001) > ygOrigin=-90.,
(PID.TID 0000.0001) > delX=128*2.8125,
(PID.TID 0000.0001) > delY=64*2.8125,
(PID.TID 0000.0001) > /
(PID.TID 0000.0001) >
(PID.TID 0000.0001) ># Input datasets
(PID.TID 0000.0001) > &PARM05
(PID.TID 0000.0001) > bathyFile=      'bathy.bin',
(PID.TID 0000.0001) > hydrogThetaFile='lev_clim_temp.bin',
(PID.TID 0000.0001) > hydrogSaltFile= 'lev_clim_salt.bin',
(PID.TID 0000.0001) > the_run_name=   'Tutorial Biogeo',
(PID.TID 0000.0001) > /
(PID.TID 0000.0001) 
(PID.TID 0000.0001)  INI_PARMS ; starts to read PARM01
(PID.TID 0000.0001)  INI_PARMS ; read PARM01 : OK
(PID.TID 0000.0001)  INI_PARMS ; starts to read PARM02
(PID.TID 0000.0001)  INI_PARMS ; read PARM02 : OK
(PID.TID 0000.0001)  INI_PARMS ; starts to read PARM03
(PID.TID 0000.0001)  INI_PARMS ; read PARM03 : OK
(PID.TID 0000.0001)  INI_PARMS ; starts to read PARM04
(PID.TID 0000.0001)  INI_PARMS ; read PARM04 : OK
(PID.TID 0000.0001)  INI_PARMS ; starts to read PARM05
(PID.TID 0000.0001)  INI_PARMS ; read PARM05 : OK
(PID.TID 0000.0001)  INI_PARMS: finished reading file "data"
(PID.TID 0000.0001)  PACKAGES_BOOT: opening data.pkg
(PID.TID 0000.0001)  OPEN_COPY_DATA_FILE: opening file data.pkg
(PID.TID 0000.0001) // =======================================================
(PID.TID 0000.0001) // Parameter file "data.pkg"
(PID.TID 0000.0001) // =======================================================
(PID.TID 0000.0001) ># Packages
(PID.TID 0000.0001) > &PACKAGES
(PID.TID 0000.0001) > useCAL         = .TRUE.,
(PID.TID 0000.0001) > useEXF         = .TRUE.,
(PID.TID 0000.0001) > useGMRedi      = .TRUE.,
(PID.TID 0000.0001) > usePTRACERS    = .TRUE.,
(PID.TID 0000.0001) > useGCHEM       = .TRUE.,
(PID.TID 0000.0001) > useECCO        = .TRUE.,
(PID.TID 0000.0001) > useGrdchk      = .TRUE.,
(PID.TID 0000.0001) > usePROFILES    = .TRUE.,
(PID.TID 0000.0001) > useDIAGNOSTICS = .TRUE.,
(PID.TID 0000.0001) > /
(PID.TID 0000.0001) 
(PID.TID 0000.0001)  PACKAGES_BOOT: finished reading data.pkg
(PID.TID 0000.0001)  PACKAGES_BOOT: On/Off package Summary
 --------  pkgs with a standard "usePKG" On/Off switch in "data.pkg":  --------
 pkg/gmredi               compiled   and   used ( useGMRedi                = T )
 pkg/cal                  compiled   and   used ( useCAL                   = T )
 pkg/exf                  compiled   and   used ( useEXF                   = T )
 pkg/autodiff             compiled   and   used ( useAUTODIFF              = T )
 pkg/grdchk               compiled   and   used ( useGrdchk                = T )
 pkg/profiles             compiled   and   used ( usePROFILES              = T )
 pkg/obsfit               compiled but not used ( useOBSFIT                = F )
 pkg/ecco                 compiled   and   used ( useECCO                  = T )
 pkg/ctrl                 compiled   and   used ( useCTRL                  = T )
 pkg/ptracers             compiled   and   used ( usePTRACERS              = T )
 pkg/gchem                compiled   and   used ( useGCHEM                 = T )
 pkg/diagnostics          compiled   and   used ( useDiagnostics           = T )
 -------- pkgs without standard "usePKG" On/Off switch in "data.pkg":  --------
 pkg/generic_advdiff      compiled   and   used ( useGAD                   = T )
 pkg/mom_common           compiled   and   used ( momStepping              = T )
 pkg/mom_vecinv           compiled but not used ( +vectorInvariantMomentum = F )
 pkg/mom_fluxform         compiled   and   used ( & not vectorInvariantMom = T )
 pkg/cd_code              compiled   and   used ( useCDscheme              = T )
 pkg/monitor              compiled   and   used ( monitorFreq > 0.         = T )
 pkg/debug                compiled but not used ( debugMode                = F )
 pkg/exch2                compiled   and   used
 pkg/rw                   compiled   and   used
 pkg/mdsio                compiled   and   used
 pkg/autodiff             compiled   and   used
 pkg/cost                 compiled   and   used
(PID.TID 0000.0001)  PACKAGES_BOOT: End of package Summary
(PID.TID 0000.0001) 
(PID.TID 0000.0001) CAL_READPARMS: opening data.cal
(PID.TID 0000.0001)  OPEN_COPY_DATA_FILE: opening file data.cal
(PID.TID 0000.0001) // =======================================================
(PID.TID 0000.0001) // Parameter file "data.cal"
(PID.TID 0000.0001) // =======================================================
(PID.TID 0000.0001) ># *******************
(PID.TID 0000.0001) ># Calendar Parameters
(PID.TID 0000.0001) ># *******************
(PID.TID 0000.0001) > &CAL_NML
(PID.TID 0000.0001) > TheCalendar='gregorian',
(PID.TID 0000.0001) ># TheCalendar='model',
(PID.TID 0000.0001) > startDate_1=20070101,
(PID.TID 0000.0001) > startDate_2= 021130,
(PID.TID 0000.0001) > /
(PID.TID 0000.0001) 
(PID.TID 0000.0001) CAL_READPARMS: finished reading data.cal
(PID.TID 0000.0001) EXF_READPARMS: opening data.exf
(PID.TID 0000.0001)  OPEN_COPY_DATA_FILE: opening file data.exf
(PID.TID 0000.0001) // =======================================================
(PID.TID 0000.0001) // Parameter file "data.exf"
(PID.TID 0000.0001) // =======================================================
(PID.TID 0000.0001) ># *********************
(PID.TID 0000.0001) ># External Forcing Data
(PID.TID 0000.0001) ># *********************
(PID.TID 0000.0001) >#
(PID.TID 0000.0001) > &EXF_NML_01
(PID.TID 0000.0001) >#TO COMBINE WITH ALLOW_ZENITH_ANGLE:
(PID.TID 0000.0001) ># useExfZenIncoming = .TRUE.,
(PID.TID 0000.0001) ># select_ZenAlbedo  = 1,
(PID.TID 0000.0001) >#
(PID.TID 0000.0001) > exf_iprec         = 32,
(PID.TID 0000.0001) > exf_yftype        = 'RL',
(PID.TID 0000.0001) > useExfYearlyFields= .TRUE.,
(PID.TID 0000.0001) > useExfCheckRange  = .FALSE.,
(PID.TID 0000.0001) > useRelativeWind   = .TRUE.,
(PID.TID 0000.0001) > /
(PID.TID 0000.0001) >#
(PID.TID 0000.0001) > &EXF_NML_02
(PID.TID 0000.0001) ># atempfile         = 'ERA5_NRT_tmp2m_K',
(PID.TID 0000.0001) ># aqhfile           = 'ERA5_NRT_spfh2m',
(PID.TID 0000.0001) ># precipfile        = 'ERA5_NRT_rain',
(PID.TID 0000.0001) ># uwindfile         = 'ERA5_NRT_u10m',
(PID.TID 0000.0001) ># vwindfile         = 'ERA5_NRT_v10m',
(PID.TID 0000.0001) ># swdownfile        = 'ERA5_NRT_dsw',
(PID.TID 0000.0001) ># lwdownfile        = 'ERA5_NRT_dlw',
(PID.TID 0000.0001) ># runoffFile        = 'runoff_core_cnyf2p0_ccs_ms.bin',
(PID.TID 0000.0001) >#
(PID.TID 0000.0001) ># atempstartdate1   = 19920101,
(PID.TID 0000.0001) ># atempstartdate2   = 000000,
(PID.TID 0000.0001) ># atempperiod       = 3600.0,
(PID.TID 0000.0001) >#
(PID.TID 0000.0001) ># aqhstartdate1     = 19920101,
(PID.TID 0000.0001) ># aqhstartdate2     = 000000,
(PID.TID 0000.0001) ># aqhperiod         = 3600.0,
(PID.TID 0000.0001) >#
(PID.TID 0000.0001) ># apressurestartdate1     = 19920101,
(PID.TID 0000.0001) ># apressurestartdate2     = 000000,
(PID.TID 0000.0001) ># apressureperiod         = 3600.0,
(PID.TID 0000.0001) >#
(PID.TID 0000.0001) ># precipstartdate1  = 19920101,
(PID.TID 0000.0001) ># precipstartdate2  = 003000,
(PID.TID 0000.0001) ># precipperiod      = 3600.0,
(PID.TID 0000.0001) >#
(PID.TID 0000.0001) ># runoffperiod      = -12,
(PID.TID 0000.0001) >#
(PID.TID 0000.0001) ># uwindstartdate1   = 19920101,
(PID.TID 0000.0001) ># uwindstartdate2   = 000000,
(PID.TID 0000.0001) ># uwindperiod       = 3600.0,
(PID.TID 0000.0001) >#
(PID.TID 0000.0001) ># vwindstartdate1   = 19920101,
(PID.TID 0000.0001) ># vwindstartdate2   = 000000,
(PID.TID 0000.0001) ># vwindperiod       = 3600.0,
(PID.TID 0000.0001) >#
(PID.TID 0000.0001) ># swdownstartdate1  = 19920101,
(PID.TID 0000.0001) ># swdownstartdate2  = 003000,
(PID.TID 0000.0001) ># swdownperiod      = 3600.0,
(PID.TID 0000.0001) >#
(PID.TID 0000.0001) ># lwdownstartdate1  = 19920101,
(PID.TID 0000.0001) ># lwdownstartdate2  = 003000,
(PID.TID 0000.0001) ># lwdownperiod      = 3600.0,
(PID.TID 0000.0001) > /
(PID.TID 0000.0001) >#
(PID.TID 0000.0001) > &EXF_NML_03
(PID.TID 0000.0001) ># exf_inscal_precip = 1.e-03,
(PID.TID 0000.0001) > /
(PID.TID 0000.0001) >#
(PID.TID 0000.0001) > &EXF_NML_04
(PID.TID 0000.0001) ># runoff_interpMethod = 0,
(PID.TID 0000.0001) >#
(PID.TID 0000.0001) ># atemp_lon0        =   0.0000000D0,
(PID.TID 0000.0001) ># atemp_lon_inc     =   0.25D0,
(PID.TID 0000.0001) ># atemp_lat0        = -90.0D0,
(PID.TID 0000.0001) ># atemp_lat_inc     = 720*0.25D0,
(PID.TID 0000.0001) ># atemp_nlon        = 1440,
(PID.TID 0000.0001) ># atemp_nlat        = 721,
(PID.TID 0000.0001) >#
(PID.TID 0000.0001) ># aqh_lon0        =   0.0000000D0,
(PID.TID 0000.0001) ># aqh_lon_inc     =   0.25D0,
(PID.TID 0000.0001) ># aqh_lat0        = -90.0D0,
(PID.TID 0000.0001) ># aqh_lat_inc     = 720*0.25D0,
(PID.TID 0000.0001) ># aqh_nlon        = 1440,
(PID.TID 0000.0001) ># aqh_nlat        = 721,
(PID.TID 0000.0001) >#
(PID.TID 0000.0001) ># precip_lon0        =   0.0000000D0,
(PID.TID 0000.0001) ># precip_lon_inc     =   0.25D0,
(PID.TID 0000.0001) ># precip_lat0        = -90.0D0,
(PID.TID 0000.0001) ># precip_lat_inc     = 720*0.25D0,
(PID.TID 0000.0001) ># precip_nlon        = 1440,
(PID.TID 0000.0001) ># precip_nlat        = 721,
(PID.TID 0000.0001) >#
(PID.TID 0000.0001) ># uwind_lon0        =   0.0000000D0,
(PID.TID 0000.0001) ># uwind_lon_inc     =   0.25D0,
(PID.TID 0000.0001) ># uwind_lat0        = -90.0D0,
(PID.TID 0000.0001) ># uwind_lat_inc     = 720*0.25D0,
(PID.TID 0000.0001) ># uwind_nlon        = 1440,
(PID.TID 0000.0001) ># uwind_nlat        = 721,
(PID.TID 0000.0001) >#
(PID.TID 0000.0001) ># vwind_lon0        =   0.0000000D0,
(PID.TID 0000.0001) ># vwind_lon_inc     =   0.25D0,
(PID.TID 0000.0001) ># vwind_lat0        = -90.0D0,
(PID.TID 0000.0001) ># vwind_lat_inc     = 720*0.25D0,
(PID.TID 0000.0001) ># vwind_nlon        = 1440,
(PID.TID 0000.0001) ># vwind_nlat        = 721,
(PID.TID 0000.0001) >#
(PID.TID 0000.0001) ># swdown_lon0        =   0.0000000D0,
(PID.TID 0000.0001) ># swdown_lon_inc     =   0.25D0,
(PID.TID 0000.0001) ># swdown_lat0        = -90.0D0,
(PID.TID 0000.0001) ># swdown_lat_inc     = 720*0.25D0,
(PID.TID 0000.0001) ># swdown_nlon        = 1440,
(PID.TID 0000.0001) ># swdown_nlat        = 721,
(PID.TID 0000.0001) >#
(PID.TID 0000.0001) ># lwdown_lon0        =   0.0000000D0,
(PID.TID 0000.0001) ># lwdown_lon_inc     =   0.25D0,
(PID.TID 0000.0001) ># lwdown_lat0        = -90.0D0,
(PID.TID 0000.0001) ># lwdown_lat_inc     = 720*0.25D0,
(PID.TID 0000.0001) ># lwdown_nlon        = 1440,
(PID.TID 0000.0001) ># lwdown_nlat        = 721,
(PID.TID 0000.0001) >#
(PID.TID 0000.0001) > /
(PID.TID 0000.0001) >
(PID.TID 0000.0001) 
(PID.TID 0000.0001) EXF_READPARMS: reading EXF_NML_01
(PID.TID 0000.0001) EXF_READPARMS: reading EXF_NML_02
(PID.TID 0000.0001) EXF_READPARMS: reading EXF_NML_03
(PID.TID 0000.0001) EXF_READPARMS: finished reading data.exf
(PID.TID 0000.0001)  GM_READPARMS: opening data.gmredi
(PID.TID 0000.0001)  OPEN_COPY_DATA_FILE: opening file data.gmredi
(PID.TID 0000.0001) // =======================================================
(PID.TID 0000.0001) // Parameter file "data.gmredi"
(PID.TID 0000.0001) // =======================================================
(PID.TID 0000.0001) ># from MOM
(PID.TID 0000.0001) ># GM_background_K: 	isopycnal diffusion coefficien
(PID.TID 0000.0001) ># GM_maxSlope:		max slope of isopycnals
(PID.TID 0000.0001) ># GM_Scrit:		transition for scaling diffusion coefficient
(PID.TID 0000.0001) ># GM_Sd:		half width scaling for diffusion coefficient
(PID.TID 0000.0001) ># real background diff:	horizontal diffusion
(PID.TID 0000.0001) >
(PID.TID 0000.0001) ># ifdef GM_VISBECK_VARIABLE_K, include following in GM_PARM01
(PID.TID 0000.0001) ># GM_Visbeck_alpha   = 0.,
(PID.TID 0000.0001) ># GM_Visbeck_length  = 2.e+5,
(PID.TID 0000.0001) ># GM_Visbeck_depth   = 1.e+3,
(PID.TID 0000.0001) ># GM_Visbeck_maxval_K= 2.5e+3,
(PID.TID 0000.0001) >
(PID.TID 0000.0001) > &GM_PARM01
(PID.TID 0000.0001) >  GM_background_K    = 1.e+3,
(PID.TID 0000.0001) >  GM_taper_scheme    = 'gkw91',
(PID.TID 0000.0001) >  GM_maxSlope        = 1.e-2,
(PID.TID 0000.0001) >  GM_Kmin_horiz      = 100.,
(PID.TID 0000.0001) >  GM_Scrit           = 4.e-3,
(PID.TID 0000.0001) >  GM_Sd              = 1.e-3,
(PID.TID 0000.0001) > /
(PID.TID 0000.0001) 
(PID.TID 0000.0001)  GM_READPARMS: finished reading data.gmredi
(PID.TID 0000.0001)  PTRACERS_READPARMS: opening data.ptracers
(PID.TID 0000.0001)  OPEN_COPY_DATA_FILE: opening file data.ptracers
(PID.TID 0000.0001) // =======================================================
(PID.TID 0000.0001) // Parameter file "data.ptracers"
(PID.TID 0000.0001) // =======================================================
(PID.TID 0000.0001) > &PTRACERS_PARM01
(PID.TID 0000.0001) > PTRACERS_numInUse=8,
(PID.TID 0000.0001) > PTRACERS_useGMRedi=8*.TRUE.,
(PID.TID 0000.0001) > PTRACERS_useKPP=8*.FALSE.,
(PID.TID 0000.0001) ># tracer 1 - dic
(PID.TID 0000.0001) > PTRACERS_names(1)='dic',
(PID.TID 0000.0001) > PTRACERS_long_names(1)='Dissolved Inorganic Carbon',
(PID.TID 0000.0001) > PTRACERS_units(1)='mol C/m^3',
(PID.TID 0000.0001) > PTRACERS_advScheme(1)=30,
(PID.TID 0000.0001) > PTRACERS_diffKh(1)=1.E0,
(PID.TID 0000.0001) > PTRACERS_diffKr(1)=3.E-5,
(PID.TID 0000.0001) > PTRACERS_initialFile(1)='dic_init.bin',
(PID.TID 0000.0001) >#- use F95 syntax (to be converted with -DNML_EXTENDED_F77 if needed)
(PID.TID 0000.0001) > PTRACERS_ref(1:15,1) = 15*2.0282,
(PID.TID 0000.0001) ># PTRACERS_EvPrRn(1)= 0.,
(PID.TID 0000.0001) ># tracer 2 - alk
(PID.TID 0000.0001) > PTRACERS_names(2)='alk',
(PID.TID 0000.0001) > PTRACERS_long_names(2)='Alkalinity',
(PID.TID 0000.0001) > PTRACERS_units(2)='mol eq/m^3',
(PID.TID 0000.0001) > PTRACERS_advScheme(2)=30,
(PID.TID 0000.0001) > PTRACERS_diffKh(2)=1.E0,
(PID.TID 0000.0001) > PTRACERS_diffKr(2)=3.E-5,
(PID.TID 0000.0001) > PTRACERS_initialFile(2)='alk_init.bin',
(PID.TID 0000.0001) >#- use F95 syntax (to be converted with -DNML_EXTENDED_F77 if needed)
(PID.TID 0000.0001) > PTRACERS_ref(1:15,2) = 15*2.3086,
(PID.TID 0000.0001) ># PTRACERS_EvPrRn(2)= 0.,
(PID.TID 0000.0001) ># tracer 3 - o2
(PID.TID 0000.0001) > PTRACERS_names(3)='o2',
(PID.TID 0000.0001) > PTRACERS_long_names(3)='Dissolved Oxygen',
(PID.TID 0000.0001) > PTRACERS_units(3)='mol O/m^3',
(PID.TID 0000.0001) > PTRACERS_advScheme(3)=30,
(PID.TID 0000.0001) > PTRACERS_diffKh(3)=1.E0,
(PID.TID 0000.0001) > PTRACERS_diffKr(3)=3.E-5,
(PID.TID 0000.0001) > PTRACERS_initialFile(3)='o2_init.bin',
(PID.TID 0000.0001) > PTRACERS_ref(1:15,3) = 15*0.2,
(PID.TID 0000.0001) ># PTRACERS_EvPrRn(3)= 0.,
(PID.TID 0000.0001) >## tracer 4 - no3
(PID.TID 0000.0001) > PTRACERS_names(4)='no3',
(PID.TID 0000.0001) > PTRACERS_long_names(4)='Nitrate',
(PID.TID 0000.0001) > PTRACERS_units(4)='mol N/m^3',
(PID.TID 0000.0001) > PTRACERS_advScheme(4)=30,
(PID.TID 0000.0001) > PTRACERS_diffKh(4)=1.E0,
(PID.TID 0000.0001) > PTRACERS_diffKr(4)=3.E-5,
(PID.TID 0000.0001) > PTRACERS_initialFile(4)='no3_init.bin',
(PID.TID 0000.0001) > PTRACERS_ref(1:15,4) = 15*0.01,
(PID.TID 0000.0001) ># PTRACERS_EvPrRn(4)= 0.,
(PID.TID 0000.0001) ># tracer 5 - po4
(PID.TID 0000.0001) > PTRACERS_names(5)='po4',
(PID.TID 0000.0001) > PTRACERS_long_names(5)='Phosphate',
(PID.TID 0000.0001) > PTRACERS_units(5)='mol P/m^3',
(PID.TID 0000.0001) > PTRACERS_advScheme(5)=30,
(PID.TID 0000.0001) > PTRACERS_diffKh(5)=1.E0,
(PID.TID 0000.0001) > PTRACERS_diffKr(5)=3.E-5,
(PID.TID 0000.0001) > PTRACERS_initialFile(5)='po4_init.bin',
(PID.TID 0000.0001) >#- use F95 syntax (to be converted with -DNML_EXTENDED_F77 if needed)
(PID.TID 0000.0001) > PTRACERS_ref(1:15,5) = 15*0.5438E-3,
(PID.TID 0000.0001) ># PTRACERS_EvPrRn(5)= 0.,
(PID.TID 0000.0001) ># tracer 6 - fet
(PID.TID 0000.0001) > PTRACERS_names(6)='fet',
(PID.TID 0000.0001) > PTRACERS_long_names(6)='Dissolved Inorganic Iron',
(PID.TID 0000.0001) > PTRACERS_units(6)='mol Fe/m^3',
(PID.TID 0000.0001) > PTRACERS_advScheme(6)=30,
(PID.TID 0000.0001) > PTRACERS_diffKh(6)=1.E0,
(PID.TID 0000.0001) > PTRACERS_diffKr(6)=3.E-5,
(PID.TID 0000.0001) > PTRACERS_initialFile(6)='fe_init.bin',
(PID.TID 0000.0001) >#- use F95 syntax (to be converted with -DNML_EXTENDED_F77 if needed)
(PID.TID 0000.0001) > PTRACERS_ref(1:15,6) = 15*0.6e-6,
(PID.TID 0000.0001) >#PTRACERS_EvPrRn(6)= 0.,
(PID.TID 0000.0001) ># tracer 7 - don
(PID.TID 0000.0001) > PTRACERS_names(7)='don',
(PID.TID 0000.0001) > PTRACERS_long_names(7)='Dissolved Organic Nitrogen',
(PID.TID 0000.0001) > PTRACERS_units(7)='mol N/m^3',
(PID.TID 0000.0001) > PTRACERS_advScheme(7)=30,
(PID.TID 0000.0001) > PTRACERS_diffKh(7)=1.E0,
(PID.TID 0000.0001) > PTRACERS_diffKr(7)=3.E-5,
(PID.TID 0000.0001) > PTRACERS_initialFile(7)='don_init.bin',
(PID.TID 0000.0001) >#- use F95 syntax (to be converted with -DNML_EXTENDED_F77 if needed)
(PID.TID 0000.0001) > PTRACERS_ref(1:15,7) = 15*0.,
(PID.TID 0000.0001) ># PTRACERS_EvPrRn(7)= 0.,
(PID.TID 0000.0001) ># tracer 5 - dop
(PID.TID 0000.0001) > PTRACERS_names(8)='dop',
(PID.TID 0000.0001) > PTRACERS_long_names(8)='Dissolved Organic Phosphorus',
(PID.TID 0000.0001) > PTRACERS_units(8)='mol P/m^3',
(PID.TID 0000.0001) > PTRACERS_advScheme(8)=30,
(PID.TID 0000.0001) > PTRACERS_diffKh(8)=1.E0,
(PID.TID 0000.0001) > PTRACERS_diffKr(8)=3.E-5,
(PID.TID 0000.0001) > PTRACERS_initialFile(8)='dop_init.bin',
(PID.TID 0000.0001) >#- use F95 syntax (to be converted with -DNML_EXTENDED_F77 if needed)
(PID.TID 0000.0001) > PTRACERS_ref(1:15,8) = 15*0.,
(PID.TID 0000.0001) ># PTRACERS_EvPrRn(8)= 0.,
(PID.TID 0000.0001) > /
(PID.TID 0000.0001) 
(PID.TID 0000.0001)  PTRACERS_READPARMS: finished reading data.ptracers
(PID.TID 0000.0001)  GCHEM_READPARMS: opening data.gchem
(PID.TID 0000.0001)  OPEN_COPY_DATA_FILE: opening file data.gchem
(PID.TID 0000.0001) // =======================================================
(PID.TID 0000.0001) // Parameter file "data.gchem"
(PID.TID 0000.0001) // =======================================================
(PID.TID 0000.0001) > &GCHEM_PARM01
(PID.TID 0000.0001) >  useBLING=.TRUE.,
(PID.TID 0000.0001) >  gchem_useEXF=.TRUE.,
(PID.TID 0000.0001) >  nsubtime=1,
(PID.TID 0000.0001) >  gchem_windFile='tren_speed.bin',
(PID.TID 0000.0001) >  gchem_iceFile='fice.bin',
(PID.TID 0000.0001) >  gchem_SiFile='sillev1.bin',
(PID.TID 0000.0001) >  gchem_FeFile='mah_flux_smooth.bin',
(PID.TID 0000.0001) >#
(PID.TID 0000.0001) >  gchem_apco2_const = 380.5e-6,
(PID.TID 0000.0001) >  gchem_wind_const  = 5.,
(PID.TID 0000.0001) >  gchem_apres_const = 1.01325e5,
(PID.TID 0000.0001) >  gchem_par_const   = 140.0,
(PID.TID 0000.0001) >  gchem_Fe_const    = 1.e-11,
(PID.TID 0000.0001) >  gchem_Si_const    = 7.6838e-3,
(PID.TID 0000.0001) > /
(PID.TID 0000.0001) >
(PID.TID 0000.0001) > &GCHEM_FORCING_PARAMS
(PID.TID 0000.0001) >  gchem_windPeriod = -12.,
(PID.TID 0000.0001) >  gchem_icePeriod  = -12.,
(PID.TID 0000.0001) >  gchem_FePeriod   = -12.,
(PID.TID 0000.0001) >  gchem_SiPeriod   = -12.,
(PID.TID 0000.0001) > /
(PID.TID 0000.0001) >
(PID.TID 0000.0001) > &GCHEM_INTERP_PARAMS
(PID.TID 0000.0001) > /
(PID.TID 0000.0001) 
(PID.TID 0000.0001)  GCHEM_READPARMS: finished reading data.gchem
(PID.TID 0000.0001)  BLING_READPARMS: opening data.bling
(PID.TID 0000.0001)  OPEN_COPY_DATA_FILE: opening file data.bling
(PID.TID 0000.0001) // =======================================================
(PID.TID 0000.0001) // Parameter file "data.bling"
(PID.TID 0000.0001) // =======================================================
(PID.TID 0000.0001) ># BLING parameters
(PID.TID 0000.0001) > &ABIOTIC_PARMS
(PID.TID 0000.0001) > /
(PID.TID 0000.0001) >
(PID.TID 0000.0001) > &BIOTIC_PARMS
(PID.TID 0000.0001) > /
(PID.TID 0000.0001) >
(PID.TID 0000.0001) > &BLING_FORCING
(PID.TID 0000.0001) > /
(PID.TID 0000.0001) 
(PID.TID 0000.0001)  BLING_READPARMS: finished reading data.BLING
(PID.TID 0000.0001) Using Millero (1995)/Mehrbach K1 and K2 coefficients
(PID.TID 0000.0001) Using Dickson and Riley (1979) KF coefficient
(PID.TID 0000.0001) Using Uppstrom (1974) BT estimation from salinity
(PID.TID 0000.0001) Using Riley (1965) FT estimation from salinity
(PID.TID 0000.0001) GCHEM_TR_REGISTER:  Start registering GCHEM tracers
(PID.TID 0000.0001)  BLING_TR_REGISTER: number of BLING tracers=    8
(PID.TID 0000.0001)  BLING_TR_REGISTER:   starting at pTrc num =    1
(PID.TID 0000.0001)  BLING_TR_REGISTER: Numb. Trac & SepForc Trac:    8    8
(PID.TID 0000.0001) GCHEM_TR_REGISTER:  Numb. Trac & SepForc Trac:    8    8
(PID.TID 0000.0001) 
(PID.TID 0000.0001) AUTODIFF_READPARMS: opening data.autodiff
(PID.TID 0000.0001)  OPEN_COPY_DATA_FILE: opening file data.autodiff
(PID.TID 0000.0001) // =======================================================
(PID.TID 0000.0001) // Parameter file "data.autodiff"
(PID.TID 0000.0001) // =======================================================
(PID.TID 0000.0001) ># =========================
(PID.TID 0000.0001) ># pkg AUTODIFF parameters :
(PID.TID 0000.0001) ># =========================
(PID.TID 0000.0001) >#  inAdExact :: get an exact adjoint (no approximation) (def=.True.)
(PID.TID 0000.0001) >#
(PID.TID 0000.0001) > &AUTODIFF_PARM01
(PID.TID 0000.0001) ># inAdExact = .FALSE.,
(PID.TID 0000.0001) > /
(PID.TID 0000.0001) 
(PID.TID 0000.0001) AUTODIFF_READPARMS: finished reading data.autodiff
(PID.TID 0000.0001) // ===================================
(PID.TID 0000.0001) // AUTODIFF parameters :
(PID.TID 0000.0001) // ===================================
(PID.TID 0000.0001) inAdExact = /* get an exact adjoint (no approximation) */
(PID.TID 0000.0001)                   T
(PID.TID 0000.0001)     ;
(PID.TID 0000.0001) useApproxAdvectionInAdMode = /* approximate AD-advection */
(PID.TID 0000.0001)                   F
(PID.TID 0000.0001)     ;
(PID.TID 0000.0001) cg2dFullAdjoint = /* use full hand written cg2d adjoint (no approximation) */
(PID.TID 0000.0001)                   F
(PID.TID 0000.0001)     ;
(PID.TID 0000.0001) useKPPinAdMode = /* use KPP in adjoint mode */
(PID.TID 0000.0001)                   F
(PID.TID 0000.0001)     ;
(PID.TID 0000.0001) useGMRediInAdMode = /* use GMRedi in adjoint mode */
(PID.TID 0000.0001)                   T
(PID.TID 0000.0001)     ;
(PID.TID 0000.0001) useSEAICEinAdMode = /* use SEAICE in adjoint mode */
(PID.TID 0000.0001)                   F
(PID.TID 0000.0001)     ;
(PID.TID 0000.0001) useGGL90inAdMode = /* use GGL90 in adjoint mode */
(PID.TID 0000.0001)                   F
(PID.TID 0000.0001)     ;
(PID.TID 0000.0001) useSALT_PLUMEinAdMode = /* use SALT_PLUME in adjoint mode */
(PID.TID 0000.0001)                   F
(PID.TID 0000.0001)     ;
(PID.TID 0000.0001) dumpAdVarExch = /* control adexch before dumpinp */
(PID.TID 0000.0001)                       2
(PID.TID 0000.0001)     ;
(PID.TID 0000.0001) mon_AdVarExch = /* control adexch before monitor */
(PID.TID 0000.0001)                       2
(PID.TID 0000.0001)     ;
(PID.TID 0000.0001) viscFacInFw = /* viscosity factor for forward model */
(PID.TID 0000.0001)                 1.000000000000000E+00
(PID.TID 0000.0001)     ;
(PID.TID 0000.0001) viscFacInAd = /* viscosity factor for adjoint */
(PID.TID 0000.0001)                 1.000000000000000E+00
(PID.TID 0000.0001)     ;
(PID.TID 0000.0001) SIregFacInAd = /* sea ice factor for adjoint model */
(PID.TID 0000.0001)                 1.234567000000000E+05
(PID.TID 0000.0001)     ;
(PID.TID 0000.0001) SIregFacInFw = /* sea ice factor for forward model */
(PID.TID 0000.0001)                 1.234567000000000E+05
(PID.TID 0000.0001)     ;
(PID.TID 0000.0001) 
(PID.TID 0000.0001) OPTIM_READPARMS: opening data.optim
(PID.TID 0000.0001)  OPEN_COPY_DATA_FILE: opening file data.optim
(PID.TID 0000.0001) // =======================================================
(PID.TID 0000.0001) // Parameter file "data.optim"
(PID.TID 0000.0001) // =======================================================
(PID.TID 0000.0001) ># ********************************
(PID.TID 0000.0001) ># Off-line optimization parameters
(PID.TID 0000.0001) ># ********************************
(PID.TID 0000.0001) > &OPTIM
(PID.TID 0000.0001) > optimcycle=0,
(PID.TID 0000.0001) > /
(PID.TID 0000.0001) 
(PID.TID 0000.0001) OPTIM_READPARMS: finished reading data.optim
(PID.TID 0000.0001) CTRL_READPARMS: opening data.ctrl
(PID.TID 0000.0001)  OPEN_COPY_DATA_FILE: opening file data.ctrl
(PID.TID 0000.0001) // =======================================================
(PID.TID 0000.0001) // Parameter file "data.ctrl"
(PID.TID 0000.0001) // =======================================================
(PID.TID 0000.0001) ># *********************
(PID.TID 0000.0001) ># ECCO controlvariables
(PID.TID 0000.0001) ># *********************
(PID.TID 0000.0001) > &ctrl_nml
(PID.TID 0000.0001) > doSinglePrecTapelev=.TRUE.,
(PID.TID 0000.0001) > ctrlSmoothCorrel2D=.FALSE.,
(PID.TID 0000.0001) > ctrlSmoothCorrel3D=.FALSE.,
(PID.TID 0000.0001) ># doMainUnpack = .FALSE.,
(PID.TID 0000.0001) ># doPackDiag = .TRUE.,
(PID.TID 0000.0001) ># forcingPrecond=20.,
(PID.TID 0000.0001) ># doZscalePack = .TRUE.,
(PID.TID 0000.0001) ># doZscaleUnpack = .TRUE.,
(PID.TID 0000.0001) ># delZexp = -1.,
(PID.TID 0000.0001) > /
(PID.TID 0000.0001) >
(PID.TID 0000.0001) ># *********************
(PID.TID 0000.0001) ># names for ctrl_pack/unpack
(PID.TID 0000.0001) ># *********************
(PID.TID 0000.0001) > &ctrl_packnames
(PID.TID 0000.0001) > ctrlname='ecco_ctrl',
(PID.TID 0000.0001) > costname='ecco_cost',
(PID.TID 0000.0001) > /
(PID.TID 0000.0001) >
(PID.TID 0000.0001) ># *********************
(PID.TID 0000.0001) ># names for CTRL_GENARR, CTRL_GENTIM
(PID.TID 0000.0001) ># *********************
(PID.TID 0000.0001) > &CTRL_NML_GENARR
(PID.TID 0000.0001) >#  Ini Cndtns
(PID.TID 0000.0001) ># xx_genarr3d_weight(1) = 'wt_theta.bin',
(PID.TID 0000.0001) > xx_genarr3d_weight(1) = 'ones_32b.bin',
(PID.TID 0000.0001) > xx_genarr3d_file(1)='xx_theta',
(PID.TID 0000.0001) ># xx_genarr3d_preproc(1,1)='smooth',
(PID.TID 0000.0001) ># no bounds: xx_genarr3d_bounds(1:5,1)=-2.0,-1.9,39.,40.,0.,
(PID.TID 0000.0001) > mult_genarr3d(1) = 1.0,
(PID.TID 0000.0001) >#
(PID.TID 0000.0001) ># xx_genarr3d_weight(2) = 'wt_salt.bin',
(PID.TID 0000.0001) > xx_genarr3d_weight(2) = 'ones_32b.bin',
(PID.TID 0000.0001) > xx_genarr3d_file(2)='xx_salt',
(PID.TID 0000.0001) ># xx_genarr3d_preproc(1,2)='smooth',
(PID.TID 0000.0001) ># xx_genarr3d_bounds(1:5,2)=29.,29.5,40.5,41.,0.,
(PID.TID 0000.0001) > mult_genarr3d(2) = 1.0,
(PID.TID 0000.0001) >#
(PID.TID 0000.0001) ># xx_genarr3d_weight(3) = 'wt_DIC.bin',
(PID.TID 0000.0001) > xx_genarr3d_weight(3) = 'ones_32b.bin',
(PID.TID 0000.0001) > xx_genarr3d_file(3)='xx_ptr1',
(PID.TID 0000.0001) ># xx_genarr3d_preproc(1,3)='smooth',
(PID.TID 0000.0001) > mult_genarr3d(3) = 1.0,
(PID.TID 0000.0001) >#
(PID.TID 0000.0001) ># xx_genarr3d_weight(4) = 'wt_ALK.bin',
(PID.TID 0000.0001) > xx_genarr3d_weight(4) = 'ones_32b.bin',
(PID.TID 0000.0001) > xx_genarr3d_file(4)='xx_ptr2',
(PID.TID 0000.0001) ># xx_genarr3d_preproc(1,4)='smooth',
(PID.TID 0000.0001) > mult_genarr3d(4) = 1.0,
(PID.TID 0000.0001) >#
(PID.TID 0000.0001) ># xx_genarr3d_weight(5) = 'wt_O2.bin',
(PID.TID 0000.0001) > xx_genarr3d_weight(5) = 'ones_32b.bin',
(PID.TID 0000.0001) > xx_genarr3d_file(5)='xx_ptr3',
(PID.TID 0000.0001) ># xx_genarr3d_preproc(1,5)='smooth',
(PID.TID 0000.0001) > mult_genarr3d(5) = 1.0,
(PID.TID 0000.0001) >#
(PID.TID 0000.0001) ># xx_genarr3d_weight(6) = 'wt_NO3.bin',
(PID.TID 0000.0001) > xx_genarr3d_weight(6) = 'ones_32b.bin',
(PID.TID 0000.0001) > xx_genarr3d_file(6)='xx_ptr4',
(PID.TID 0000.0001) ># xx_genarr3d_preproc(1,6)='smooth',
(PID.TID 0000.0001) > mult_genarr3d(6) = 1.0,
(PID.TID 0000.0001) >#
(PID.TID 0000.0001) ># xx_genarr3d_weight(7) = 'wt_PO4.bin',
(PID.TID 0000.0001) > xx_genarr3d_weight(7) = 'ones_32b.bin',
(PID.TID 0000.0001) > xx_genarr3d_file(7)='xx_ptr5',
(PID.TID 0000.0001) ># xx_genarr3d_preproc(1,7)='smooth',
(PID.TID 0000.0001) > mult_genarr3d(7) = 1.0,
(PID.TID 0000.0001) >#
(PID.TID 0000.0001) ># xx_genarr3d_weight(8) = 'wt_FE.bin',
(PID.TID 0000.0001) > xx_genarr3d_weight(8) = 'ones_32b.bin',
(PID.TID 0000.0001) > xx_genarr3d_file(8)='xx_ptr6',
(PID.TID 0000.0001) ># xx_genarr3d_preproc(1,8)='smooth',
(PID.TID 0000.0001) > mult_genarr3d(8) = 1.0,
(PID.TID 0000.0001) >#
(PID.TID 0000.0001) > /
(PID.TID 0000.0001) 
(PID.TID 0000.0001) CTRL_READPARMS: finished reading data.ctrl
(PID.TID 0000.0001) read-write ctrl files from current run directory
(PID.TID 0000.0001) COST_READPARMS: opening data.cost
(PID.TID 0000.0001)  OPEN_COPY_DATA_FILE: opening file data.cost
(PID.TID 0000.0001) // =======================================================
(PID.TID 0000.0001) // Parameter file "data.cost"
(PID.TID 0000.0001) // =======================================================
(PID.TID 0000.0001) ># ******************
(PID.TID 0000.0001) ># ECCO cost function
(PID.TID 0000.0001) ># ******************
(PID.TID 0000.0001) > &COST_NML
(PID.TID 0000.0001) > /
(PID.TID 0000.0001) 
(PID.TID 0000.0001) COST_READPARMS: finished reading data.cost
(PID.TID 0000.0001) // =======================================================
(PID.TID 0000.0001) // cost configuration  >>> START <<<
(PID.TID 0000.0001) // =======================================================
(PID.TID 0000.0001) lastinterval =   /* cost interval over which to average ( s ). */
(PID.TID 0000.0001)                 2.592000000000000E+06
(PID.TID 0000.0001)     ;
(PID.TID 0000.0001) cost_mask_file = /* file name of cost mask file */
(PID.TID 0000.0001)               ''
(PID.TID 0000.0001)     ;
(PID.TID 0000.0001) // =======================================================
(PID.TID 0000.0001) // cost configuration  >>> END <<<
(PID.TID 0000.0001) // =======================================================
(PID.TID 0000.0001) 
(PID.TID 0000.0001) GRDCHK_READPARMS: opening data.grdchk
(PID.TID 0000.0001)  OPEN_COPY_DATA_FILE: opening file data.grdchk
(PID.TID 0000.0001) // =======================================================
(PID.TID 0000.0001) // Parameter file "data.grdchk"
(PID.TID 0000.0001) // =======================================================
(PID.TID 0000.0001) >
(PID.TID 0000.0001) ># *******************
(PID.TID 0000.0001) ># ECCO gradient check
(PID.TID 0000.0001) ># *******************
(PID.TID 0000.0001) > &GRDCHK_NML
(PID.TID 0000.0001) > grdchk_eps       = 1.d-5,
(PID.TID 0000.0001) > nbeg             = 0,
(PID.TID 0000.0001) > nstep            = 1,
(PID.TID 0000.0001) > nend             = 3,
(PID.TID 0000.0001) ># testing dpH/dALK
(PID.TID 0000.0001) > grdchkvarname    = "xx_ptr2",
(PID.TID 0000.0001) > iGloPos  =34,
(PID.TID 0000.0001) > jGloPos  =10,
(PID.TID 0000.0001) > kGloPos  =1,
(PID.TID 0000.0001) > iGloTile =2,
(PID.TID 0000.0001) > jGloTile =1,
(PID.TID 0000.0001) > /
(PID.TID 0000.0001) 
(PID.TID 0000.0001) GRDCHK_READPARMS: finished reading data.grdchk
(PID.TID 0000.0001) ECCO_READPARMS: opening data.ecco
(PID.TID 0000.0001)  OPEN_COPY_DATA_FILE: opening file data.ecco
(PID.TID 0000.0001) // =======================================================
(PID.TID 0000.0001) // Parameter file "data.ecco"
(PID.TID 0000.0001) // =======================================================
(PID.TID 0000.0001) ># ******************
(PID.TID 0000.0001) ># ECCO cost function
(PID.TID 0000.0001) ># ******************
(PID.TID 0000.0001) >#
(PID.TID 0000.0001) > &ECCO_COST_NML
(PID.TID 0000.0001) > using_cost_seaice = .FALSE.,
(PID.TID 0000.0001) > using_cost_sst = .FALSE.,
(PID.TID 0000.0001) > using_cost_altim = .FALSE.,
(PID.TID 0000.0001) > cost_iprec  = 32,
(PID.TID 0000.0001) > /
(PID.TID 0000.0001) >
(PID.TID 0000.0001) > &ECCO_GENCOST_NML
(PID.TID 0000.0001) ># SST
(PID.TID 0000.0001) > gencost_avgperiod(1) = 'day',
(PID.TID 0000.0001) > gencost_barfile(1) = 'm_sst_day',
(PID.TID 0000.0001) > gencost_datafile(1) = 'lev_clim_temp.bin',
(PID.TID 0000.0001) > gencost_errfile(1) = 'ones_32b.bin',
(PID.TID 0000.0001) > gencost_name(1) = 'sst-MW',
(PID.TID 0000.0001) > gencost_spmin(1) = -1.8,
(PID.TID 0000.0001) > gencost_spmax(1) = 40.,
(PID.TID 0000.0001) > gencost_spzero(1) = 0.,
(PID.TID 0000.0001) > gencost_outputlevel(1)=1,
(PID.TID 0000.0001) > mult_gencost(1) = 0.1,
(PID.TID 0000.0001) >#
(PID.TID 0000.0001) > /
(PID.TID 0000.0001) 
(PID.TID 0000.0001) ECCO_READPARMS: finished reading #1: ecco_cost_nml
(PID.TID 0000.0001) ECCO_READPARMS: finished reading #2: ecco_gencost_nml
(PID.TID 0000.0001) ECCO_READPARMS: done
(PID.TID 0000.0001) PROFILES_READPARMS: opening data.profiles
(PID.TID 0000.0001)  OPEN_COPY_DATA_FILE: opening file data.profiles
(PID.TID 0000.0001) // =======================================================
(PID.TID 0000.0001) // Parameter file "data.profiles"
(PID.TID 0000.0001) // =======================================================
(PID.TID 0000.0001) ># **********************
(PID.TID 0000.0001) ># PROFILES cost function
(PID.TID 0000.0001) ># **********************
(PID.TID 0000.0001) >#
(PID.TID 0000.0001) ># NetCDF-file 'sample_prof.nc' only contains data for variables T, S, PH,
(PID.TID 0000.0001) ># but if available bling allows many more variables, which are
(PID.TID 0000.0001) ># left as example namelist entries without effect, because they are
(PID.TID 0000.0001) ># not in 'sample_prof.nc'.
(PID.TID 0000.0001) >#
(PID.TID 0000.0001) ># >> ncdump -h sample_prof.nc
(PID.TID 0000.0001) ># netcdf sample_prof {
(PID.TID 0000.0001) ># dimensions:
(PID.TID 0000.0001) ># 	iPROF = 63 ;
(PID.TID 0000.0001) ># 	iDEPTH = 25 ;
(PID.TID 0000.0001) ># variables:
(PID.TID 0000.0001) ># 	double prof_depth(iDEPTH) ;
(PID.TID 0000.0001) ># 	double prof_YYYYMMDD(iPROF) ;
(PID.TID 0000.0001) ># 	double prof_HHMMSS(iPROF) ;
(PID.TID 0000.0001) ># 	double prof_lon(iPROF) ;
(PID.TID 0000.0001) >#	double prof_lat(iPROF) ;
(PID.TID 0000.0001) ># 	double prof_T(iPROF, iDEPTH) ;
(PID.TID 0000.0001) >#  	double prof_Tweight(iPROF, iDEPTH) ;
(PID.TID 0000.0001) ># 	double prof_S(iPROF, iDEPTH) ;
(PID.TID 0000.0001) ># 	double prof_Sweight(iPROF, iDEPTH) ;
(PID.TID 0000.0001) ># 	double prof_PH(iPROF, iDEPTH) ;
(PID.TID 0000.0001) >#	double prof_PHweight(iPROF, iDEPTH) ;
(PID.TID 0000.0001) ># }
(PID.TID 0000.0001) >
(PID.TID 0000.0001) > &PROFILES_NML
(PID.TID 0000.0001) ># profilesDir = 'PROF',
(PID.TID 0000.0001) > profilesfiles(1) = 'sample_prof',
(PID.TID 0000.0001) > prof_make_nc = .TRUE.,
(PID.TID 0000.0001) > profilesDoNcOutput = .TRUE.,
(PID.TID 0000.0001) ># has T, S, and pH constraints.
(PID.TID 0000.0001) ># The default mult_profiles = 1,
(PID.TID 0000.0001) ># here we turn off the cost contribution of T and S.
(PID.TID 0000.0001) > mult_profiles(1,1)   = 0.0,
(PID.TID 0000.0001) > mult_profiles(1,2)   = 0.0,
(PID.TID 0000.0001) > mult_profiles(1,14)  = 1.0,
(PID.TID 0000.0001) >#
(PID.TID 0000.0001) > prof_names(:,1)='prof_T',
(PID.TID 0000.0001) > prof_names(:,2)='prof_S',
(PID.TID 0000.0001) > prof_names(:,3)='prof_U',
(PID.TID 0000.0001) > prof_names(:,4)='prof_V',
(PID.TID 0000.0001) > prof_names(:,5)='prof_ptr',
(PID.TID 0000.0001) > prof_names(:,6)='prof_ssh',
(PID.TID 0000.0001) > prof_names(:,7)='prof_DIC',
(PID.TID 0000.0001) > prof_names(:,8)='prof_ALK',
(PID.TID 0000.0001) > prof_names(:,9)='prof_O2',
(PID.TID 0000.0001) > prof_names(:,10)='prof_NO3',
(PID.TID 0000.0001) > prof_names(:,11)='prof_PO4',
(PID.TID 0000.0001) > prof_names(:,12)='prof_FE',
(PID.TID 0000.0001) > prof_names(:,13)='prof_PCO',
(PID.TID 0000.0001) > prof_names(:,14)='prof_PH',
(PID.TID 0000.0001) > prof_names(:,15)='prof_CHL',
(PID.TID 0000.0001) > prof_names(:,16)='prof_POC',
(PID.TID 0000.0001) >#
(PID.TID 0000.0001) > prof_itracer(:,1)=1,
(PID.TID 0000.0001) > prof_itracer(:,2)=1,
(PID.TID 0000.0001) > prof_itracer(:,3)=1,
(PID.TID 0000.0001) > prof_itracer(:,4)=1,
(PID.TID 0000.0001) > prof_itracer(:,5)=1,
(PID.TID 0000.0001) > prof_itracer(:,6)=1,
(PID.TID 0000.0001) > prof_itracer(:,7)=1,
(PID.TID 0000.0001) > prof_itracer(:,8)=2,
(PID.TID 0000.0001) > prof_itracer(:,9)=3,
(PID.TID 0000.0001) > prof_itracer(:,10)=4,
(PID.TID 0000.0001) > prof_itracer(:,11)=5,
(PID.TID 0000.0001) > prof_itracer(:,12)=6,
(PID.TID 0000.0001) > prof_itracer(:,13)=1,
(PID.TID 0000.0001) > prof_itracer(:,14)=1,
(PID.TID 0000.0001) > prof_itracer(:,15)=1,
(PID.TID 0000.0001) > prof_itracer(:,16)=1,
(PID.TID 0000.0001) >#
(PID.TID 0000.0001) > prof_namesmod(:,1)='theta',
(PID.TID 0000.0001) > prof_namesmod(:,2)='salt',
(PID.TID 0000.0001) > prof_namesmod(:,3)='uVel',
(PID.TID 0000.0001) > prof_namesmod(:,4)='vVel',
(PID.TID 0000.0001) > prof_namesmod(:,5)='pTracer',
(PID.TID 0000.0001) > prof_namesmod(:,6)='etaN',
(PID.TID 0000.0001) > prof_namesmod(:,7)='pTracer',
(PID.TID 0000.0001) > prof_namesmod(:,8)='pTracer',
(PID.TID 0000.0001) > prof_namesmod(:,9)='pTracer',
(PID.TID 0000.0001) > prof_namesmod(:,10)='pTracer',
(PID.TID 0000.0001) > prof_namesmod(:,11)='pTracer',
(PID.TID 0000.0001) > prof_namesmod(:,12)='pTracer',
(PID.TID 0000.0001) > prof_namesmod(:,13)='PCO',
(PID.TID 0000.0001) > prof_namesmod(:,14)='PH',
(PID.TID 0000.0001) > prof_namesmod(:,15)='CHL',
(PID.TID 0000.0001) > prof_namesmod(:,16)='POC',
(PID.TID 0000.0001) > /
(PID.TID 0000.0001) 
(PID.TID 0000.0001) PROFILES_READPARMS: finished reading data.profiles
(PID.TID 0000.0001)  DIAGNOSTICS_READPARMS: opening data.diagnostics
(PID.TID 0000.0001)  OPEN_COPY_DATA_FILE: opening file data.diagnostics
(PID.TID 0000.0001) // =======================================================
(PID.TID 0000.0001) // Parameter file "data.diagnostics"
(PID.TID 0000.0001) // =======================================================
(PID.TID 0000.0001) ># Diagnostic Package Choices
(PID.TID 0000.0001) >#--------------------
(PID.TID 0000.0001) >#  dumpAtLast (logical): always write output at the end of simulation (default=F)
(PID.TID 0000.0001) >#  diag_mnc   (logical): write to NetCDF files (default=useMNC)
(PID.TID 0000.0001) >#--for each output-stream:
(PID.TID 0000.0001) >#  fileName(n) : prefix of the output file name (max 80c long) for outp.stream n
(PID.TID 0000.0001) >#  frequency(n):< 0 : write snap-shot output every |frequency| seconds
(PID.TID 0000.0001) >#               > 0 : write time-average output every frequency seconds
(PID.TID 0000.0001) >#  timePhase(n)     : write at time = timePhase + multiple of |frequency|
(PID.TID 0000.0001) >#    averagingFreq  : frequency (in s) for periodic averaging interval
(PID.TID 0000.0001) >#    averagingPhase : phase     (in s) for periodic averaging interval
(PID.TID 0000.0001) >#    repeatCycle    : number of averaging intervals in 1 cycle
(PID.TID 0000.0001) >#  levels(:,n) : list of levels to write to file (Notes: declared as REAL)
(PID.TID 0000.0001) >#                when this entry is missing, select all common levels of this list
(PID.TID 0000.0001) >#  fields(:,n) : list of selected diagnostics fields (8.c) in outp.stream n
(PID.TID 0000.0001) >#                (see "available_diagnostics.log" file for the full list of diags)
(PID.TID 0000.0001) >#  missing_value(n) : missing value for real-type fields in output file "n"
(PID.TID 0000.0001) >#  fileFlags(n)     : specific code (8c string) for output file "n"
(PID.TID 0000.0001) >#--------------------
(PID.TID 0000.0001) > &DIAGNOSTICS_LIST
(PID.TID 0000.0001) >  fileName(1)    = 'blingTracDiag',
(PID.TID 0000.0001) >  fields(1:8,1)  = 'TRAC01  ','TRAC02  ','TRAC03  ',
(PID.TID 0000.0001) >                   'TRAC04  ','TRAC05  ','TRAC06  ',
(PID.TID 0000.0001) >                   'TRAC07  ','TRAC08  ',
(PID.TID 0000.0001) >  frequency(1)   = 432000.,
(PID.TID 0000.0001) ># ---
(PID.TID 0000.0001) >  fileName(2)    = 'adjBlingTracDiag',
(PID.TID 0000.0001) >  fields(1:8,2)  = 'ADJptr01','ADJptr02','ADJptr03',
(PID.TID 0000.0001) >                   'ADJptr04','ADJptr05','ADJptr06',
(PID.TID 0000.0001) >                   'ADJptr07','ADJptr08'
(PID.TID 0000.0001) >  frequency(2)   = 432000.,
(PID.TID 0000.0001) > /
(PID.TID 0000.0001) >
(PID.TID 0000.0001) >#--------------------
(PID.TID 0000.0001) ># Parameter for Diagnostics of per level statistics:
(PID.TID 0000.0001) >#--------------------
(PID.TID 0000.0001) >#  diagSt_mnc (logical): write stat-diags to NetCDF files (default=diag_mnc)
(PID.TID 0000.0001) >#  diagSt_regMaskFile : file containing the region-mask to read-in
(PID.TID 0000.0001) >#  nSetRegMskFile   : number of region-mask sets within the region-mask file
(PID.TID 0000.0001) >#  set_regMask(i)   : region-mask set-index that identifies the region "i"
(PID.TID 0000.0001) >#  val_regMask(i)   : region "i" identifier value in the region mask
(PID.TID 0000.0001) >#--for each output-stream:
(PID.TID 0000.0001) >#  stat_fName(n) : prefix of the output file name (max 80c long) for outp.stream n
(PID.TID 0000.0001) >#  stat_freq(n):< 0 : write snap-shot output every |stat_freq| seconds
(PID.TID 0000.0001) >#               > 0 : write time-average output every stat_freq seconds
(PID.TID 0000.0001) >#  stat_phase(n)    : write at time = stat_phase + multiple of |stat_freq|
(PID.TID 0000.0001) >#  stat_region(:,n) : list of "regions" (default: 1 region only=global)
(PID.TID 0000.0001) >#  stat_fields(:,n) : list of selected diagnostics fields (8.c) in outp.stream n
(PID.TID 0000.0001) >#                (see "available_diagnostics.log" file for the full list of diags)
(PID.TID 0000.0001) >#--------------------
(PID.TID 0000.0001) > &DIAG_STATIS_PARMS
(PID.TID 0000.0001) >#- an example just to check the agreement with MONITOR output:
(PID.TID 0000.0001) >#stat_fields(1:5,1)  = 'ETAN    ','UVEL    ','VVEL    ','WVEL    ', 'THETA   ',
(PID.TID 0000.0001) ># stat_fName(1) = 'dynStDiag',
(PID.TID 0000.0001) >#  stat_freq(1) = -864000.,
(PID.TID 0000.0001) ># stat_phase(1) = 0.,
(PID.TID 0000.0001) > /
(PID.TID 0000.0001) >
(PID.TID 0000.0001) 
(PID.TID 0000.0001) S/R DIAGNOSTICS_READPARMS, read namelist "diagnostics_list": start
(PID.TID 0000.0001) S/R DIAGNOSTICS_READPARMS, read namelist "diagnostics_list": OK
(PID.TID 0000.0001) S/R DIAGNOSTICS_READPARMS, read namelist "DIAG_STATIS_PARMS": start
(PID.TID 0000.0001) S/R DIAGNOSTICS_READPARMS, read namelist "DIAG_STATIS_PARMS": OK
(PID.TID 0000.0001) -----------------------------------------------------
(PID.TID 0000.0001)  DIAGNOSTICS_READPARMS: global parameter summary:
(PID.TID 0000.0001)  diag_dBugLevel = /* level of printed debug messages */
(PID.TID 0000.0001)                       1
(PID.TID 0000.0001)     ;
(PID.TID 0000.0001)  dumpAtLast = /* always write time-ave diags at the end */
(PID.TID 0000.0001)                   F
(PID.TID 0000.0001)     ;
(PID.TID 0000.0001)  diag_mnc =   /* write NetCDF output files */
(PID.TID 0000.0001)                   F
(PID.TID 0000.0001)     ;
(PID.TID 0000.0001)  useMissingValue = /* put MissingValue where mask = 0 */
(PID.TID 0000.0001)                   F
(PID.TID 0000.0001)     ;
(PID.TID 0000.0001)  diagCG_maxIters = /* max number of iters in diag_cg2d */
(PID.TID 0000.0001)                    1000
(PID.TID 0000.0001)     ;
(PID.TID 0000.0001)  diagCG_resTarget = /* residual target for diag_cg2d */
(PID.TID 0000.0001)                 1.000000000000000E-13
(PID.TID 0000.0001)     ;
(PID.TID 0000.0001)  diagCG_pcOffDFac = /* preconditioner off-diagonal factor */
(PID.TID 0000.0001)                 9.611687812379854E-01
(PID.TID 0000.0001)     ;
(PID.TID 0000.0001) -----------------------------------------------------
(PID.TID 0000.0001)  DIAGNOSTICS_READPARMS: active diagnostics summary:
(PID.TID 0000.0001) -----------------------------------------------------
(PID.TID 0000.0001) Creating Output Stream: blingTracDiag
(PID.TID 0000.0001) Output Frequency:     432000.000000 ; Phase:           0.000000
(PID.TID 0000.0001)  Averaging Freq.:     432000.000000 , Phase:           0.000000 , Cycle:   1
(PID.TID 0000.0001)  missing value: -9.990000000000E+02
(PID.TID 0000.0001)  Levels:    will be set later
(PID.TID 0000.0001)  Fields:    TRAC01   TRAC02   TRAC03   TRAC04   TRAC05   TRAC06   TRAC07   TRAC08
(PID.TID 0000.0001) Creating Output Stream: adjBlingTracDiag
(PID.TID 0000.0001) Output Frequency:     432000.000000 ; Phase:           0.000000
(PID.TID 0000.0001)  Averaging Freq.:     432000.000000 , Phase:           0.000000 , Cycle:   1
(PID.TID 0000.0001)  missing value: -9.990000000000E+02
(PID.TID 0000.0001)  Levels:    will be set later
(PID.TID 0000.0001)  Fields:    ADJptr01 ADJptr02 ADJptr03 ADJptr04 ADJptr05 ADJptr06 ADJptr07 ADJptr08
(PID.TID 0000.0001) -----------------------------------------------------
(PID.TID 0000.0001)  DIAGNOSTICS_READPARMS: statistics diags. summary:
(PID.TID 0000.0001) -----------------------------------------------------
(PID.TID 0000.0001) 
(PID.TID 0000.0001) SET_PARMS: done
(PID.TID 0000.0001) Enter INI_VERTICAL_GRID: setInterFDr=    T ; setCenterDr=    F
(PID.TID 0000.0001) %MON XC_max                       =   3.5859375000000E+02
(PID.TID 0000.0001) %MON XC_min                       =   1.4062500000000E+00
(PID.TID 0000.0001) %MON XC_mean                      =   1.8000000000000E+02
(PID.TID 0000.0001) %MON XC_sd                        =   1.0391987692599E+02
(PID.TID 0000.0001) %MON XG_max                       =   3.5718750000000E+02
(PID.TID 0000.0001) %MON XG_min                       =   0.0000000000000E+00
(PID.TID 0000.0001) %MON XG_mean                      =   1.7859375000000E+02
(PID.TID 0000.0001) %MON XG_sd                        =   1.0391987692599E+02
(PID.TID 0000.0001) %MON DXC_max                      =   3.1259246843155E+05
(PID.TID 0000.0001) %MON DXC_min                      =   7.6737143816223E+03
(PID.TID 0000.0001) %MON DXC_mean                     =   1.9908248704234E+05
(PID.TID 0000.0001) %MON DXC_sd                       =   9.6190602240067E+04
(PID.TID 0000.0001) %MON DXF_max                      =   3.1259246843155E+05
(PID.TID 0000.0001) %MON DXF_min                      =   7.6737143816223E+03
(PID.TID 0000.0001) %MON DXF_mean                     =   1.9908248704234E+05
(PID.TID 0000.0001) %MON DXF_sd                       =   9.6190602240067E+04
(PID.TID 0000.0001) %MON DXG_max                      =   3.1268664380261E+05
(PID.TID 0000.0001) %MON DXG_min                      =   0.0000000000000E+00
(PID.TID 0000.0001) %MON DXG_mean                     =   1.9902252711933E+05
(PID.TID 0000.0001) %MON DXG_sd                       =   9.6314600686012E+04
(PID.TID 0000.0001) %MON DXV_max                      =   3.1268664380261E+05
(PID.TID 0000.0001) %MON DXV_min                      =   0.0000000000000E+00
(PID.TID 0000.0001) %MON DXV_mean                     =   1.9902252711933E+05
(PID.TID 0000.0001) %MON DXV_sd                       =   9.6314600686012E+04
(PID.TID 0000.0001) %MON YC_max                       =   8.8593750000000E+01
(PID.TID 0000.0001) %MON YC_min                       =  -8.8593750000000E+01
(PID.TID 0000.0001) %MON YC_mean                      =   0.0000000000000E+00
(PID.TID 0000.0001) %MON YC_sd                        =   5.1955180880375E+01
(PID.TID 0000.0001) %MON YG_max                       =   8.7187500000000E+01
(PID.TID 0000.0001) %MON YG_min                       =  -9.0000000000000E+01
(PID.TID 0000.0001) %MON YG_mean                      =  -1.4062500000000E+00
(PID.TID 0000.0001) %MON YG_sd                        =   5.1955180880375E+01
(PID.TID 0000.0001) %MON DYC_max                      =   3.1268664380261E+05
(PID.TID 0000.0001) %MON DYC_min                      =   3.1268664380261E+05
(PID.TID 0000.0001) %MON DYC_mean                     =   3.1268664380260E+05
(PID.TID 0000.0001) %MON DYC_sd                       =   4.3655745685101E-09
(PID.TID 0000.0001) %MON DYF_max                      =   3.1268664380261E+05
(PID.TID 0000.0001) %MON DYF_min                      =   3.1268664380261E+05
(PID.TID 0000.0001) %MON DYF_mean                     =   3.1268664380260E+05
(PID.TID 0000.0001) %MON DYF_sd                       =   4.3655745685101E-09
(PID.TID 0000.0001) %MON DYG_max                      =   3.1268664380261E+05
(PID.TID 0000.0001) %MON DYG_min                      =   3.1268664380261E+05
(PID.TID 0000.0001) %MON DYG_mean                     =   3.1268664380260E+05
(PID.TID 0000.0001) %MON DYG_sd                       =   4.3655745685101E-09
(PID.TID 0000.0001) %MON DYU_max                      =   3.1268664380261E+05
(PID.TID 0000.0001) %MON DYU_min                      =   3.1268664380261E+05
(PID.TID 0000.0001) %MON DYU_mean                     =   3.1268664380260E+05
(PID.TID 0000.0001) %MON DYU_sd                       =   4.3655745685101E-09
(PID.TID 0000.0001) %MON RA_max                       =   9.7733676797555E+10
(PID.TID 0000.0001) %MON RA_min                       =   2.3992270990190E+09
(PID.TID 0000.0001) %MON RA_mean                      =   6.2244185031956E+10
(PID.TID 0000.0001) %MON RA_sd                        =   3.0074496923945E+10
(PID.TID 0000.0001) %MON RAW_max                      =   9.7733676797555E+10
(PID.TID 0000.0001) %MON RAW_min                      =   2.3992270990190E+09
(PID.TID 0000.0001) %MON RAW_mean                     =   6.2244185031956E+10
(PID.TID 0000.0001) %MON RAW_sd                       =   3.0074496923945E+10
(PID.TID 0000.0001) %MON RAS_max                      =   9.7763121221868E+10
(PID.TID 0000.0001) %MON RAS_min                      =   0.0000000000000E+00
(PID.TID 0000.0001) %MON RAS_mean                     =   6.2225438247155E+10
(PID.TID 0000.0001) %MON RAS_sd                       =   3.0113265689232E+10
(PID.TID 0000.0001) %MON RAZ_max                      =   9.7763121221868E+10
(PID.TID 0000.0001) %MON RAZ_min                      =   0.0000000000000E+00
(PID.TID 0000.0001) %MON RAZ_mean                     =   6.2225438247155E+10
(PID.TID 0000.0001) %MON RAZ_sd                       =   3.0113265689232E+10
(PID.TID 0000.0001) %MON AngleCS_max                  =   1.0000000000000E+00
(PID.TID 0000.0001) %MON AngleCS_min                  =   1.0000000000000E+00
(PID.TID 0000.0001) %MON AngleCS_mean                 =   1.0000000000000E+00
(PID.TID 0000.0001) %MON AngleCS_sd                   =   0.0000000000000E+00
(PID.TID 0000.0001) %MON AngleSN_max                  =   0.0000000000000E+00
(PID.TID 0000.0001) %MON AngleSN_min                  =   0.0000000000000E+00
(PID.TID 0000.0001) %MON AngleSN_mean                 =   0.0000000000000E+00
(PID.TID 0000.0001) %MON AngleSN_sd                   =   0.0000000000000E+00
(PID.TID 0000.0001) 
(PID.TID 0000.0001) // =======================================================
(PID.TID 0000.0001) // Calendar configuration >>> START <<<
(PID.TID 0000.0001) // =======================================================
(PID.TID 0000.0001) 
(PID.TID 0000.0001) modelstart = /* Start time of the model integration [s] */
(PID.TID 0000.0001)                 0.000000000000000E+00
(PID.TID 0000.0001)     ;
(PID.TID 0000.0001) modelend  = /* End time of the model integration [s] */
(PID.TID 0000.0001)                 3.600000000000000E+03
(PID.TID 0000.0001)     ;
(PID.TID 0000.0001) modelStep = /* Time interval for a model forward step [s] */
(PID.TID 0000.0001)                 9.000000000000000E+02
(PID.TID 0000.0001)     ;
(PID.TID 0000.0001) usingGregorianCalendar= /* Calendar Type: Gregorian Calendar */
(PID.TID 0000.0001)                   T
(PID.TID 0000.0001)     ;
(PID.TID 0000.0001) usingJulianCalendar = /* Calendar Type: Julian Calendar */
(PID.TID 0000.0001)                   F
(PID.TID 0000.0001)     ;
(PID.TID 0000.0001) usingNoLeapYearCal  = /* Calendar Type: without Leap Year */
(PID.TID 0000.0001)                   F
(PID.TID 0000.0001)     ;
(PID.TID 0000.0001) usingModelCalendar  = /* Calendar Type: Model Calendar */
(PID.TID 0000.0001)                   F
(PID.TID 0000.0001)     ;
(PID.TID 0000.0001) modelStartDate YYYYMMDD = /* Model start date YYYY-MM-DD */
(PID.TID 0000.0001)                20070101
(PID.TID 0000.0001)     ;
(PID.TID 0000.0001)   modelStartDate HHMMSS = /* Model start date HH-MM-SS  */
(PID.TID 0000.0001)                   21130
(PID.TID 0000.0001)     ;
(PID.TID 0000.0001) modelEndDate   YYYYMMDD = /* Model end date YYYY-MM-DD */
(PID.TID 0000.0001)                20070101
(PID.TID 0000.0001)     ;
(PID.TID 0000.0001)   modelEndDate   HHMMSS = /* Model end date HH-MM-SS  */
(PID.TID 0000.0001)                   31130
(PID.TID 0000.0001)     ;
(PID.TID 0000.0001) intyears = /* Number of calendar years affected by the integration */
(PID.TID 0000.0001)                       1
(PID.TID 0000.0001)     ;
(PID.TID 0000.0001) intmonths= /* Number of calendar months affected by the integration */
(PID.TID 0000.0001)                       1
(PID.TID 0000.0001)     ;
(PID.TID 0000.0001) intdays = /* Number of calendar days affected by the integration */
(PID.TID 0000.0001)                       1
(PID.TID 0000.0001)     ;
(PID.TID 0000.0001) modelIter0 = /* Base timestep number  */
(PID.TID 0000.0001)                       0
(PID.TID 0000.0001)     ;
(PID.TID 0000.0001) modelIterEnd = /* Final timestep number  */
(PID.TID 0000.0001)                       4
(PID.TID 0000.0001)     ;
(PID.TID 0000.0001) modelIntSteps= /* Number of model timesteps  */
(PID.TID 0000.0001)                       4
(PID.TID 0000.0001)     ;
(PID.TID 0000.0001) 
(PID.TID 0000.0001) // =======================================================
(PID.TID 0000.0001) // Calendar configuration  >>> END <<<
(PID.TID 0000.0001) // =======================================================
(PID.TID 0000.0001) 
(PID.TID 0000.0001) GAD_INIT_FIXED: GAD_OlMinSize=  1  0  1
(PID.TID 0000.0001) 
(PID.TID 0000.0001) // ===================================
(PID.TID 0000.0001) // GAD parameters :
(PID.TID 0000.0001) // ===================================
(PID.TID 0000.0001) tempAdvScheme =   /* Temp. Horiz.Advection scheme selector */
(PID.TID 0000.0001)                       2
(PID.TID 0000.0001)     ;
(PID.TID 0000.0001) tempVertAdvScheme =   /* Temp. Vert. Advection scheme selector */
(PID.TID 0000.0001)                       2
(PID.TID 0000.0001)     ;
(PID.TID 0000.0001) tempMultiDimAdvec =   /* use Muti-Dim Advec method for Temp */
(PID.TID 0000.0001)                   F
(PID.TID 0000.0001)     ;
(PID.TID 0000.0001) tempSOM_Advection = /* use 2nd Order Moment Advection for Temp */
(PID.TID 0000.0001)                   F
(PID.TID 0000.0001)     ;
(PID.TID 0000.0001) AdamsBashforthGt = /* apply Adams-Bashforth extrapolation on Gt */
(PID.TID 0000.0001)                   T
(PID.TID 0000.0001)     ;
(PID.TID 0000.0001) AdamsBashforth_T = /* apply Adams-Bashforth extrapolation on Temp */
(PID.TID 0000.0001)                   F
(PID.TID 0000.0001)     ;
(PID.TID 0000.0001) saltAdvScheme =   /* Salt. Horiz.advection scheme selector */
(PID.TID 0000.0001)                       2
(PID.TID 0000.0001)     ;
(PID.TID 0000.0001) saltVertAdvScheme =   /* Salt. Vert. Advection scheme selector */
(PID.TID 0000.0001)                       2
(PID.TID 0000.0001)     ;
(PID.TID 0000.0001) saltMultiDimAdvec =   /* use Muti-Dim Advec method for Salt */
(PID.TID 0000.0001)                   F
(PID.TID 0000.0001)     ;
(PID.TID 0000.0001) saltSOM_Advection = /* use 2nd Order Moment Advection for Salt */
(PID.TID 0000.0001)                   F
(PID.TID 0000.0001)     ;
(PID.TID 0000.0001) AdamsBashforthGs = /* apply Adams-Bashforth extrapolation on Gs */
(PID.TID 0000.0001)                   T
(PID.TID 0000.0001)     ;
(PID.TID 0000.0001) AdamsBashforth_S = /* apply Adams-Bashforth extrapolation on Salt */
(PID.TID 0000.0001)                   F
(PID.TID 0000.0001)     ;
(PID.TID 0000.0001) // ===================================
(PID.TID 0000.0001) 
(PID.TID 0000.0001) // =======================================================
(PID.TID 0000.0001) // External forcing (EXF) configuration >>> START <<<
(PID.TID 0000.0001) // =======================================================
(PID.TID 0000.0001) 
(PID.TID 0000.0001)  EXF general parameters:
(PID.TID 0000.0001) 
(PID.TID 0000.0001) exf_iprec = /* exf file precision */
(PID.TID 0000.0001)                      32
(PID.TID 0000.0001)     ;
(PID.TID 0000.0001) useExfYearlyFields = /* add extension _YEAR to input file names */
(PID.TID 0000.0001)                   T
(PID.TID 0000.0001)     ;
(PID.TID 0000.0001) twoDigitYear = /* use 2-digit year extension */
(PID.TID 0000.0001)                   F
(PID.TID 0000.0001)     ;
(PID.TID 0000.0001) useExfCheckRange = /* check for fields range */
(PID.TID 0000.0001)                   F
(PID.TID 0000.0001)     ;
(PID.TID 0000.0001) diags_opOceWeighted = /* weight flux diags by open-ocean fraction */
(PID.TID 0000.0001)                   F
(PID.TID 0000.0001)     ;
(PID.TID 0000.0001) exf_debugLev = /* select EXF-debug printing level */
(PID.TID 0000.0001)                       1
(PID.TID 0000.0001)     ;
(PID.TID 0000.0001) exf_monFreq  = /* EXF monitor frequency [ s ] */
(PID.TID 0000.0001)                 1.000000000000000E+00
(PID.TID 0000.0001)     ;
(PID.TID 0000.0001) exf_adjMonSelect = /* select group of exf AD-variables to monitor */
(PID.TID 0000.0001)                       1
(PID.TID 0000.0001)     ;
(PID.TID 0000.0001) repeatPeriod = /* period for cycling forcing dataset [ s ] */
(PID.TID 0000.0001)                 0.000000000000000E+00
(PID.TID 0000.0001)     ;
(PID.TID 0000.0001) climTempFreeze= /* Minimum climatological temperature [deg.C] */
(PID.TID 0000.0001)                -1.900000000000000E+00
(PID.TID 0000.0001)     ;
(PID.TID 0000.0001) windStressMax = /* Maximum absolute windstress [ Pa ] */
(PID.TID 0000.0001)                 2.000000000000000E+00
(PID.TID 0000.0001)     ;
(PID.TID 0000.0001) stressIsOnCgrid = /* set u,v_stress on Arakawa C-grid */
(PID.TID 0000.0001)                   F
(PID.TID 0000.0001)     ;
(PID.TID 0000.0001) rotateStressOnAgrid = /* rotate u,v_stress on Arakawa A-grid */
(PID.TID 0000.0001)                   F
(PID.TID 0000.0001)     ;
(PID.TID 0000.0001) cen2kel = /* conversion of deg. Centigrade to Kelvin [K] */
(PID.TID 0000.0001)                 2.731500000000000E+02
(PID.TID 0000.0001)     ;
(PID.TID 0000.0001) gravity_mks= /* gravitational acceleration [m/s^2] */
(PID.TID 0000.0001)                 9.810000000000000E+00
(PID.TID 0000.0001)     ;
(PID.TID 0000.0001) atmrho =  /* mean atmospheric density [kg/m^3] */
(PID.TID 0000.0001)                 1.200000000000000E+00
(PID.TID 0000.0001)     ;
(PID.TID 0000.0001) atmcp =  /* mean atmospheric specific heat [J/kg/K] */
(PID.TID 0000.0001)                 1.005000000000000E+03
(PID.TID 0000.0001)     ;
(PID.TID 0000.0001) flamb =  /* latent heat of evaporation [J/kg] */
(PID.TID 0000.0001)                 2.500000000000000E+06
(PID.TID 0000.0001)     ;
(PID.TID 0000.0001) flami =  /* latent heat of pure-ice melting [J/kg] */
(PID.TID 0000.0001)                 3.340000000000000E+05
(PID.TID 0000.0001)     ;
(PID.TID 0000.0001) cvapor_fac = /* const. for Saturation calculation [?] */
(PID.TID 0000.0001)                 6.403800000000000E+05
(PID.TID 0000.0001)     ;
(PID.TID 0000.0001) cvapor_exp = /* const. for Saturation calculation [?] */
(PID.TID 0000.0001)                 5.107400000000000E+03
(PID.TID 0000.0001)     ;
(PID.TID 0000.0001) cvapor_fac_ice= /* const. for Saturation calculation [?] */
(PID.TID 0000.0001)                 1.163780000000000E+07
(PID.TID 0000.0001)     ;
(PID.TID 0000.0001) cvapor_exp_ice= /* const. for Saturation calculation [?] */
(PID.TID 0000.0001)                 5.897800000000000E+03
(PID.TID 0000.0001)     ;
(PID.TID 0000.0001) humid_fac = /* humidity coef. in virtual temp. [(kg/kg)^-1] */
(PID.TID 0000.0001)                 6.060000000000000E-01
(PID.TID 0000.0001)     ;
(PID.TID 0000.0001) gamma_blk = /* adiabatic lapse rate [?] */
(PID.TID 0000.0001)                 1.000000000000000E-02
(PID.TID 0000.0001)     ;
(PID.TID 0000.0001) saltsat = /* reduction of Qsat over salty water [-] */
(PID.TID 0000.0001)                 9.800000000000000E-01
(PID.TID 0000.0001)     ;
(PID.TID 0000.0001) noNegativeEvap = /* prevent negative Evaporation */
(PID.TID 0000.0001)                   F
(PID.TID 0000.0001)     ;
(PID.TID 0000.0001) sstExtrapol = /* extrapolation coeff from lev. 1 & 2 to surf [-] */
(PID.TID 0000.0001)                 0.000000000000000E+00
(PID.TID 0000.0001)     ;
(PID.TID 0000.0001) cDrag_1 = /* coef used in drag calculation [m/s] */
(PID.TID 0000.0001)                 2.700000000000000E-03
(PID.TID 0000.0001)     ;
(PID.TID 0000.0001) cDrag_2 = /* coef used in drag calculation [-] */
(PID.TID 0000.0001)                 1.420000000000000E-04
(PID.TID 0000.0001)     ;
(PID.TID 0000.0001) cDrag_3 = /* coef used in drag calculation [s/m] */
(PID.TID 0000.0001)                 7.640000000000000E-05
(PID.TID 0000.0001)     ;
(PID.TID 0000.0001) cDrag_8 = /* coef used in drag calculation [(s/m)^6] */
(PID.TID 0000.0001)                 1.234567000000000E+05
(PID.TID 0000.0001)     ;
(PID.TID 0000.0001) cDragMax = /* maximum drag (Large and Yeager, 2009) [-] */
(PID.TID 0000.0001)                 1.234567000000000E+05
(PID.TID 0000.0001)     ;
(PID.TID 0000.0001) umax = /* at maximum wind (Large and Yeager, 2009) [m/s] */
(PID.TID 0000.0001)                 1.234567000000000E+05
(PID.TID 0000.0001)     ;
(PID.TID 0000.0001) cStanton_1 = /* coef used in Stanton number calculation [-] */
(PID.TID 0000.0001)                 3.270000000000000E-02
(PID.TID 0000.0001)     ;
(PID.TID 0000.0001) cStanton_2 = /* coef used in Stanton number calculation [-] */
(PID.TID 0000.0001)                 1.800000000000000E-02
(PID.TID 0000.0001)     ;
(PID.TID 0000.0001) cDalton = /* Dalton number [-] */
(PID.TID 0000.0001)                 3.460000000000000E-02
(PID.TID 0000.0001)     ;
(PID.TID 0000.0001) exf_scal_BulkCdn= /* Drag coefficient scaling factor [-] */
(PID.TID 0000.0001)                 1.000000000000000E+00
(PID.TID 0000.0001)     ;
(PID.TID 0000.0001) zolmin = /* minimum stability parameter [?] */
(PID.TID 0000.0001)                -1.000000000000000E+02
(PID.TID 0000.0001)     ;
(PID.TID 0000.0001) psim_fac = /* coef used in turbulent fluxes calculation [-] */
(PID.TID 0000.0001)                 5.000000000000000E+00
(PID.TID 0000.0001)     ;
(PID.TID 0000.0001) zref =  /* reference height [ m ] */
(PID.TID 0000.0001)                 1.000000000000000E+01
(PID.TID 0000.0001)     ;
(PID.TID 0000.0001) hu =  /* height of mean wind [ m ] */
(PID.TID 0000.0001)                 1.000000000000000E+01
(PID.TID 0000.0001)     ;
(PID.TID 0000.0001) ht =  /* height of mean temperature [ m ] */
(PID.TID 0000.0001)                 2.000000000000000E+00
(PID.TID 0000.0001)     ;
(PID.TID 0000.0001) hq =  /* height of mean spec.humidity [ m ] */
(PID.TID 0000.0001)                 2.000000000000000E+00
(PID.TID 0000.0001)     ;
(PID.TID 0000.0001) uMin = /* minimum wind speed [m/s] */
(PID.TID 0000.0001)                 5.000000000000000E-01
(PID.TID 0000.0001)     ;
(PID.TID 0000.0001) useStabilityFct_overIce= /* transfert Coeffs over sea-ice depend on stability */
(PID.TID 0000.0001)                   F
(PID.TID 0000.0001)     ;
(PID.TID 0000.0001) exf_iceCd = /* drag coefficient over sea-ice (fixed) [-] */
(PID.TID 0000.0001)                 1.630000000000000E-03
(PID.TID 0000.0001)     ;
(PID.TID 0000.0001) exf_iceCe = /* transfert coeff. over sea-ice, for Evap (fixed) [-] */
(PID.TID 0000.0001)                 1.630000000000000E-03
(PID.TID 0000.0001)     ;
(PID.TID 0000.0001) exf_iceCh = /* transfert coeff. over sea-ice, Sens.Heat.(fixed)[-] */
(PID.TID 0000.0001)                 1.630000000000000E-03
(PID.TID 0000.0001)     ;
(PID.TID 0000.0001) exf_albedo =  /* Sea-water albedo [-] */
(PID.TID 0000.0001)                 1.000000000000000E-01
(PID.TID 0000.0001)     ;
(PID.TID 0000.0001) useExfZenAlbedo = /* Sea-water albedo varies with zenith angle */
(PID.TID 0000.0001)                   F
(PID.TID 0000.0001)     ;
(PID.TID 0000.0001) select_ZenAlbedo = /* Sea-water albedo computation method */
(PID.TID 0000.0001)                       0
(PID.TID 0000.0001)     ;
(PID.TID 0000.0001) useExfZenIncoming = /* compute incoming solar radiation */
(PID.TID 0000.0001)                   F
(PID.TID 0000.0001)     ;
(PID.TID 0000.0001) ocean_emissivity = /* longwave ocean-surface emissivity [-] */
(PID.TID 0000.0001)                 9.700176366843034E-01
(PID.TID 0000.0001)     ;
(PID.TID 0000.0001) ice_emissivity = /* longwave seaice emissivity [-] */
(PID.TID 0000.0001)                 9.500000000000000E-01
(PID.TID 0000.0001)     ;
(PID.TID 0000.0001) snow_emissivity = /* longwave snow  emissivity [-] */
(PID.TID 0000.0001)                 9.500000000000000E-01
(PID.TID 0000.0001)     ;
(PID.TID 0000.0001) 
(PID.TID 0000.0001)  EXF main CPP flags:
(PID.TID 0000.0001) 
(PID.TID 0000.0001) // USE_EXF_INTERPOLATION:          NOT defined
(PID.TID 0000.0001) // ALLOW_ATM_TEMP:                     defined
(PID.TID 0000.0001) // ALLOW_ATM_WIND (useAtmWind):        defined
(PID.TID 0000.0001) // ALLOW_DOWNWARD_RADIATION:           defined
(PID.TID 0000.0001) // ALLOW_BULKFORMULAE:                 defined
(PID.TID 0000.0001) // ALLOW_READ_TURBFLUXES:          NOT defined
(PID.TID 0000.0001) // EXF_READ_EVAP:                  NOT defined
(PID.TID 0000.0001) // ALLOW_RUNOFF:                       defined
(PID.TID 0000.0001) // ALLOW_RUNOFTEMP:                NOT defined
(PID.TID 0000.0001) // ALLOW_SALTFLX:                      defined
(PID.TID 0000.0001) 
(PID.TID 0000.0001) // =======================================================
(PID.TID 0000.0001) // External forcing (EXF) climatology configuration :
(PID.TID 0000.0001) // =======================================================
(PID.TID 0000.0001) 
(PID.TID 0000.0001) // ALLOW_CLIMSST_RELAXATION:           defined
(PID.TID 0000.0001)    climsst relaxation is NOT used
(PID.TID 0000.0001) 
(PID.TID 0000.0001) // ALLOW_CLIMSSS_RELAXATION:           defined
(PID.TID 0000.0001)    climsss relaxation is NOT used
(PID.TID 0000.0001) 
(PID.TID 0000.0001) // =======================================================
(PID.TID 0000.0001) // External forcing (EXF) configuration  >>> END <<<
(PID.TID 0000.0001) // =======================================================
(PID.TID 0000.0001) 
(PID.TID 0000.0001) 
(PID.TID 0000.0001) // =======================================================
(PID.TID 0000.0001) // insitu profiles model sampling >>> START <<<
(PID.TID 0000.0001) // =======================================================
(PID.TID 0000.0001) 
(PID.TID 0000.0001) 
(PID.TID 0000.0001)   profilesDir ./
(PID.TID 0000.0001)   profilesDoGenGrid      F
(PID.TID 0000.0001)   profilesDoNcOutput     T
(PID.TID 0000.0001) 
(PID.TID 0000.0001) 
(PID.TID 0000.0001) profiles file #  1 is sample_prof
(PID.TID 0000.0001) NF_MESSAGE: PROFILES_INIT_FIXED: NF_INQ_DIMID iINTERP  1  1 NetCDF: Invalid dimension ID or name
(PID.TID 0000.0001) S/R PROFILES_INIT_FIXED: no iINTERP dim in data file using iINTERP = NUM_INTERP_POINTS =  4
(PID.TID 0000.0001)   current tile is bi,bj                      =   1,   1
(PID.TID 0000.0001)   # of depth levels in file                  =       25
(PID.TID 0000.0001)   # of profiles in file                      =       63
(PID.TID 0000.0001)   # of profiles with erroneous HHMMSS values =        0
(PID.TID 0000.0001)   # of profiles within tile and time period  =        0
(PID.TID 0000.0001)   variable #  1 is            prof_T and theta
(PID.TID 0000.0001)   variable #  2 is            prof_S and salt
(PID.TID 0000.0001) NF_MESSAGE: PROFILES_INIT_FIXED: NF_INQ_VARID prof_names = prof_U  1  1 NetCDF: Variable not found
(PID.TID 0000.0001) S/R PROFILES_INIT_FIXED: no prof_U, setting corresponding vec_quantities = F
(PID.TID 0000.0001) NF_MESSAGE: PROFILES_INIT_FIXED: NF_INQ_VARID prof_names = prof_V  1  1 NetCDF: Variable not found
(PID.TID 0000.0001) S/R PROFILES_INIT_FIXED: no prof_V, setting corresponding vec_quantities = F
(PID.TID 0000.0001) NF_MESSAGE: PROFILES_INIT_FIXED: NF_INQ_VARID prof_names = prof_ptr  1  1 NetCDF: Variable not found
(PID.TID 0000.0001) S/R PROFILES_INIT_FIXED: no prof_ptr, setting corresponding vec_quantities = F
(PID.TID 0000.0001) NF_MESSAGE: PROFILES_INIT_FIXED: NF_INQ_VARID prof_names = prof_ssh  1  1 NetCDF: Variable not found
(PID.TID 0000.0001) S/R PROFILES_INIT_FIXED: no prof_ssh, setting corresponding vec_quantities = F
(PID.TID 0000.0001) NF_MESSAGE: PROFILES_INIT_FIXED: NF_INQ_VARID prof_names = prof_DIC  1  1 NetCDF: Variable not found
(PID.TID 0000.0001) S/R PROFILES_INIT_FIXED: no prof_DIC, setting corresponding vec_quantities = F
(PID.TID 0000.0001) NF_MESSAGE: PROFILES_INIT_FIXED: NF_INQ_VARID prof_names = prof_ALK  1  1 NetCDF: Variable not found
(PID.TID 0000.0001) S/R PROFILES_INIT_FIXED: no prof_ALK, setting corresponding vec_quantities = F
(PID.TID 0000.0001) NF_MESSAGE: PROFILES_INIT_FIXED: NF_INQ_VARID prof_names = prof_O2  1  1 NetCDF: Variable not found
(PID.TID 0000.0001) S/R PROFILES_INIT_FIXED: no prof_O2, setting corresponding vec_quantities = F
(PID.TID 0000.0001) NF_MESSAGE: PROFILES_INIT_FIXED: NF_INQ_VARID prof_names = prof_NO3  1  1 NetCDF: Variable not found
(PID.TID 0000.0001) S/R PROFILES_INIT_FIXED: no prof_NO3, setting corresponding vec_quantities = F
(PID.TID 0000.0001) NF_MESSAGE: PROFILES_INIT_FIXED: NF_INQ_VARID prof_names = prof_PO4  1  1 NetCDF: Variable not found
(PID.TID 0000.0001) S/R PROFILES_INIT_FIXED: no prof_PO4, setting corresponding vec_quantities = F
(PID.TID 0000.0001) NF_MESSAGE: PROFILES_INIT_FIXED: NF_INQ_VARID prof_names = prof_FE  1  1 NetCDF: Variable not found
(PID.TID 0000.0001) S/R PROFILES_INIT_FIXED: no prof_FE, setting corresponding vec_quantities = F
(PID.TID 0000.0001) NF_MESSAGE: PROFILES_INIT_FIXED: NF_INQ_VARID prof_names = prof_PCO  1  1 NetCDF: Variable not found
(PID.TID 0000.0001) S/R PROFILES_INIT_FIXED: no prof_PCO, setting corresponding vec_quantities = F
(PID.TID 0000.0001)   variable # 14 is            prof_PH and PH
(PID.TID 0000.0001) NF_MESSAGE: PROFILES_INIT_FIXED: NF_INQ_VARID prof_names = prof_CHL  1  1 NetCDF: Variable not found
(PID.TID 0000.0001) S/R PROFILES_INIT_FIXED: no prof_CHL, setting corresponding vec_quantities = F
(PID.TID 0000.0001) NF_MESSAGE: PROFILES_INIT_FIXED: NF_INQ_VARID prof_names = prof_POC  1  1 NetCDF: Variable not found
(PID.TID 0000.0001) S/R PROFILES_INIT_FIXED: no prof_POC, setting corresponding vec_quantities = F
(PID.TID 0000.0001) 
(PID.TID 0000.0001) profiles file #  1 is sample_prof
(PID.TID 0000.0001) NF_MESSAGE: PROFILES_INIT_FIXED: NF_INQ_DIMID iINTERP  2  1 NetCDF: Invalid dimension ID or name
(PID.TID 0000.0001) S/R PROFILES_INIT_FIXED: no iINTERP dim in data file using iINTERP = NUM_INTERP_POINTS =  4
(PID.TID 0000.0001)   current tile is bi,bj                      =   2,   1
(PID.TID 0000.0001)   # of depth levels in file                  =       25
(PID.TID 0000.0001)   # of profiles in file                      =       63
(PID.TID 0000.0001)   # of profiles with erroneous HHMMSS values =        0
(PID.TID 0000.0001)   # of profiles within tile and time period  =        1
(PID.TID 0000.0001)   variable #  1 is            prof_T and theta
(PID.TID 0000.0001)   variable #  2 is            prof_S and salt
(PID.TID 0000.0001) NF_MESSAGE: PROFILES_INIT_FIXED: NF_INQ_VARID prof_names = prof_U  2  1 NetCDF: Variable not found
(PID.TID 0000.0001) S/R PROFILES_INIT_FIXED: no prof_U, setting corresponding vec_quantities = F
(PID.TID 0000.0001) NF_MESSAGE: PROFILES_INIT_FIXED: NF_INQ_VARID prof_names = prof_V  2  1 NetCDF: Variable not found
(PID.TID 0000.0001) S/R PROFILES_INIT_FIXED: no prof_V, setting corresponding vec_quantities = F
(PID.TID 0000.0001) NF_MESSAGE: PROFILES_INIT_FIXED: NF_INQ_VARID prof_names = prof_ptr  2  1 NetCDF: Variable not found
(PID.TID 0000.0001) S/R PROFILES_INIT_FIXED: no prof_ptr, setting corresponding vec_quantities = F
(PID.TID 0000.0001) NF_MESSAGE: PROFILES_INIT_FIXED: NF_INQ_VARID prof_names = prof_ssh  2  1 NetCDF: Variable not found
(PID.TID 0000.0001) S/R PROFILES_INIT_FIXED: no prof_ssh, setting corresponding vec_quantities = F
(PID.TID 0000.0001) NF_MESSAGE: PROFILES_INIT_FIXED: NF_INQ_VARID prof_names = prof_DIC  2  1 NetCDF: Variable not found
(PID.TID 0000.0001) S/R PROFILES_INIT_FIXED: no prof_DIC, setting corresponding vec_quantities = F
(PID.TID 0000.0001) NF_MESSAGE: PROFILES_INIT_FIXED: NF_INQ_VARID prof_names = prof_ALK  2  1 NetCDF: Variable not found
(PID.TID 0000.0001) S/R PROFILES_INIT_FIXED: no prof_ALK, setting corresponding vec_quantities = F
(PID.TID 0000.0001) NF_MESSAGE: PROFILES_INIT_FIXED: NF_INQ_VARID prof_names = prof_O2  2  1 NetCDF: Variable not found
(PID.TID 0000.0001) S/R PROFILES_INIT_FIXED: no prof_O2, setting corresponding vec_quantities = F
(PID.TID 0000.0001) NF_MESSAGE: PROFILES_INIT_FIXED: NF_INQ_VARID prof_names = prof_NO3  2  1 NetCDF: Variable not found
(PID.TID 0000.0001) S/R PROFILES_INIT_FIXED: no prof_NO3, setting corresponding vec_quantities = F
(PID.TID 0000.0001) NF_MESSAGE: PROFILES_INIT_FIXED: NF_INQ_VARID prof_names = prof_PO4  2  1 NetCDF: Variable not found
(PID.TID 0000.0001) S/R PROFILES_INIT_FIXED: no prof_PO4, setting corresponding vec_quantities = F
(PID.TID 0000.0001) NF_MESSAGE: PROFILES_INIT_FIXED: NF_INQ_VARID prof_names = prof_FE  2  1 NetCDF: Variable not found
(PID.TID 0000.0001) S/R PROFILES_INIT_FIXED: no prof_FE, setting corresponding vec_quantities = F
(PID.TID 0000.0001) NF_MESSAGE: PROFILES_INIT_FIXED: NF_INQ_VARID prof_names = prof_PCO  2  1 NetCDF: Variable not found
(PID.TID 0000.0001) S/R PROFILES_INIT_FIXED: no prof_PCO, setting corresponding vec_quantities = F
(PID.TID 0000.0001)   variable # 14 is            prof_PH and PH
(PID.TID 0000.0001) NF_MESSAGE: PROFILES_INIT_FIXED: NF_INQ_VARID prof_names = prof_CHL  2  1 NetCDF: Variable not found
(PID.TID 0000.0001) S/R PROFILES_INIT_FIXED: no prof_CHL, setting corresponding vec_quantities = F
(PID.TID 0000.0001) NF_MESSAGE: PROFILES_INIT_FIXED: NF_INQ_VARID prof_names = prof_POC  2  1 NetCDF: Variable not found
(PID.TID 0000.0001) S/R PROFILES_INIT_FIXED: no prof_POC, setting corresponding vec_quantities = F
(PID.TID 0000.0001) 
(PID.TID 0000.0001) profiles file #  1 is sample_prof
(PID.TID 0000.0001) NF_MESSAGE: PROFILES_INIT_FIXED: NF_INQ_DIMID iINTERP  1  2 NetCDF: Invalid dimension ID or name
(PID.TID 0000.0001) S/R PROFILES_INIT_FIXED: no iINTERP dim in data file using iINTERP = NUM_INTERP_POINTS =  4
(PID.TID 0000.0001)   current tile is bi,bj                      =   1,   2
(PID.TID 0000.0001)   # of depth levels in file                  =       25
(PID.TID 0000.0001)   # of profiles in file                      =       63
(PID.TID 0000.0001)   # of profiles with erroneous HHMMSS values =        0
(PID.TID 0000.0001)   # of profiles within tile and time period  =        0
(PID.TID 0000.0001)   variable #  1 is            prof_T and theta
(PID.TID 0000.0001)   variable #  2 is            prof_S and salt
(PID.TID 0000.0001) NF_MESSAGE: PROFILES_INIT_FIXED: NF_INQ_VARID prof_names = prof_U  1  2 NetCDF: Variable not found
(PID.TID 0000.0001) S/R PROFILES_INIT_FIXED: no prof_U, setting corresponding vec_quantities = F
(PID.TID 0000.0001) NF_MESSAGE: PROFILES_INIT_FIXED: NF_INQ_VARID prof_names = prof_V  1  2 NetCDF: Variable not found
(PID.TID 0000.0001) S/R PROFILES_INIT_FIXED: no prof_V, setting corresponding vec_quantities = F
(PID.TID 0000.0001) NF_MESSAGE: PROFILES_INIT_FIXED: NF_INQ_VARID prof_names = prof_ptr  1  2 NetCDF: Variable not found
(PID.TID 0000.0001) S/R PROFILES_INIT_FIXED: no prof_ptr, setting corresponding vec_quantities = F
(PID.TID 0000.0001) NF_MESSAGE: PROFILES_INIT_FIXED: NF_INQ_VARID prof_names = prof_ssh  1  2 NetCDF: Variable not found
(PID.TID 0000.0001) S/R PROFILES_INIT_FIXED: no prof_ssh, setting corresponding vec_quantities = F
(PID.TID 0000.0001) NF_MESSAGE: PROFILES_INIT_FIXED: NF_INQ_VARID prof_names = prof_DIC  1  2 NetCDF: Variable not found
(PID.TID 0000.0001) S/R PROFILES_INIT_FIXED: no prof_DIC, setting corresponding vec_quantities = F
(PID.TID 0000.0001) NF_MESSAGE: PROFILES_INIT_FIXED: NF_INQ_VARID prof_names = prof_ALK  1  2 NetCDF: Variable not found
(PID.TID 0000.0001) S/R PROFILES_INIT_FIXED: no prof_ALK, setting corresponding vec_quantities = F
(PID.TID 0000.0001) NF_MESSAGE: PROFILES_INIT_FIXED: NF_INQ_VARID prof_names = prof_O2  1  2 NetCDF: Variable not found
(PID.TID 0000.0001) S/R PROFILES_INIT_FIXED: no prof_O2, setting corresponding vec_quantities = F
(PID.TID 0000.0001) NF_MESSAGE: PROFILES_INIT_FIXED: NF_INQ_VARID prof_names = prof_NO3  1  2 NetCDF: Variable not found
(PID.TID 0000.0001) S/R PROFILES_INIT_FIXED: no prof_NO3, setting corresponding vec_quantities = F
(PID.TID 0000.0001) NF_MESSAGE: PROFILES_INIT_FIXED: NF_INQ_VARID prof_names = prof_PO4  1  2 NetCDF: Variable not found
(PID.TID 0000.0001) S/R PROFILES_INIT_FIXED: no prof_PO4, setting corresponding vec_quantities = F
(PID.TID 0000.0001) NF_MESSAGE: PROFILES_INIT_FIXED: NF_INQ_VARID prof_names = prof_FE  1  2 NetCDF: Variable not found
(PID.TID 0000.0001) S/R PROFILES_INIT_FIXED: no prof_FE, setting corresponding vec_quantities = F
(PID.TID 0000.0001) NF_MESSAGE: PROFILES_INIT_FIXED: NF_INQ_VARID prof_names = prof_PCO  1  2 NetCDF: Variable not found
(PID.TID 0000.0001) S/R PROFILES_INIT_FIXED: no prof_PCO, setting corresponding vec_quantities = F
(PID.TID 0000.0001)   variable # 14 is            prof_PH and PH
(PID.TID 0000.0001) NF_MESSAGE: PROFILES_INIT_FIXED: NF_INQ_VARID prof_names = prof_CHL  1  2 NetCDF: Variable not found
(PID.TID 0000.0001) S/R PROFILES_INIT_FIXED: no prof_CHL, setting corresponding vec_quantities = F
(PID.TID 0000.0001) NF_MESSAGE: PROFILES_INIT_FIXED: NF_INQ_VARID prof_names = prof_POC  1  2 NetCDF: Variable not found
(PID.TID 0000.0001) S/R PROFILES_INIT_FIXED: no prof_POC, setting corresponding vec_quantities = F
(PID.TID 0000.0001) 
(PID.TID 0000.0001) profiles file #  1 is sample_prof
(PID.TID 0000.0001) NF_MESSAGE: PROFILES_INIT_FIXED: NF_INQ_DIMID iINTERP  2  2 NetCDF: Invalid dimension ID or name
(PID.TID 0000.0001) S/R PROFILES_INIT_FIXED: no iINTERP dim in data file using iINTERP = NUM_INTERP_POINTS =  4
(PID.TID 0000.0001)   current tile is bi,bj                      =   2,   2
(PID.TID 0000.0001)   # of depth levels in file                  =       25
(PID.TID 0000.0001)   # of profiles in file                      =       63
(PID.TID 0000.0001)   # of profiles with erroneous HHMMSS values =        0
(PID.TID 0000.0001)   # of profiles within tile and time period  =        0
(PID.TID 0000.0001)   variable #  1 is            prof_T and theta
(PID.TID 0000.0001)   variable #  2 is            prof_S and salt
(PID.TID 0000.0001) NF_MESSAGE: PROFILES_INIT_FIXED: NF_INQ_VARID prof_names = prof_U  2  2 NetCDF: Variable not found
(PID.TID 0000.0001) S/R PROFILES_INIT_FIXED: no prof_U, setting corresponding vec_quantities = F
(PID.TID 0000.0001) NF_MESSAGE: PROFILES_INIT_FIXED: NF_INQ_VARID prof_names = prof_V  2  2 NetCDF: Variable not found
(PID.TID 0000.0001) S/R PROFILES_INIT_FIXED: no prof_V, setting corresponding vec_quantities = F
(PID.TID 0000.0001) NF_MESSAGE: PROFILES_INIT_FIXED: NF_INQ_VARID prof_names = prof_ptr  2  2 NetCDF: Variable not found
(PID.TID 0000.0001) S/R PROFILES_INIT_FIXED: no prof_ptr, setting corresponding vec_quantities = F
(PID.TID 0000.0001) NF_MESSAGE: PROFILES_INIT_FIXED: NF_INQ_VARID prof_names = prof_ssh  2  2 NetCDF: Variable not found
(PID.TID 0000.0001) S/R PROFILES_INIT_FIXED: no prof_ssh, setting corresponding vec_quantities = F
(PID.TID 0000.0001) NF_MESSAGE: PROFILES_INIT_FIXED: NF_INQ_VARID prof_names = prof_DIC  2  2 NetCDF: Variable not found
(PID.TID 0000.0001) S/R PROFILES_INIT_FIXED: no prof_DIC, setting corresponding vec_quantities = F
(PID.TID 0000.0001) NF_MESSAGE: PROFILES_INIT_FIXED: NF_INQ_VARID prof_names = prof_ALK  2  2 NetCDF: Variable not found
(PID.TID 0000.0001) S/R PROFILES_INIT_FIXED: no prof_ALK, setting corresponding vec_quantities = F
(PID.TID 0000.0001) NF_MESSAGE: PROFILES_INIT_FIXED: NF_INQ_VARID prof_names = prof_O2  2  2 NetCDF: Variable not found
(PID.TID 0000.0001) S/R PROFILES_INIT_FIXED: no prof_O2, setting corresponding vec_quantities = F
(PID.TID 0000.0001) NF_MESSAGE: PROFILES_INIT_FIXED: NF_INQ_VARID prof_names = prof_NO3  2  2 NetCDF: Variable not found
(PID.TID 0000.0001) S/R PROFILES_INIT_FIXED: no prof_NO3, setting corresponding vec_quantities = F
(PID.TID 0000.0001) NF_MESSAGE: PROFILES_INIT_FIXED: NF_INQ_VARID prof_names = prof_PO4  2  2 NetCDF: Variable not found
(PID.TID 0000.0001) S/R PROFILES_INIT_FIXED: no prof_PO4, setting corresponding vec_quantities = F
(PID.TID 0000.0001) NF_MESSAGE: PROFILES_INIT_FIXED: NF_INQ_VARID prof_names = prof_FE  2  2 NetCDF: Variable not found
(PID.TID 0000.0001) S/R PROFILES_INIT_FIXED: no prof_FE, setting corresponding vec_quantities = F
(PID.TID 0000.0001) NF_MESSAGE: PROFILES_INIT_FIXED: NF_INQ_VARID prof_names = prof_PCO  2  2 NetCDF: Variable not found
(PID.TID 0000.0001) S/R PROFILES_INIT_FIXED: no prof_PCO, setting corresponding vec_quantities = F
(PID.TID 0000.0001)   variable # 14 is            prof_PH and PH
(PID.TID 0000.0001) NF_MESSAGE: PROFILES_INIT_FIXED: NF_INQ_VARID prof_names = prof_CHL  2  2 NetCDF: Variable not found
(PID.TID 0000.0001) S/R PROFILES_INIT_FIXED: no prof_CHL, setting corresponding vec_quantities = F
(PID.TID 0000.0001) NF_MESSAGE: PROFILES_INIT_FIXED: NF_INQ_VARID prof_names = prof_POC  2  2 NetCDF: Variable not found
(PID.TID 0000.0001) S/R PROFILES_INIT_FIXED: no prof_POC, setting corresponding vec_quantities = F
(PID.TID 0000.0001) 
(PID.TID 0000.0001) // =======================================================
(PID.TID 0000.0001) // insitu profiles model sampling >>> END <<<
(PID.TID 0000.0001) // =======================================================
(PID.TID 0000.0001) 
(PID.TID 0000.0001) PTRACERS_INIT_FIXED: updated GAD_OlMinSize=  2  0  1
(PID.TID 0000.0001) CTRL_INIT_FIXED: ivar=   8 = number of CTRL variables defined
(PID.TID 0000.0001) 
(PID.TID 0000.0001) ctrl-wet 1:    nvarlength =       445384
(PID.TID 0000.0001) ctrl-wet 2: surface wet C =         1300
(PID.TID 0000.0001) ctrl-wet 3: surface wet W =         1246
(PID.TID 0000.0001) ctrl-wet 4: surface wet S =         1205
(PID.TID 0000.0001) ctrl-wet 5: 3D wet points =        16159
(PID.TID 0000.0001) ctrl-wet 6: no recs for ivar =     1           1
(PID.TID 0000.0001) ctrl-wet 6: no recs for ivar =     2           1
(PID.TID 0000.0001) ctrl-wet 6: no recs for ivar =     3           1
(PID.TID 0000.0001) ctrl-wet 6: no recs for ivar =     4           1
(PID.TID 0000.0001) ctrl-wet 6: no recs for ivar =     5           1
(PID.TID 0000.0001) ctrl-wet 6: no recs for ivar =     6           1
(PID.TID 0000.0001) ctrl-wet 6: no recs for ivar =     7           1
(PID.TID 0000.0001) ctrl-wet 6: no recs for ivar =     8           1
(PID.TID 0000.0001) ctrl-wet 6: no recs for ivar =     9           0
(PID.TID 0000.0001) ctrl-wet 6: no recs for ivar =    10           0
(PID.TID 0000.0001) ctrl-wet -------------------------------------------------
(PID.TID 0000.0001) ctrl-wet 13: global nvarlength for Nr =   15      445384
(PID.TID 0000.0001) ctrl-wet -------------------------------------------------
(PID.TID 0000.0001) ctrl-wet 14: global nWet C/S/W k=    1        4447        4201        4277
(PID.TID 0000.0001) ctrl-wet 14: global nWet C/S/W k=    2        4399        4158        4229
(PID.TID 0000.0001) ctrl-wet 14: global nWet C/S/W k=    3        4352        4111        4178
(PID.TID 0000.0001) ctrl-wet 14: global nWet C/S/W k=    4        4282        4046        4108
(PID.TID 0000.0001) ctrl-wet 14: global nWet C/S/W k=    5        4220        3992        4050
(PID.TID 0000.0001) ctrl-wet 14: global nWet C/S/W k=    6        4125        3897        3960
(PID.TID 0000.0001) ctrl-wet 14: global nWet C/S/W k=    7        4075        3846        3907
(PID.TID 0000.0001) ctrl-wet 14: global nWet C/S/W k=    8        4021        3785        3851
(PID.TID 0000.0001) ctrl-wet 14: global nWet C/S/W k=    9        3970        3730        3801
(PID.TID 0000.0001) ctrl-wet 14: global nWet C/S/W k=   10        3878        3629        3692
(PID.TID 0000.0001) ctrl-wet 14: global nWet C/S/W k=   11        3763        3505        3562
(PID.TID 0000.0001) ctrl-wet 14: global nWet C/S/W k=   12        3557        3269        3332
(PID.TID 0000.0001) ctrl-wet 14: global nWet C/S/W k=   13        3091        2747        2809
(PID.TID 0000.0001) ctrl-wet 14: global nWet C/S/W k=   14        2428        2071        2146
(PID.TID 0000.0001) ctrl-wet 14: global nWet C/S/W k=   15        1065         813         874
(PID.TID 0000.0001) ctrl-wet -------------------------------------------------
(PID.TID 0000.0001) ctrl_init_wet: no. of control variables:            8
(PID.TID 0000.0001) ctrl_init_wet: control vector length:          445384
(PID.TID 0000.0001) 
(PID.TID 0000.0001) // =======================================================
(PID.TID 0000.0001) // control vector configuration  >>> START <<<
(PID.TID 0000.0001) // =======================================================
(PID.TID 0000.0001) 
(PID.TID 0000.0001)  Total number of ocean points per tile:
(PID.TID 0000.0001)  --------------------------------------
(PID.TID 0000.0001)  sNx*sNy*Nr =    30720
(PID.TID 0000.0001) 
(PID.TID 0000.0001)  Number of ocean points per tile:
(PID.TID 0000.0001)  --------------------------------
(PID.TID 0000.0001)  bi,bj,#(c/s/w): 001 001   16159   14603   15209
(PID.TID 0000.0001)  bi,bj,#(c/s/w): 002 001   19716   18428   19084
(PID.TID 0000.0001)  bi,bj,#(c/s/w): 001 002    6646    6264    5997
(PID.TID 0000.0001)  bi,bj,#(c/s/w): 002 002   13152   12505   12486
(PID.TID 0000.0001) 
(PID.TID 0000.0001)  -> 3d control, genarr3d no.  1 is in use
(PID.TID 0000.0001)       file       = xx_theta
(PID.TID 0000.0001)       ncvartype  = Arr3D
(PID.TID 0000.0001)       index      =     1  (use this for pkg/grdchk)
(PID.TID 0000.0001)       ncvarindex =     1
(PID.TID 0000.0001)       weight     = ones_32b.bin
(PID.TID 0000.0001) 
(PID.TID 0000.0001)  -> 3d control, genarr3d no.  2 is in use
(PID.TID 0000.0001)       file       = xx_salt
(PID.TID 0000.0001)       ncvartype  = Arr3D
(PID.TID 0000.0001)       index      =     2  (use this for pkg/grdchk)
(PID.TID 0000.0001)       ncvarindex =     2
(PID.TID 0000.0001)       weight     = ones_32b.bin
(PID.TID 0000.0001) 
(PID.TID 0000.0001)  -> 3d control, genarr3d no.  3 is in use
(PID.TID 0000.0001)       file       = xx_ptr1
(PID.TID 0000.0001)       ncvartype  = Arr3D
(PID.TID 0000.0001)       index      =     3  (use this for pkg/grdchk)
(PID.TID 0000.0001)       ncvarindex =     3
(PID.TID 0000.0001)       weight     = ones_32b.bin
(PID.TID 0000.0001) 
(PID.TID 0000.0001)  -> 3d control, genarr3d no.  4 is in use
(PID.TID 0000.0001)       file       = xx_ptr2
(PID.TID 0000.0001)       ncvartype  = Arr3D
(PID.TID 0000.0001)       index      =     4  (use this for pkg/grdchk)
(PID.TID 0000.0001)       ncvarindex =     4
(PID.TID 0000.0001)       weight     = ones_32b.bin
(PID.TID 0000.0001) 
(PID.TID 0000.0001)  -> 3d control, genarr3d no.  5 is in use
(PID.TID 0000.0001)       file       = xx_ptr3
(PID.TID 0000.0001)       ncvartype  = Arr3D
(PID.TID 0000.0001)       index      =     5  (use this for pkg/grdchk)
(PID.TID 0000.0001)       ncvarindex =     5
(PID.TID 0000.0001)       weight     = ones_32b.bin
(PID.TID 0000.0001) 
(PID.TID 0000.0001)  -> 3d control, genarr3d no.  6 is in use
(PID.TID 0000.0001)       file       = xx_ptr4
(PID.TID 0000.0001)       ncvartype  = Arr3D
(PID.TID 0000.0001)       index      =     6  (use this for pkg/grdchk)
(PID.TID 0000.0001)       ncvarindex =     6
(PID.TID 0000.0001)       weight     = ones_32b.bin
(PID.TID 0000.0001) 
(PID.TID 0000.0001)  -> 3d control, genarr3d no.  7 is in use
(PID.TID 0000.0001)       file       = xx_ptr5
(PID.TID 0000.0001)       ncvartype  = Arr3D
(PID.TID 0000.0001)       index      =     7  (use this for pkg/grdchk)
(PID.TID 0000.0001)       ncvarindex =     7
(PID.TID 0000.0001)       weight     = ones_32b.bin
(PID.TID 0000.0001) 
(PID.TID 0000.0001)  -> 3d control, genarr3d no.  8 is in use
(PID.TID 0000.0001)       file       = xx_ptr6
(PID.TID 0000.0001)       ncvartype  = Arr3D
(PID.TID 0000.0001)       index      =     8  (use this for pkg/grdchk)
(PID.TID 0000.0001)       ncvarindex =     8
(PID.TID 0000.0001)       weight     = ones_32b.bin
(PID.TID 0000.0001) 
(PID.TID 0000.0001) // =======================================================
(PID.TID 0000.0001) // control vector configuration  >>> END <<<
(PID.TID 0000.0001) // =======================================================
(PID.TID 0000.0001) 
(PID.TID 0000.0001) ------------------------------------------------------------
(PID.TID 0000.0001) DIAGNOSTICS_SET_LEVELS: done
(PID.TID 0000.0001)  Total Nb of available Diagnostics: ndiagt=   478
(PID.TID 0000.0001)  write list of available Diagnostics to file: available_diagnostics.log
(PID.TID 0000.0001) SETDIAG: Allocate 15 x  1 Levels for Diagnostic #   277 TRAC01
(PID.TID 0000.0001) SETDIAG: Allocate 15 x  1 Levels for Diagnostic #   292 TRAC02
(PID.TID 0000.0001) SETDIAG: Allocate 15 x  1 Levels for Diagnostic #   307 TRAC03
(PID.TID 0000.0001) SETDIAG: Allocate 15 x  1 Levels for Diagnostic #   322 TRAC04
(PID.TID 0000.0001) SETDIAG: Allocate 15 x  1 Levels for Diagnostic #   337 TRAC05
(PID.TID 0000.0001) SETDIAG: Allocate 15 x  1 Levels for Diagnostic #   352 TRAC06
(PID.TID 0000.0001) SETDIAG: Allocate 15 x  1 Levels for Diagnostic #   367 TRAC07
(PID.TID 0000.0001) SETDIAG: Allocate 15 x  1 Levels for Diagnostic #   382 TRAC08
(PID.TID 0000.0001) SETDIAG: Allocate 15 x  1 Levels for Diagnostic #   291 ADJptr01
(PID.TID 0000.0001) SETDIAG: Allocate 15 x  1 Levels for Diagnostic #   306 ADJptr02
(PID.TID 0000.0001) SETDIAG: Allocate 15 x  1 Levels for Diagnostic #   321 ADJptr03
(PID.TID 0000.0001) SETDIAG: Allocate 15 x  1 Levels for Diagnostic #   336 ADJptr04
(PID.TID 0000.0001) SETDIAG: Allocate 15 x  1 Levels for Diagnostic #   351 ADJptr05
(PID.TID 0000.0001) SETDIAG: Allocate 15 x  1 Levels for Diagnostic #   366 ADJptr06
(PID.TID 0000.0001) SETDIAG: Allocate 15 x  1 Levels for Diagnostic #   381 ADJptr07
(PID.TID 0000.0001) SETDIAG: Allocate 15 x  1 Levels for Diagnostic #   396 ADJptr08
(PID.TID 0000.0001)   space allocated for all diagnostics:     240 levels
(PID.TID 0000.0001) DIAGNOSTICS_SET_POINTERS: Set levels for Outp.Stream: blingTracDiag
(PID.TID 0000.0001)  Levels:       1.   2.   3.   4.   5.   6.   7.   8.   9.  10.  11.  12.  13.  14.  15.
(PID.TID 0000.0001) DIAGNOSTICS_SET_POINTERS: Set levels for Outp.Stream: adjBlingTracDiag
(PID.TID 0000.0001)  Levels:       1.   2.   3.   4.   5.   6.   7.   8.   9.  10.  11.  12.  13.  14.  15.
(PID.TID 0000.0001) DIAGNOSTICS_SET_POINTERS: done, use     240 levels (numDiags =     240 )
(PID.TID 0000.0001) ------------------------------------------------------------
(PID.TID 0000.0001) DIAGSTATS_SET_REGIONS: define no region
(PID.TID 0000.0001) ------------------------------------------------------------
(PID.TID 0000.0001)   space allocated for all stats-diags:       0 levels
(PID.TID 0000.0001) DIAGSTATS_SET_POINTERS: done, use       0 levels (diagSt_size=     150 )
(PID.TID 0000.0001) ------------------------------------------------------------
(PID.TID 0000.0001) %MON fCori_max                    =   1.4579854531444E-04
(PID.TID 0000.0001) %MON fCori_min                    =  -1.4579854531444E-04
(PID.TID 0000.0001) %MON fCori_mean                   =   2.3039296165317E-19
(PID.TID 0000.0001) %MON fCori_sd                     =   1.0312619976228E-04
(PID.TID 0000.0001) %MON fCoriG_max                   =   1.4566679669714E-04
(PID.TID 0000.0001) %MON fCoriG_min                   =  -1.4584247033981E-04
(PID.TID 0000.0001) %MON fCoriG_mean                  =  -2.2787885990593E-06
(PID.TID 0000.0001) %MON fCoriG_sd                    =   1.0310101939326E-04
(PID.TID 0000.0001) %MON fCoriCos_max                 =   1.4579854531444E-04
(PID.TID 0000.0001) %MON fCoriCos_min                 =   3.5791533929553E-06
(PID.TID 0000.0001) %MON fCoriCos_mean                =   9.2855522572229E-05
(PID.TID 0000.0001) %MON fCoriCos_sd                  =   4.4864964117307E-05
(PID.TID 0000.0001) INI_CG2D: CG2D normalisation factor =  7.0372759228205380E-05
(PID.TID 0000.0001) 
(PID.TID 0000.0001) // =======================================================
(PID.TID 0000.0001) // Model configuration
(PID.TID 0000.0001) // =======================================================
(PID.TID 0000.0001) //
(PID.TID 0000.0001) // "Physical" paramters ( PARM01 in namelist )
(PID.TID 0000.0001) //
(PID.TID 0000.0001) buoyancyRelation = /* Type of relation to get Buoyancy */
(PID.TID 0000.0001)               'OCEANIC'
(PID.TID 0000.0001)     ;
(PID.TID 0000.0001) fluidIsAir   =  /* fluid major constituent is Air */
(PID.TID 0000.0001)                   F
(PID.TID 0000.0001)     ;
(PID.TID 0000.0001) fluidIsWater =  /* fluid major constituent is Water */
(PID.TID 0000.0001)                   T
(PID.TID 0000.0001)     ;
(PID.TID 0000.0001) usingPCoords =  /* use p (or p*) vertical coordinate */
(PID.TID 0000.0001)                   F
(PID.TID 0000.0001)     ;
(PID.TID 0000.0001) usingZCoords =  /* use z (or z*) vertical coordinate */
(PID.TID 0000.0001)                   T
(PID.TID 0000.0001)     ;
(PID.TID 0000.0001) tRef =   /* Reference temperature profile ( oC or K ) */
(PID.TID 0000.0001)    15 @  2.000000000000000E+01              /* K =  1: 15 */
(PID.TID 0000.0001)     ;
(PID.TID 0000.0001) sRef =   /* Reference salinity profile ( g/kg ) */
(PID.TID 0000.0001)    15 @  3.500000000000000E+01              /* K =  1: 15 */
(PID.TID 0000.0001)     ;
(PID.TID 0000.0001) rhoRef =   /* Density vertical profile from (Ref,sRef)( kg/m^3 ) */
(PID.TID 0000.0001)                 1.024872626184147E+03,      /* K =  1 */
(PID.TID 0000.0001)                 1.025135462285008E+03,      /* K =  2 */
(PID.TID 0000.0001)                 1.025507198938228E+03,      /* K =  3 */
(PID.TID 0000.0001)                 1.026030780760464E+03,      /* K =  4 */
(PID.TID 0000.0001)                 1.026748377776259E+03,      /* K =  5 */
(PID.TID 0000.0001)                 1.027679406285166E+03,      /* K =  6 */
(PID.TID 0000.0001)                 1.028820735595355E+03,      /* K =  7 */
(PID.TID 0000.0001)                 1.030168558073105E+03,      /* K =  8 */
(PID.TID 0000.0001)                 1.031718419899614E+03,      /* K =  9 */
(PID.TID 0000.0001)                 1.033465256541184E+03,      /* K = 10 */
(PID.TID 0000.0001)                 1.035403432414885E+03,      /* K = 11 */
(PID.TID 0000.0001)                 1.037526784183520E+03,      /* K = 12 */
(PID.TID 0000.0001)                 1.039828667078104E+03,      /* K = 13 */
(PID.TID 0000.0001)                 1.042302003623418E+03,      /* K = 14 */
(PID.TID 0000.0001)                 1.044939334132512E+03       /* K = 15 */
(PID.TID 0000.0001)     ;
(PID.TID 0000.0001) dBdrRef = /* Vertical grad. of reference buoyancy [(m/s/r)^2] */
(PID.TID 0000.0001)    15 @  0.000000000000000E+00              /* K =  1: 15 */
(PID.TID 0000.0001)     ;
(PID.TID 0000.0001) useStrainTensionVisc= /* Use StrainTension Form of Viscous Operator */
(PID.TID 0000.0001)                   F
(PID.TID 0000.0001)     ;
(PID.TID 0000.0001) useVariableVisc = /* Use variable horizontal viscosity */
(PID.TID 0000.0001)                   F
(PID.TID 0000.0001)     ;
(PID.TID 0000.0001) useHarmonicVisc = /* Use harmonic horizontal viscosity */
(PID.TID 0000.0001)                   T
(PID.TID 0000.0001)     ;
(PID.TID 0000.0001) useBiharmonicVisc= /* Use biharmonic horiz.  viscosity */
(PID.TID 0000.0001)                   F
(PID.TID 0000.0001)     ;
(PID.TID 0000.0001) useSmag3D = /* Use isotropic 3-D Smagorinsky viscosity */
(PID.TID 0000.0001)                   F
(PID.TID 0000.0001)     ;
(PID.TID 0000.0001) viscAh  =   /* Lateral harmonic viscosity ( m^2/s ) */
(PID.TID 0000.0001)                 2.000000000000000E+05
(PID.TID 0000.0001)     ;
(PID.TID 0000.0001) viscA4  =   /* Lateral biharmonic viscosity ( m^4/s ) */
(PID.TID 0000.0001)                 0.000000000000000E+00
(PID.TID 0000.0001)     ;
(PID.TID 0000.0001) no_slip_sides =  /* Viscous BCs: No-slip sides */
(PID.TID 0000.0001)                   T
(PID.TID 0000.0001)     ;
(PID.TID 0000.0001) sideDragFactor = /* side-drag scaling factor (non-dim) */
(PID.TID 0000.0001)                 2.000000000000000E+00
(PID.TID 0000.0001)     ;
(PID.TID 0000.0001) viscArNr = /* vertical profile of vertical viscosity ( m^2/s )*/
(PID.TID 0000.0001)    15 @  1.000000000000000E-03              /* K =  1: 15 */
(PID.TID 0000.0001)     ;
(PID.TID 0000.0001) no_slip_bottom =  /* Viscous BCs: No-slip bottom */
(PID.TID 0000.0001)                   T
(PID.TID 0000.0001)     ;
(PID.TID 0000.0001) bottomVisc_pCell = /* Partial-cell in bottom Visc. BC */
(PID.TID 0000.0001)                   F
(PID.TID 0000.0001)     ;
(PID.TID 0000.0001) bottomDragLinear = /* linear bottom-drag coefficient ( m/s ) */
(PID.TID 0000.0001)                 0.000000000000000E+00
(PID.TID 0000.0001)     ;
(PID.TID 0000.0001) bottomDragQuadratic = /* quadratic bottom-drag coefficient (-) */
(PID.TID 0000.0001)                 0.000000000000000E+00
(PID.TID 0000.0001)     ;
(PID.TID 0000.0001) selectBotDragQuadr = /* select quadratic bottom drag options */
(PID.TID 0000.0001)                      -1
(PID.TID 0000.0001)     ;
(PID.TID 0000.0001) diffKhT =   /* Laplacian diffusion of heat laterally ( m^2/s ) */
(PID.TID 0000.0001)                 0.000000000000000E+00
(PID.TID 0000.0001)     ;
(PID.TID 0000.0001) diffK4T =   /* Biharmonic diffusion of heat laterally ( m^4/s ) */
(PID.TID 0000.0001)                 0.000000000000000E+00
(PID.TID 0000.0001)     ;
(PID.TID 0000.0001) diffKhS =   /* Laplacian diffusion of salt laterally ( m^2/s ) */
(PID.TID 0000.0001)                 0.000000000000000E+00
(PID.TID 0000.0001)     ;
(PID.TID 0000.0001) diffK4S =   /* Biharmonic diffusion of salt laterally ( m^4/s ) */
(PID.TID 0000.0001)                 0.000000000000000E+00
(PID.TID 0000.0001)     ;
(PID.TID 0000.0001) diffKrNrT = /* vertical profile of vertical diffusion of Temp ( m^2/s )*/
(PID.TID 0000.0001)    15 @  0.000000000000000E+00              /* K =  1: 15 */
(PID.TID 0000.0001)     ;
(PID.TID 0000.0001) diffKrNrS = /* vertical profile of vertical diffusion of Salt ( m^2/s )*/
(PID.TID 0000.0001)    15 @  0.000000000000000E+00              /* K =  1: 15 */
(PID.TID 0000.0001)     ;
(PID.TID 0000.0001) diffKrBL79surf = /* Surface diffusion for Bryan and Lewis 79 ( m^2/s ) */
(PID.TID 0000.0001)                 3.000000000000000E-05
(PID.TID 0000.0001)     ;
(PID.TID 0000.0001) diffKrBL79deep = /* Deep diffusion for Bryan and Lewis 1979 ( m^2/s ) */
(PID.TID 0000.0001)                 1.300000000000000E-04
(PID.TID 0000.0001)     ;
(PID.TID 0000.0001) diffKrBL79scl = /* Depth scale for Bryan and Lewis 1979 ( m ) */
(PID.TID 0000.0001)                 1.500000000000000E+02
(PID.TID 0000.0001)     ;
(PID.TID 0000.0001) diffKrBL79Ho = /* Turning depth for Bryan and Lewis 1979 ( m ) */
(PID.TID 0000.0001)                -2.000000000000000E+03
(PID.TID 0000.0001)     ;
(PID.TID 0000.0001) ivdc_kappa = /* Implicit Vertical Diffusivity for Convection ( m^2/s) */
(PID.TID 0000.0001)                 1.000000000000000E+02
(PID.TID 0000.0001)     ;
(PID.TID 0000.0001) hMixCriteria=  /* Criteria for mixed-layer diagnostic */
(PID.TID 0000.0001)                -8.000000000000000E-01
(PID.TID 0000.0001)     ;
(PID.TID 0000.0001) dRhoSmall =  /* Parameter for mixed-layer diagnostic */
(PID.TID 0000.0001)                 1.000000000000000E-06
(PID.TID 0000.0001)     ;
(PID.TID 0000.0001) hMixSmooth=  /* Smoothing parameter for mixed-layer diagnostic */
(PID.TID 0000.0001)                 0.000000000000000E+00
(PID.TID 0000.0001)     ;
(PID.TID 0000.0001) eosType =  /* Type of Equation of State */
(PID.TID 0000.0001)               'JMD95Z'
(PID.TID 0000.0001)     ;
(PID.TID 0000.0001) eosRefP0 = /* Reference atmospheric pressure for EOS ( Pa ) */
(PID.TID 0000.0001)                 1.013250000000000E+05
(PID.TID 0000.0001)     ;
(PID.TID 0000.0001) selectP_inEOS_Zc = /* select pressure to use in EOS (0,1,2,3) */
(PID.TID 0000.0001)                       0
(PID.TID 0000.0001)     0= -g*rhoConst*z ; 1= pRef (from tRef,sRef); 2= Hyd P ; 3= Hyd+NH P
(PID.TID 0000.0001)     ;
(PID.TID 0000.0001) surf_pRef = /* Surface reference pressure ( Pa ) */
(PID.TID 0000.0001)                 1.013250000000000E+05
(PID.TID 0000.0001)     ;
(PID.TID 0000.0001) HeatCapacity_Cp =  /* Specific heat capacity ( J/kg/K ) */
(PID.TID 0000.0001)                 3.994000000000000E+03
(PID.TID 0000.0001)     ;
(PID.TID 0000.0001) celsius2K = /* 0 degree Celsius converted to Kelvin ( K ) */
(PID.TID 0000.0001)                 2.731500000000000E+02
(PID.TID 0000.0001)     ;
(PID.TID 0000.0001) rhoConst  = /* Reference density (Boussinesq)  ( kg/m^3 ) */
(PID.TID 0000.0001)                 1.035000000000000E+03
(PID.TID 0000.0001)     ;
(PID.TID 0000.0001) rhoFacC = /* normalized Reference density @ cell-Center (-) */
(PID.TID 0000.0001)    15 @  1.000000000000000E+00              /* K =  1: 15 */
(PID.TID 0000.0001)     ;
(PID.TID 0000.0001) rhoFacF = /* normalized Reference density @ W-Interface (-) */
(PID.TID 0000.0001)    16 @  1.000000000000000E+00              /* K =  1: 16 */
(PID.TID 0000.0001)     ;
(PID.TID 0000.0001) rhoConstFresh = /* Fresh-water reference density ( kg/m^3 ) */
(PID.TID 0000.0001)                 1.000000000000000E+03
(PID.TID 0000.0001)     ;
(PID.TID 0000.0001) gravity =   /* Gravitational acceleration ( m/s^2 ) */
(PID.TID 0000.0001)                 9.810000000000000E+00
(PID.TID 0000.0001)     ;
(PID.TID 0000.0001) gBaro =   /* Barotropic gravity ( m/s^2 ) */
(PID.TID 0000.0001)                 9.810000000000000E+00
(PID.TID 0000.0001)     ;
(PID.TID 0000.0001) gravFacC = /* gravity factor (vs surf.) @ cell-Center (-) */
(PID.TID 0000.0001)    15 @  1.000000000000000E+00              /* K =  1: 15 */
(PID.TID 0000.0001)     ;
(PID.TID 0000.0001) gravFacF = /* gravity factor (vs surf.) @ W-Interface (-) */
(PID.TID 0000.0001)    16 @  1.000000000000000E+00              /* K =  1: 16 */
(PID.TID 0000.0001)     ;
(PID.TID 0000.0001) rotationPeriod =   /* Rotation Period ( s ) */
(PID.TID 0000.0001)                 8.616400000000000E+04
(PID.TID 0000.0001)     ;
(PID.TID 0000.0001) omega =   /* Angular velocity ( rad/s ) */
(PID.TID 0000.0001)                 7.292123516990375E-05
(PID.TID 0000.0001)     ;
(PID.TID 0000.0001) f0 =   /* Reference coriolis parameter ( 1/s ) */
(PID.TID 0000.0001)                 1.000000000000000E-04
(PID.TID 0000.0001)     ;
(PID.TID 0000.0001) beta =   /* Beta ( 1/(m.s) ) */
(PID.TID 0000.0001)                 9.999999999999999E-12
(PID.TID 0000.0001)     ;
(PID.TID 0000.0001) fPrime =   /* Second coriolis parameter ( 1/s ) */
(PID.TID 0000.0001)                 0.000000000000000E+00
(PID.TID 0000.0001)     ;
(PID.TID 0000.0001) rigidLid =   /* Rigid lid on/off flag */
(PID.TID 0000.0001)                   F
(PID.TID 0000.0001)     ;
(PID.TID 0000.0001) implicitFreeSurface =   /* Implicit free surface on/off flag */
(PID.TID 0000.0001)                   T
(PID.TID 0000.0001)     ;
(PID.TID 0000.0001) freeSurfFac =   /* Implicit free surface factor */
(PID.TID 0000.0001)                 1.000000000000000E+00
(PID.TID 0000.0001)     ;
(PID.TID 0000.0001) implicSurfPress =  /* Surface Pressure implicit factor (0-1) */
(PID.TID 0000.0001)                 1.000000000000000E+00
(PID.TID 0000.0001)     ;
(PID.TID 0000.0001) implicDiv2DFlow =  /* Barot. Flow Div. implicit factor (0-1) */
(PID.TID 0000.0001)                 1.000000000000000E+00
(PID.TID 0000.0001)     ;
(PID.TID 0000.0001) uniformLin_PhiSurf = /* use uniform Bo_surf on/off flag */
(PID.TID 0000.0001)                   T
(PID.TID 0000.0001)     ;
(PID.TID 0000.0001) uniformFreeSurfLev = /* free-surface level-index is uniform */
(PID.TID 0000.0001)                   T
(PID.TID 0000.0001)     ;
(PID.TID 0000.0001) sIceLoadFac =  /* scale factor for sIceLoad (0-1) */
(PID.TID 0000.0001)                 1.000000000000000E+00
(PID.TID 0000.0001)     ;
(PID.TID 0000.0001) hFacMin =   /* minimum partial cell factor (hFac) */
(PID.TID 0000.0001)                 1.000000000000000E-01
(PID.TID 0000.0001)     ;
(PID.TID 0000.0001) hFacMinDr = /* minimum partial cell thickness ( m) */
(PID.TID 0000.0001)                 5.000000000000000E+01
(PID.TID 0000.0001)     ;
(PID.TID 0000.0001) exactConserv = /* Update etaN from continuity Eq on/off flag */
(PID.TID 0000.0001)                   F
(PID.TID 0000.0001)     ;
(PID.TID 0000.0001) linFSConserveTr = /* Tracer correction for Lin Free Surface on/off flag */
(PID.TID 0000.0001)                   F
(PID.TID 0000.0001)     ;
(PID.TID 0000.0001) nonlinFreeSurf = /* Non-linear Free Surf. options (-1,0,1,2,3)*/
(PID.TID 0000.0001)                       0
(PID.TID 0000.0001)      -1,0= Off ; 1,2,3= On, 2=+rescale gU,gV, 3=+update cg2d solv.
(PID.TID 0000.0001)     ;
(PID.TID 0000.0001) hFacInf =   /* lower threshold for hFac (nonlinFreeSurf only)*/
(PID.TID 0000.0001)                 2.000000000000000E-01
(PID.TID 0000.0001)     ;
(PID.TID 0000.0001) hFacSup =   /* upper threshold for hFac (nonlinFreeSurf only)*/
(PID.TID 0000.0001)                 2.000000000000000E+00
(PID.TID 0000.0001)     ;
(PID.TID 0000.0001) select_rStar = /* r* Vertical coord. options (=0 r coord.; >0 uses r*)*/
(PID.TID 0000.0001)                       0
(PID.TID 0000.0001)     ;
(PID.TID 0000.0001) useRealFreshWaterFlux = /* Real Fresh Water Flux on/off flag*/
(PID.TID 0000.0001)                   F
(PID.TID 0000.0001)     ;
(PID.TID 0000.0001) temp_EvPrRn = /* Temp. of Evap/Prec/R (UNSET=use local T)(oC)*/
(PID.TID 0000.0001)                 1.234567000000000E+05
(PID.TID 0000.0001)     ;
(PID.TID 0000.0001) salt_EvPrRn = /* Salin. of Evap/Prec/R (UNSET=use local S)(g/kg)*/
(PID.TID 0000.0001)                 0.000000000000000E+00
(PID.TID 0000.0001)     ;
(PID.TID 0000.0001) selectAddFluid = /* option for mass source/sink of fluid (=0: off) */
(PID.TID 0000.0001)                       0
(PID.TID 0000.0001)     ;
(PID.TID 0000.0001) temp_addMass = /* Temp. of addMass array (UNSET=use local T)(oC)*/
(PID.TID 0000.0001)                 1.234567000000000E+05
(PID.TID 0000.0001)     ;
(PID.TID 0000.0001) salt_addMass = /* Salin. of addMass array (UNSET=use local S)(g/kg)*/
(PID.TID 0000.0001)                 0.000000000000000E+00
(PID.TID 0000.0001)     ;
(PID.TID 0000.0001) convertFW2Salt = /* convert F.W. Flux to Salt Flux (-1=use local S)(g/kg)*/
(PID.TID 0000.0001)                 3.500000000000000E+01
(PID.TID 0000.0001)     ;
(PID.TID 0000.0001) use3Dsolver = /* use 3-D pressure solver on/off flag */
(PID.TID 0000.0001)                   F
(PID.TID 0000.0001)     ;
(PID.TID 0000.0001) nonHydrostatic =  /* Non-Hydrostatic on/off flag */
(PID.TID 0000.0001)                   F
(PID.TID 0000.0001)     ;
(PID.TID 0000.0001) nh_Am2 = /* Non-Hydrostatic terms scaling factor */
(PID.TID 0000.0001)                 1.000000000000000E+00
(PID.TID 0000.0001)     ;
(PID.TID 0000.0001) implicitNHPress = /* Non-Hyd Pressure implicit factor (0-1)*/
(PID.TID 0000.0001)                 1.000000000000000E+00
(PID.TID 0000.0001)     ;
(PID.TID 0000.0001) selectNHfreeSurf = /* Non-Hyd (free-)Surface option */
(PID.TID 0000.0001)                       0
(PID.TID 0000.0001)     ;
(PID.TID 0000.0001) quasiHydrostatic = /* Quasi-Hydrostatic on/off flag */
(PID.TID 0000.0001)                   F
(PID.TID 0000.0001)     ;
(PID.TID 0000.0001) calc_wVelocity = /* vertical velocity calculation on/off flag */
(PID.TID 0000.0001)                   T
(PID.TID 0000.0001)     ;
(PID.TID 0000.0001) momStepping =  /* Momentum equation on/off flag */
(PID.TID 0000.0001)                   T
(PID.TID 0000.0001)     ;
(PID.TID 0000.0001) vectorInvariantMomentum= /* Vector-Invariant Momentum on/off */
(PID.TID 0000.0001)                   F
(PID.TID 0000.0001)     ;
(PID.TID 0000.0001) momAdvection =  /* Momentum advection on/off flag */
(PID.TID 0000.0001)                   T
(PID.TID 0000.0001)     ;
(PID.TID 0000.0001) momViscosity =  /* Momentum viscosity on/off flag */
(PID.TID 0000.0001)                   T
(PID.TID 0000.0001)     ;
(PID.TID 0000.0001) momImplVertAdv= /* Momentum implicit vert. advection on/off*/
(PID.TID 0000.0001)                   F
(PID.TID 0000.0001)     ;
(PID.TID 0000.0001) implicitViscosity = /* Implicit viscosity on/off flag */
(PID.TID 0000.0001)                   T
(PID.TID 0000.0001)     ;
(PID.TID 0000.0001) selectImplicitDrag= /* Implicit bot Drag options (0,1,2)*/
(PID.TID 0000.0001)                       0
(PID.TID 0000.0001)     0= Expl. ; 1= Impl. on provis. Vel ; 2= Fully Impl (with surf.P)
(PID.TID 0000.0001)     ;
(PID.TID 0000.0001) selectMetricTerms= /* Scheme selector for Horizontal Metric Terms */
(PID.TID 0000.0001)                       1
(PID.TID 0000.0001)    = 0 : Off (ignore Spherical/Cylindrical Metric Terms)
(PID.TID 0000.0001)    = 1 : original discretization
(PID.TID 0000.0001)    = 2 : using (Spherical) grid-spacing
(PID.TID 0000.0001)    = 3 : as 2 but gU-Metric inside Advection
(PID.TID 0000.0001)     ;
(PID.TID 0000.0001) useNHMTerms = /* Non-Hydrostatic Metric-Terms on/off */
(PID.TID 0000.0001)                   F
(PID.TID 0000.0001)     ;
(PID.TID 0000.0001) useCoriolis =  /* Coriolis on/off flag */
(PID.TID 0000.0001)                   T
(PID.TID 0000.0001)     ;
(PID.TID 0000.0001) useCDscheme =  /* CD scheme on/off flag */
(PID.TID 0000.0001)                   T
(PID.TID 0000.0001)     ;
(PID.TID 0000.0001) selectCoriMap = /* Coriolis Map options (0,1,2,3)*/
(PID.TID 0000.0001)                       2
(PID.TID 0000.0001)     0= f-Plane ; 1= Beta-Plane ; 2= Spherical ; 3= read from file
(PID.TID 0000.0001)     ;
(PID.TID 0000.0001) select3dCoriScheme= /* Scheme selector for 3-D Coriolis-Term */
(PID.TID 0000.0001)                       0
(PID.TID 0000.0001)    = 0 : Off (ignore 3-D Coriolis Terms in Omega.Cos(Lat) )
(PID.TID 0000.0001)    = 1 : original discretization ; = 2 : using averaged Transport
(PID.TID 0000.0001)    = 3 : same as 2 with hFac in gW_Cor
(PID.TID 0000.0001)     ;
(PID.TID 0000.0001) selectCoriScheme= /* Scheme selector for Coriolis-Term */
(PID.TID 0000.0001)                       0
(PID.TID 0000.0001)    = 0 : original discretization (simple averaging, no hFac)
(PID.TID 0000.0001)    = 1 : Wet-point averaging (Jamar & Ozer 1986)
(PID.TID 0000.0001)    = 2 : energy conserving scheme (no hFac weight)
(PID.TID 0000.0001)    = 3 : energy conserving scheme using Wet-point averaging
(PID.TID 0000.0001)    = 4 : hFac weighted average (Angular Mom. conserving)
(PID.TID 0000.0001)     ;
(PID.TID 0000.0001) momForcing =  /* Momentum forcing on/off flag */
(PID.TID 0000.0001)                   T
(PID.TID 0000.0001)     ;
(PID.TID 0000.0001) momTidalForcing = /* Momentum Tidal forcing on/off flag */
(PID.TID 0000.0001)                   T
(PID.TID 0000.0001)     ;
(PID.TID 0000.0001) momPressureForcing =  /* Momentum pressure term on/off flag */
(PID.TID 0000.0001)                   T
(PID.TID 0000.0001)     ;
(PID.TID 0000.0001) implicitIntGravWave= /* Implicit Internal Gravity Wave flag */
(PID.TID 0000.0001)                   F
(PID.TID 0000.0001)     ;
(PID.TID 0000.0001) staggerTimeStep =    /* Stagger time stepping on/off flag */
(PID.TID 0000.0001)                   F
(PID.TID 0000.0001)     ;
(PID.TID 0000.0001) doResetHFactors = /* reset thickness factors @ each time-step */
(PID.TID 0000.0001)                   F
(PID.TID 0000.0001)     ;
(PID.TID 0000.0001) multiDimAdvection =  /* enable/disable Multi-Dim Advection */
(PID.TID 0000.0001)                   T
(PID.TID 0000.0001)     ;
(PID.TID 0000.0001) useMultiDimAdvec =   /* Multi-Dim Advection is/is-not used */
(PID.TID 0000.0001)                   T
(PID.TID 0000.0001)     ;
(PID.TID 0000.0001) implicitDiffusion = /* Implicit Diffusion on/off flag */
(PID.TID 0000.0001)                   T
(PID.TID 0000.0001)     ;
(PID.TID 0000.0001) tempStepping =  /* Temperature equation on/off flag */
(PID.TID 0000.0001)                   T
(PID.TID 0000.0001)     ;
(PID.TID 0000.0001) tempAdvection = /* Temperature advection on/off flag */
(PID.TID 0000.0001)                   T
(PID.TID 0000.0001)     ;
(PID.TID 0000.0001) tempImplVertAdv = /* Temp. implicit vert. advection on/off */
(PID.TID 0000.0001)                   F
(PID.TID 0000.0001)     ;
(PID.TID 0000.0001) tempForcing  =  /* Temperature forcing on/off flag */
(PID.TID 0000.0001)                   T
(PID.TID 0000.0001)     ;
(PID.TID 0000.0001) selectPenetratingSW = /* short wave penetration selector */
(PID.TID 0000.0001)                       1
(PID.TID 0000.0001)     ;
(PID.TID 0000.0001) doThetaClimRelax = /* apply SST relaxation on/off flag */
(PID.TID 0000.0001)                   F
(PID.TID 0000.0001)     ;
(PID.TID 0000.0001) tempIsActiveTr = /* Temp. is a dynamically Active Tracer */
(PID.TID 0000.0001)                   T
(PID.TID 0000.0001)     ;
(PID.TID 0000.0001) saltStepping =  /* Salinity equation on/off flag */
(PID.TID 0000.0001)                   T
(PID.TID 0000.0001)     ;
(PID.TID 0000.0001) saltAdvection = /* Salinity advection on/off flag */
(PID.TID 0000.0001)                   T
(PID.TID 0000.0001)     ;
(PID.TID 0000.0001) saltImplVertAdv = /* Sali. implicit vert. advection on/off */
(PID.TID 0000.0001)                   F
(PID.TID 0000.0001)     ;
(PID.TID 0000.0001) saltForcing  =  /* Salinity forcing on/off flag */
(PID.TID 0000.0001)                   T
(PID.TID 0000.0001)     ;
(PID.TID 0000.0001) doSaltClimRelax = /* apply SSS relaxation on/off flag */
(PID.TID 0000.0001)                   F
(PID.TID 0000.0001)     ;
(PID.TID 0000.0001) saltIsActiveTr = /* Salt  is a dynamically Active Tracer */
(PID.TID 0000.0001)                   T
(PID.TID 0000.0001)     ;
(PID.TID 0000.0001)  readBinaryPrec = /* Precision used for reading binary files */
(PID.TID 0000.0001)                      32
(PID.TID 0000.0001)     ;
(PID.TID 0000.0001) writeBinaryPrec = /* Precision used for writing binary files */
(PID.TID 0000.0001)                      32
(PID.TID 0000.0001)     ;
(PID.TID 0000.0001)  rwSuffixType =   /* select format of mds file suffix */
(PID.TID 0000.0001)                       0
(PID.TID 0000.0001)    = 0 : myIter (I10.10) ;   = 1 : 100*myTime (100th sec) ;
(PID.TID 0000.0001)    = 2 : myTime (seconds);   = 3 : myTime/360 (10th of hr);
(PID.TID 0000.0001)    = 4 : myTime/3600 (hours)
(PID.TID 0000.0001)     ;
(PID.TID 0000.0001)  globalFiles = /* write "global" (=not per tile) files */
(PID.TID 0000.0001)                   F
(PID.TID 0000.0001)     ;
(PID.TID 0000.0001)  useSingleCpuIO = /* only master MPI process does I/O */
(PID.TID 0000.0001)                   F
(PID.TID 0000.0001)     ;
(PID.TID 0000.0001)  useSingleCpuInput = /* only master process reads input */
(PID.TID 0000.0001)                   F
(PID.TID 0000.0001)     ;
(PID.TID 0000.0001) /* debLev[*]  : level of debug & auxiliary message printing */
(PID.TID 0000.0001) debLevZero =  0 ; /* level of disabled aux. msg printing */
(PID.TID 0000.0001)    debLevA =  1 ; /* level of minimum  aux. msg printing */
(PID.TID 0000.0001)    debLevB =  2 ; /* level of low aux. print (report read-file opening)*/
(PID.TID 0000.0001)    debLevC =  3 ; /* level of moderate debug prt (most pkgs debug msg) */
(PID.TID 0000.0001)    debLevD =  4 ; /* level of enhanced debug prt (add DEBUG_STATS prt) */
(PID.TID 0000.0001)    debLevE =  5 ; /* level of extensive debug printing */
(PID.TID 0000.0001) debugLevel =  /* select debug printing level */
(PID.TID 0000.0001)                       1
(PID.TID 0000.0001)     ;
(PID.TID 0000.0001)  plotLevel =  /* select PLOT_FIELD printing level */
(PID.TID 0000.0001)                       1
(PID.TID 0000.0001)     ;
(PID.TID 0000.0001) //
(PID.TID 0000.0001) // Elliptic solver(s) paramters ( PARM02 in namelist )
(PID.TID 0000.0001) //
(PID.TID 0000.0001) cg2dMaxIters =   /* Upper limit on 2d con. grad iterations  */
(PID.TID 0000.0001)                    1000
(PID.TID 0000.0001)     ;
(PID.TID 0000.0001) cg2dMinItersNSA =   /* Minimum number of iterations of 2d con. grad solver  */
(PID.TID 0000.0001)                       0
(PID.TID 0000.0001)     ;
(PID.TID 0000.0001) cg2dUseMinResSol= /* use cg2d last-iter(=0) / min-resid.(=1) solution */
(PID.TID 0000.0001)                       0
(PID.TID 0000.0001)     ;
(PID.TID 0000.0001) cg2dTargetResidual =   /* 2d con. grad target residual  */
(PID.TID 0000.0001)                 1.000000000000000E-13
(PID.TID 0000.0001)     ;
(PID.TID 0000.0001) cg2dTargetResWunit =   /* CG2d target residual [W units] */
(PID.TID 0000.0001)                -1.000000000000000E+00
(PID.TID 0000.0001)     ;
(PID.TID 0000.0001) cg2dPreCondFreq =   /* Freq. for updating cg2d preconditioner */
(PID.TID 0000.0001)                       1
(PID.TID 0000.0001)     ;
(PID.TID 0000.0001) useSRCGSolver =  /* use single reduction CG solver(s) */
(PID.TID 0000.0001)                   F
(PID.TID 0000.0001)     ;
(PID.TID 0000.0001) useNSACGSolver =  /* use not-self-adjoint CG solver */
(PID.TID 0000.0001)                   F
(PID.TID 0000.0001)     ;
(PID.TID 0000.0001) printResidualFreq = /* Freq. for printing CG residual */
(PID.TID 0000.0001)                      -1
(PID.TID 0000.0001)     ;
(PID.TID 0000.0001) //
(PID.TID 0000.0001) // Time stepping paramters ( PARM03 in namelist )
(PID.TID 0000.0001) //
(PID.TID 0000.0001) deltaTMom =   /* Momentum equation timestep ( s ) */
(PID.TID 0000.0001)                 9.000000000000000E+02
(PID.TID 0000.0001)     ;
(PID.TID 0000.0001) deltaTFreeSurf = /* FreeSurface equation timestep ( s ) */
(PID.TID 0000.0001)                 9.000000000000000E+02
(PID.TID 0000.0001)     ;
(PID.TID 0000.0001) dTtracerLev =  /* Tracer equation timestep ( s ) */
(PID.TID 0000.0001)    15 @  9.000000000000000E+02              /* K =  1: 15 */
(PID.TID 0000.0001)     ;
(PID.TID 0000.0001) deltaTClock  =   /* Model clock timestep ( s ) */
(PID.TID 0000.0001)                 9.000000000000000E+02
(PID.TID 0000.0001)     ;
(PID.TID 0000.0001) cAdjFreq =   /* Convective adjustment interval ( s ) */
(PID.TID 0000.0001)                 0.000000000000000E+00
(PID.TID 0000.0001)     ;
(PID.TID 0000.0001) momForcingOutAB = /* =1: take Momentum Forcing out of Adams-Bash. stepping */
(PID.TID 0000.0001)                       0
(PID.TID 0000.0001)     ;
(PID.TID 0000.0001) tracForcingOutAB = /* =1: take T,S,pTr Forcing out of Adams-Bash. stepping */
(PID.TID 0000.0001)                       0
(PID.TID 0000.0001)     ;
(PID.TID 0000.0001) momDissip_In_AB = /* put Dissipation Tendency in Adams-Bash. stepping */
(PID.TID 0000.0001)                   T
(PID.TID 0000.0001)     ;
(PID.TID 0000.0001) doAB_onGtGs = /* apply AB on Tendencies (rather than on T,S)*/
(PID.TID 0000.0001)                   T
(PID.TID 0000.0001)     ;
(PID.TID 0000.0001) abEps =   /* Adams-Bashforth-2 stabilizing weight */
(PID.TID 0000.0001)                 1.000000000000000E-01
(PID.TID 0000.0001)     ;
(PID.TID 0000.0001) alph_AB =   /* Adams-Bashforth-3 primary factor */
(PID.TID 0000.0001)                 5.000000000000000E-01
(PID.TID 0000.0001)     ;
(PID.TID 0000.0001) beta_AB =   /* Adams-Bashforth-3 secondary factor */
(PID.TID 0000.0001)                 4.166666666666667E-01
(PID.TID 0000.0001)     ;
(PID.TID 0000.0001) startFromPickupAB2= /* start from AB-2 pickup */
(PID.TID 0000.0001)                   F
(PID.TID 0000.0001)     ;
(PID.TID 0000.0001) applyExchUV_early = /* Apply EXCH to U,V earlier in time-step */
(PID.TID 0000.0001)                   F
(PID.TID 0000.0001)     ;
(PID.TID 0000.0001) tauCD =   /* CD coupling time-scale ( s ) */
(PID.TID 0000.0001)                 3.214280000000000E+05
(PID.TID 0000.0001)     ;
(PID.TID 0000.0001) rCD =   /* Normalised CD coupling parameter */
(PID.TID 0000.0001)                 9.971999950222133E-01
(PID.TID 0000.0001)     ;
(PID.TID 0000.0001) epsAB_CD = /* AB-2 stabilizing weight for CD-scheme*/
(PID.TID 0000.0001)                 1.000000000000000E-01
(PID.TID 0000.0001)     ;
(PID.TID 0000.0001) pickupStrictlyMatch= /* stop if pickup do not strictly match */
(PID.TID 0000.0001)                   T
(PID.TID 0000.0001)     ;
(PID.TID 0000.0001) nIter0   =   /* Run starting timestep number */
(PID.TID 0000.0001)                       0
(PID.TID 0000.0001)     ;
(PID.TID 0000.0001) nTimeSteps = /* Number of timesteps */
(PID.TID 0000.0001)                       4
(PID.TID 0000.0001)     ;
(PID.TID 0000.0001) nEndIter =   /* Run ending timestep number */
(PID.TID 0000.0001)                       4
(PID.TID 0000.0001)     ;
(PID.TID 0000.0001) baseTime =   /* Model base time ( s ) */
(PID.TID 0000.0001)                 0.000000000000000E+00
(PID.TID 0000.0001)     ;
(PID.TID 0000.0001) startTime =  /* Run start time ( s ) */
(PID.TID 0000.0001)                 0.000000000000000E+00
(PID.TID 0000.0001)     ;
(PID.TID 0000.0001) endTime  =   /* Integration ending time ( s ) */
(PID.TID 0000.0001)                 3.600000000000000E+03
(PID.TID 0000.0001)     ;
(PID.TID 0000.0001) pChkPtFreq = /* Permanent restart/pickup file interval ( s ) */
(PID.TID 0000.0001)                 2.160000000000000E+05
(PID.TID 0000.0001)     ;
(PID.TID 0000.0001) chkPtFreq  = /* Rolling restart/pickup file interval ( s ) */
(PID.TID 0000.0001)                 2.160000000000000E+05
(PID.TID 0000.0001)     ;
(PID.TID 0000.0001) pickup_write_mdsio =   /* Model IO flag. */
(PID.TID 0000.0001)                   T
(PID.TID 0000.0001)     ;
(PID.TID 0000.0001) pickup_read_mdsio =   /* Model IO flag. */
(PID.TID 0000.0001)                   T
(PID.TID 0000.0001)     ;
(PID.TID 0000.0001) writePickupAtEnd =   /* Model IO flag. */
(PID.TID 0000.0001)                   T
(PID.TID 0000.0001)     ;
(PID.TID 0000.0001) dumpFreq =   /* Model state write out interval ( s ). */
(PID.TID 0000.0001)                 2.160000000000000E+05
(PID.TID 0000.0001)     ;
(PID.TID 0000.0001) dumpInitAndLast= /* write out Initial & Last iter. model state */
(PID.TID 0000.0001)                   T
(PID.TID 0000.0001)     ;
(PID.TID 0000.0001) snapshot_mdsio =   /* Model IO flag. */
(PID.TID 0000.0001)                   T
(PID.TID 0000.0001)     ;
(PID.TID 0000.0001) monitorFreq =   /* Monitor output interval ( s ). */
(PID.TID 0000.0001)                 1.000000000000000E+00
(PID.TID 0000.0001)     ;
(PID.TID 0000.0001) monitorSelect = /* select group of variables to monitor */
(PID.TID 0000.0001)                       3
(PID.TID 0000.0001)     ;
(PID.TID 0000.0001) monitor_stdio =   /* Model IO flag. */
(PID.TID 0000.0001)                   T
(PID.TID 0000.0001)     ;
(PID.TID 0000.0001) externForcingPeriod =   /* forcing period (s) */
(PID.TID 0000.0001)                 0.000000000000000E+00
(PID.TID 0000.0001)     ;
(PID.TID 0000.0001) externForcingCycle =   /* period of the cyle (s). */
(PID.TID 0000.0001)                 0.000000000000000E+00
(PID.TID 0000.0001)     ;
(PID.TID 0000.0001) tauThetaClimRelax =   /* relaxation time scale (s) */
(PID.TID 0000.0001)                 0.000000000000000E+00
(PID.TID 0000.0001)     ;
(PID.TID 0000.0001) tauSaltClimRelax =   /* relaxation time scale (s) */
(PID.TID 0000.0001)                 0.000000000000000E+00
(PID.TID 0000.0001)     ;
(PID.TID 0000.0001) latBandClimRelax =   /* max. Lat. where relaxation */
(PID.TID 0000.0001)                 1.800000000000000E+02
(PID.TID 0000.0001)     ;
(PID.TID 0000.0001) //
(PID.TID 0000.0001) // Gridding paramters ( PARM04 in namelist )
(PID.TID 0000.0001) //
(PID.TID 0000.0001) usingCartesianGrid = /* Cartesian coordinates flag ( True/False ) */
(PID.TID 0000.0001)                   F
(PID.TID 0000.0001)     ;
(PID.TID 0000.0001) usingCylindricalGrid = /* Cylindrical coordinates flag ( True/False ) */
(PID.TID 0000.0001)                   F
(PID.TID 0000.0001)     ;
(PID.TID 0000.0001) usingSphericalPolarGrid = /* Spherical coordinates flag ( True/False ) */
(PID.TID 0000.0001)                   T
(PID.TID 0000.0001)     ;
(PID.TID 0000.0001) usingCurvilinearGrid = /* Curvilinear coordinates flag ( True/False ) */
(PID.TID 0000.0001)                   F
(PID.TID 0000.0001)     ;
(PID.TID 0000.0001) useMin4hFacEdges = /* set hFacW,S as minimum of adjacent hFacC factor */
(PID.TID 0000.0001)                   F
(PID.TID 0000.0001)     ;
(PID.TID 0000.0001) interViscAr_pCell = /* account for partial-cell in interior vert. viscosity */
(PID.TID 0000.0001)                   F
(PID.TID 0000.0001)     ;
(PID.TID 0000.0001) interDiffKr_pCell = /* account for partial-cell in interior vert. diffusion */
(PID.TID 0000.0001)                   F
(PID.TID 0000.0001)     ;
(PID.TID 0000.0001) pCellMix_select = /* option to enhance mixing near surface & bottom */
(PID.TID 0000.0001)                       0
(PID.TID 0000.0001)     ;
(PID.TID 0000.0001) selectSigmaCoord = /* Hybrid-Sigma Vert. Coordinate option */
(PID.TID 0000.0001)                       0
(PID.TID 0000.0001)     ;
(PID.TID 0000.0001) rSigmaBnd = /* r/sigma transition ( units of r ==  m ) */
(PID.TID 0000.0001)                 1.234567000000000E+05
(PID.TID 0000.0001)     ;
(PID.TID 0000.0001) rkSign =   /* index orientation relative to vertical coordinate */
(PID.TID 0000.0001)                -1.000000000000000E+00
(PID.TID 0000.0001)     ;
(PID.TID 0000.0001) gravitySign = /* gravity orientation relative to vertical coordinate */
(PID.TID 0000.0001)                -1.000000000000000E+00
(PID.TID 0000.0001)     ;
(PID.TID 0000.0001) seaLev_Z =  /* reference height of sea-level [m] */
(PID.TID 0000.0001)                 0.000000000000000E+00
(PID.TID 0000.0001)     ;
(PID.TID 0000.0001) top_Pres =  /* reference pressure at the top [Pa] */
(PID.TID 0000.0001)                 0.000000000000000E+00
(PID.TID 0000.0001)     ;
(PID.TID 0000.0001) mass2rUnit = /* convert mass per unit area [kg/m2] to r-units [m] */
(PID.TID 0000.0001)                 9.661835748792270E-04
(PID.TID 0000.0001)     ;
(PID.TID 0000.0001) rUnit2mass = /* convert r-units [m] to mass per unit area [kg/m2] */
(PID.TID 0000.0001)                 1.035000000000000E+03
(PID.TID 0000.0001)     ;
(PID.TID 0000.0001) drC =   /* C spacing ( units of r ) */
(PID.TID 0000.0001)                 2.500000000000000E+01,      /* K =  1 */
(PID.TID 0000.0001)                 6.000000000000000E+01,      /* K =  2 */
(PID.TID 0000.0001)                 8.500000000000000E+01,      /* K =  3 */
(PID.TID 0000.0001)                 1.200000000000000E+02,      /* K =  4 */
(PID.TID 0000.0001)                 1.650000000000000E+02,      /* K =  5 */
(PID.TID 0000.0001)                 2.150000000000000E+02,      /* K =  6 */
(PID.TID 0000.0001)                 2.650000000000000E+02,      /* K =  7 */
(PID.TID 0000.0001)                 3.150000000000000E+02,      /* K =  8 */
(PID.TID 0000.0001)                 3.650000000000000E+02,      /* K =  9 */
(PID.TID 0000.0001)                 4.150000000000000E+02,      /* K = 10 */
(PID.TID 0000.0001)                 4.650000000000000E+02,      /* K = 11 */
(PID.TID 0000.0001)                 5.150000000000000E+02,      /* K = 12 */
(PID.TID 0000.0001)                 5.650000000000000E+02,      /* K = 13 */
(PID.TID 0000.0001)                 6.150000000000000E+02,      /* K = 14 */
(PID.TID 0000.0001)                 6.650000000000000E+02,      /* K = 15 */
(PID.TID 0000.0001)                 3.450000000000000E+02       /* K = 16 */
(PID.TID 0000.0001)     ;
(PID.TID 0000.0001) drF =   /* W spacing ( units of r ) */
(PID.TID 0000.0001)                 5.000000000000000E+01,      /* K =  1 */
(PID.TID 0000.0001)                 7.000000000000000E+01,      /* K =  2 */
(PID.TID 0000.0001)                 1.000000000000000E+02,      /* K =  3 */
(PID.TID 0000.0001)                 1.400000000000000E+02,      /* K =  4 */
(PID.TID 0000.0001)                 1.900000000000000E+02,      /* K =  5 */
(PID.TID 0000.0001)                 2.400000000000000E+02,      /* K =  6 */
(PID.TID 0000.0001)                 2.900000000000000E+02,      /* K =  7 */
(PID.TID 0000.0001)                 3.400000000000000E+02,      /* K =  8 */
(PID.TID 0000.0001)                 3.900000000000000E+02,      /* K =  9 */
(PID.TID 0000.0001)                 4.400000000000000E+02,      /* K = 10 */
(PID.TID 0000.0001)                 4.900000000000000E+02,      /* K = 11 */
(PID.TID 0000.0001)                 5.400000000000000E+02,      /* K = 12 */
(PID.TID 0000.0001)                 5.900000000000000E+02,      /* K = 13 */
(PID.TID 0000.0001)                 6.400000000000000E+02,      /* K = 14 */
(PID.TID 0000.0001)                 6.900000000000000E+02       /* K = 15 */
(PID.TID 0000.0001)     ;
(PID.TID 0000.0001) delX = /* U spacing ( m - cartesian, degrees - spherical ) */
(PID.TID 0000.0001)   128 @  2.812500000000000E+00              /* I =  1:128 */
(PID.TID 0000.0001)     ;
(PID.TID 0000.0001) delY = /* V spacing ( m - cartesian, degrees - spherical ) */
(PID.TID 0000.0001)    64 @  2.812500000000000E+00              /* J =  1: 64 */
(PID.TID 0000.0001)     ;
(PID.TID 0000.0001) xgOrigin = /* X-axis origin of West  edge (cartesian: m, lat-lon: deg) */
(PID.TID 0000.0001)                 0.000000000000000E+00
(PID.TID 0000.0001)     ;
(PID.TID 0000.0001) ygOrigin = /* Y-axis origin of South edge (cartesian: m, lat-lon: deg) */
(PID.TID 0000.0001)                -9.000000000000000E+01
(PID.TID 0000.0001)     ;
(PID.TID 0000.0001) rSphere =  /* Radius ( ignored - cartesian, m - spherical ) */
(PID.TID 0000.0001)                 6.370000000000000E+06
(PID.TID 0000.0001)     ;
(PID.TID 0000.0001) deepAtmosphere = /* Deep/Shallow Atmosphere flag (True/False) */
(PID.TID 0000.0001)                   F
(PID.TID 0000.0001)     ;
(PID.TID 0000.0001) xC =  /* xC(:,1,:,1) : P-point X coord ( deg. or m if cartesian) */
(PID.TID 0000.0001)                 1.406250000000000E+00,      /* I =  1 */
(PID.TID 0000.0001)                 4.218750000000000E+00,      /* I =  2 */
(PID.TID 0000.0001)                 7.031250000000000E+00,      /* I =  3 */
(PID.TID 0000.0001)      . . .
(PID.TID 0000.0001)                 8.296875000000000E+01,      /* I = 30 */
(PID.TID 0000.0001)                 8.578125000000000E+01,      /* I = 31 */
(PID.TID 0000.0001)                 8.859375000000000E+01,      /* I = 32 */
(PID.TID 0000.0001)                 9.140625000000000E+01,      /* I = 33 */
(PID.TID 0000.0001)                 9.421875000000000E+01,      /* I = 34 */
(PID.TID 0000.0001)                 9.703125000000000E+01,      /* I = 35 */
(PID.TID 0000.0001)      . . .
(PID.TID 0000.0001)                 1.729687500000000E+02,      /* I = 62 */
(PID.TID 0000.0001)                 1.757812500000000E+02,      /* I = 63 */
(PID.TID 0000.0001)                 1.785937500000000E+02,      /* I = 64 */
(PID.TID 0000.0001)                 1.814062500000000E+02,      /* I = 65 */
(PID.TID 0000.0001)                 1.842187500000000E+02,      /* I = 66 */
(PID.TID 0000.0001)                 1.870312500000000E+02,      /* I = 67 */
(PID.TID 0000.0001)      . . .
(PID.TID 0000.0001)                 2.629687500000000E+02,      /* I = 94 */
(PID.TID 0000.0001)                 2.657812500000000E+02,      /* I = 95 */
(PID.TID 0000.0001)                 2.685937500000000E+02,      /* I = 96 */
(PID.TID 0000.0001)                 2.714062500000000E+02,      /* I = 97 */
(PID.TID 0000.0001)                 2.742187500000000E+02,      /* I = 98 */
(PID.TID 0000.0001)                 2.770312500000000E+02,      /* I = 99 */
(PID.TID 0000.0001)      . . .
(PID.TID 0000.0001)                 3.529687500000000E+02,      /* I =126 */
(PID.TID 0000.0001)                 3.557812500000000E+02,      /* I =127 */
(PID.TID 0000.0001)                 3.585937500000000E+02       /* I =128 */
(PID.TID 0000.0001)     ;
(PID.TID 0000.0001) yC =  /* yC(1,:,1,:) : P-point Y coord ( deg. or m if cartesian) */
(PID.TID 0000.0001)                -8.859375000000000E+01,      /* J =  1 */
(PID.TID 0000.0001)                -8.578125000000000E+01,      /* J =  2 */
(PID.TID 0000.0001)                -8.296875000000000E+01,      /* J =  3 */
(PID.TID 0000.0001)                -8.015625000000000E+01,      /* J =  4 */
(PID.TID 0000.0001)                -7.734375000000000E+01,      /* J =  5 */
(PID.TID 0000.0001)                -7.453125000000000E+01,      /* J =  6 */
(PID.TID 0000.0001)                -7.171875000000000E+01,      /* J =  7 */
(PID.TID 0000.0001)                -6.890625000000000E+01,      /* J =  8 */
(PID.TID 0000.0001)                -6.609375000000000E+01,      /* J =  9 */
(PID.TID 0000.0001)                -6.328125000000000E+01,      /* J = 10 */
(PID.TID 0000.0001)                -6.046875000000000E+01,      /* J = 11 */
(PID.TID 0000.0001)                -5.765625000000000E+01,      /* J = 12 */
(PID.TID 0000.0001)                -5.484375000000000E+01,      /* J = 13 */
(PID.TID 0000.0001)                -5.203125000000000E+01,      /* J = 14 */
(PID.TID 0000.0001)                -4.921875000000000E+01,      /* J = 15 */
(PID.TID 0000.0001)                -4.640625000000000E+01,      /* J = 16 */
(PID.TID 0000.0001)                -4.359375000000000E+01,      /* J = 17 */
(PID.TID 0000.0001)                -4.078125000000000E+01,      /* J = 18 */
(PID.TID 0000.0001)                -3.796875000000000E+01,      /* J = 19 */
(PID.TID 0000.0001)                -3.515625000000000E+01,      /* J = 20 */
(PID.TID 0000.0001)                -3.234375000000000E+01,      /* J = 21 */
(PID.TID 0000.0001)                -2.953125000000000E+01,      /* J = 22 */
(PID.TID 0000.0001)                -2.671875000000000E+01,      /* J = 23 */
(PID.TID 0000.0001)                -2.390625000000000E+01,      /* J = 24 */
(PID.TID 0000.0001)                -2.109375000000000E+01,      /* J = 25 */
(PID.TID 0000.0001)                -1.828125000000000E+01,      /* J = 26 */
(PID.TID 0000.0001)                -1.546875000000000E+01,      /* J = 27 */
(PID.TID 0000.0001)                -1.265625000000000E+01,      /* J = 28 */
(PID.TID 0000.0001)                -9.843750000000000E+00,      /* J = 29 */
(PID.TID 0000.0001)                -7.031250000000000E+00,      /* J = 30 */
(PID.TID 0000.0001)                -4.218750000000000E+00,      /* J = 31 */
(PID.TID 0000.0001)                -1.406250000000000E+00,      /* J = 32 */
(PID.TID 0000.0001)                 1.406250000000000E+00,      /* J = 33 */
(PID.TID 0000.0001)                 4.218750000000000E+00,      /* J = 34 */
(PID.TID 0000.0001)                 7.031250000000000E+00,      /* J = 35 */
(PID.TID 0000.0001)                 9.843750000000000E+00,      /* J = 36 */
(PID.TID 0000.0001)                 1.265625000000000E+01,      /* J = 37 */
(PID.TID 0000.0001)                 1.546875000000000E+01,      /* J = 38 */
(PID.TID 0000.0001)                 1.828125000000000E+01,      /* J = 39 */
(PID.TID 0000.0001)                 2.109375000000000E+01,      /* J = 40 */
(PID.TID 0000.0001)                 2.390625000000000E+01,      /* J = 41 */
(PID.TID 0000.0001)                 2.671875000000000E+01,      /* J = 42 */
(PID.TID 0000.0001)                 2.953125000000000E+01,      /* J = 43 */
(PID.TID 0000.0001)                 3.234375000000000E+01,      /* J = 44 */
(PID.TID 0000.0001)                 3.515625000000000E+01,      /* J = 45 */
(PID.TID 0000.0001)                 3.796875000000000E+01,      /* J = 46 */
(PID.TID 0000.0001)                 4.078125000000000E+01,      /* J = 47 */
(PID.TID 0000.0001)                 4.359375000000000E+01,      /* J = 48 */
(PID.TID 0000.0001)                 4.640625000000000E+01,      /* J = 49 */
(PID.TID 0000.0001)                 4.921875000000000E+01,      /* J = 50 */
(PID.TID 0000.0001)                 5.203125000000000E+01,      /* J = 51 */
(PID.TID 0000.0001)                 5.484375000000000E+01,      /* J = 52 */
(PID.TID 0000.0001)                 5.765625000000000E+01,      /* J = 53 */
(PID.TID 0000.0001)                 6.046875000000000E+01,      /* J = 54 */
(PID.TID 0000.0001)                 6.328125000000000E+01,      /* J = 55 */
(PID.TID 0000.0001)                 6.609375000000000E+01,      /* J = 56 */
(PID.TID 0000.0001)                 6.890625000000000E+01,      /* J = 57 */
(PID.TID 0000.0001)                 7.171875000000000E+01,      /* J = 58 */
(PID.TID 0000.0001)                 7.453125000000000E+01,      /* J = 59 */
(PID.TID 0000.0001)                 7.734375000000000E+01,      /* J = 60 */
(PID.TID 0000.0001)                 8.015625000000000E+01,      /* J = 61 */
(PID.TID 0000.0001)                 8.296875000000000E+01,      /* J = 62 */
(PID.TID 0000.0001)                 8.578125000000000E+01,      /* J = 63 */
(PID.TID 0000.0001)                 8.859375000000000E+01       /* J = 64 */
(PID.TID 0000.0001)     ;
(PID.TID 0000.0001) rcoord = /* P-point R coordinate (  units of r ) */
(PID.TID 0000.0001)                -2.500000000000000E+01,      /* K =  1 */
(PID.TID 0000.0001)                -8.500000000000000E+01,      /* K =  2 */
(PID.TID 0000.0001)                -1.700000000000000E+02,      /* K =  3 */
(PID.TID 0000.0001)                -2.900000000000000E+02,      /* K =  4 */
(PID.TID 0000.0001)                -4.550000000000000E+02,      /* K =  5 */
(PID.TID 0000.0001)                -6.700000000000000E+02,      /* K =  6 */
(PID.TID 0000.0001)                -9.350000000000000E+02,      /* K =  7 */
(PID.TID 0000.0001)                -1.250000000000000E+03,      /* K =  8 */
(PID.TID 0000.0001)                -1.615000000000000E+03,      /* K =  9 */
(PID.TID 0000.0001)                -2.030000000000000E+03,      /* K = 10 */
(PID.TID 0000.0001)                -2.495000000000000E+03,      /* K = 11 */
(PID.TID 0000.0001)                -3.010000000000000E+03,      /* K = 12 */
(PID.TID 0000.0001)                -3.575000000000000E+03,      /* K = 13 */
(PID.TID 0000.0001)                -4.190000000000000E+03,      /* K = 14 */
(PID.TID 0000.0001)                -4.855000000000000E+03       /* K = 15 */
(PID.TID 0000.0001)     ;
(PID.TID 0000.0001) rF =   /* W-Interf. R coordinate (  units of r ) */
(PID.TID 0000.0001)                 0.000000000000000E+00,      /* K =  1 */
(PID.TID 0000.0001)                -5.000000000000000E+01,      /* K =  2 */
(PID.TID 0000.0001)                -1.200000000000000E+02,      /* K =  3 */
(PID.TID 0000.0001)                -2.200000000000000E+02,      /* K =  4 */
(PID.TID 0000.0001)                -3.600000000000000E+02,      /* K =  5 */
(PID.TID 0000.0001)                -5.500000000000000E+02,      /* K =  6 */
(PID.TID 0000.0001)                -7.900000000000000E+02,      /* K =  7 */
(PID.TID 0000.0001)                -1.080000000000000E+03,      /* K =  8 */
(PID.TID 0000.0001)                -1.420000000000000E+03,      /* K =  9 */
(PID.TID 0000.0001)                -1.810000000000000E+03,      /* K = 10 */
(PID.TID 0000.0001)                -2.250000000000000E+03,      /* K = 11 */
(PID.TID 0000.0001)                -2.740000000000000E+03,      /* K = 12 */
(PID.TID 0000.0001)                -3.280000000000000E+03,      /* K = 13 */
(PID.TID 0000.0001)                -3.870000000000000E+03,      /* K = 14 */
(PID.TID 0000.0001)                -4.510000000000000E+03,      /* K = 15 */
(PID.TID 0000.0001)                -5.200000000000000E+03       /* K = 16 */
(PID.TID 0000.0001)     ;
(PID.TID 0000.0001) deepFacC = /* deep-model grid factor @ cell-Center (-) */
(PID.TID 0000.0001)    15 @  1.000000000000000E+00              /* K =  1: 15 */
(PID.TID 0000.0001)     ;
(PID.TID 0000.0001) deepFacF = /* deep-model grid factor @ W-Interface (-) */
(PID.TID 0000.0001)    16 @  1.000000000000000E+00              /* K =  1: 16 */
(PID.TID 0000.0001)     ;
(PID.TID 0000.0001) rotateGrid = /* use rotated grid ( True/False ) */
(PID.TID 0000.0001)                   F
(PID.TID 0000.0001)     ;
(PID.TID 0000.0001) phiEuler = /* Euler angle, rotation about original z-coordinate [rad] */
(PID.TID 0000.0001)                 0.000000000000000E+00
(PID.TID 0000.0001)     ;
(PID.TID 0000.0001) thetaEuler = /* Euler angle, rotation about new x-coordinate [rad] */
(PID.TID 0000.0001)                 0.000000000000000E+00
(PID.TID 0000.0001)     ;
(PID.TID 0000.0001) psiEuler = /* Euler angle, rotation about new z-coordinate [rad] */
(PID.TID 0000.0001)                 0.000000000000000E+00
(PID.TID 0000.0001)     ;
(PID.TID 0000.0001) dxF =  /* dxF(:,1,:,1) ( units: m ) */
(PID.TID 0000.0001)   128 @  7.673714381622299E+03              /* I =  1:128 */
(PID.TID 0000.0001)     ;
(PID.TID 0000.0001) dxF =  /* dxF(1,:,1,:) ( units: m ) */
(PID.TID 0000.0001)                 7.673714381622299E+03,      /* J =  1 */
(PID.TID 0000.0001)                 2.300265649478360E+04,      /* J =  2 */
(PID.TID 0000.0001)                 3.827618319365421E+04,      /* J =  3 */
(PID.TID 0000.0001)                 5.345749921461356E+04,      /* J =  4 */
(PID.TID 0000.0001)                 6.851003143764105E+04,      /* J =  5 */
(PID.TID 0000.0001)                 8.339751699416524E+04,      /* J =  6 */
(PID.TID 0000.0001)                 9.808409062749070E+04,      /* J =  7 */
(PID.TID 0000.0001)                 1.125343710953429E+05,      /* J =  8 */
(PID.TID 0000.0001)                 1.267135464063795E+05,      /* J =  9 */
(PID.TID 0000.0001)                 1.405874576853274E+05,      /* J = 10 */
(PID.TID 0000.0001)                 1.541226814647045E+05,      /* J = 11 */
(PID.TID 0000.0001)                 1.672866102048804E+05,      /* J = 12 */
(PID.TID 0000.0001)                 1.800475308484964E+05,      /* J = 13 */
(PID.TID 0000.0001)                 1.923747012199971E+05,      /* J = 14 */
(PID.TID 0000.0001)                 2.042384240862251E+05,      /* J = 15 */
(PID.TID 0000.0001)                 2.156101186996563E+05,      /* J = 16 */
(PID.TID 0000.0001)                 2.264623896519241E+05,      /* J = 17 */
(PID.TID 0000.0001)                 2.367690928717577E+05,      /* J = 18 */
(PID.TID 0000.0001)                 2.465053986083400E+05,      /* J = 19 */
(PID.TID 0000.0001)                 2.556478512483520E+05,      /* J = 20 */
(PID.TID 0000.0001)                 2.641744258225996E+05,      /* J = 21 */
(PID.TID 0000.0001)                 2.720645810660936E+05,      /* J = 22 */
(PID.TID 0000.0001)                 2.792993089037565E+05,      /* J = 23 */
(PID.TID 0000.0001)                 2.858611802425402E+05,      /* J = 24 */
(PID.TID 0000.0001)                 2.917343869596373E+05,      /* J = 25 */
(PID.TID 0000.0001)                 2.969047799856344E+05,      /* J = 26 */
(PID.TID 0000.0001)                 3.013599033908587E+05,      /* J = 27 */
(PID.TID 0000.0001)                 3.050890243928043E+05,      /* J = 28 */
(PID.TID 0000.0001)                 3.080831592123453E+05,      /* J = 29 */
(PID.TID 0000.0001)                 3.103350947164461E+05,      /* J = 30 */
(PID.TID 0000.0001)                 3.118394057952309E+05,      /* J = 31 */
(PID.TID 0000.0001)     2 @  3.125924684315491E+05,             /* J = 32: 33 */
(PID.TID 0000.0001)                 3.118394057952309E+05,      /* J = 34 */
(PID.TID 0000.0001)                 3.103350947164461E+05,      /* J = 35 */
(PID.TID 0000.0001)                 3.080831592123453E+05,      /* J = 36 */
(PID.TID 0000.0001)                 3.050890243928043E+05,      /* J = 37 */
(PID.TID 0000.0001)                 3.013599033908587E+05,      /* J = 38 */
(PID.TID 0000.0001)                 2.969047799856344E+05,      /* J = 39 */
(PID.TID 0000.0001)                 2.917343869596373E+05,      /* J = 40 */
(PID.TID 0000.0001)                 2.858611802425402E+05,      /* J = 41 */
(PID.TID 0000.0001)                 2.792993089037565E+05,      /* J = 42 */
(PID.TID 0000.0001)                 2.720645810660936E+05,      /* J = 43 */
(PID.TID 0000.0001)                 2.641744258225996E+05,      /* J = 44 */
(PID.TID 0000.0001)                 2.556478512483520E+05,      /* J = 45 */
(PID.TID 0000.0001)                 2.465053986083400E+05,      /* J = 46 */
(PID.TID 0000.0001)                 2.367690928717577E+05,      /* J = 47 */
(PID.TID 0000.0001)                 2.264623896519241E+05,      /* J = 48 */
(PID.TID 0000.0001)                 2.156101186996563E+05,      /* J = 49 */
(PID.TID 0000.0001)                 2.042384240862251E+05,      /* J = 50 */
(PID.TID 0000.0001)                 1.923747012199971E+05,      /* J = 51 */
(PID.TID 0000.0001)                 1.800475308484964E+05,      /* J = 52 */
(PID.TID 0000.0001)                 1.672866102048804E+05,      /* J = 53 */
(PID.TID 0000.0001)                 1.541226814647045E+05,      /* J = 54 */
(PID.TID 0000.0001)                 1.405874576853274E+05,      /* J = 55 */
(PID.TID 0000.0001)                 1.267135464063795E+05,      /* J = 56 */
(PID.TID 0000.0001)                 1.125343710953429E+05,      /* J = 57 */
(PID.TID 0000.0001)                 9.808409062749070E+04,      /* J = 58 */
(PID.TID 0000.0001)                 8.339751699416524E+04,      /* J = 59 */
(PID.TID 0000.0001)                 6.851003143764105E+04,      /* J = 60 */
(PID.TID 0000.0001)                 5.345749921461356E+04,      /* J = 61 */
(PID.TID 0000.0001)                 3.827618319365421E+04,      /* J = 62 */
(PID.TID 0000.0001)                 2.300265649478360E+04,      /* J = 63 */
(PID.TID 0000.0001)                 7.673714381622299E+03       /* J = 64 */
(PID.TID 0000.0001)     ;
(PID.TID 0000.0001) dyF =  /* dyF(:,1,:,1) ( units: m ) */
(PID.TID 0000.0001)   128 @  3.126866438026091E+05              /* I =  1:128 */
(PID.TID 0000.0001)     ;
(PID.TID 0000.0001) dyF =  /* dyF(1,:,1,:) ( units: m ) */
(PID.TID 0000.0001)    64 @  3.126866438026091E+05              /* J =  1: 64 */
(PID.TID 0000.0001)     ;
(PID.TID 0000.0001) dxG =  /* dxG(:,1,:,1) ( units: m ) */
(PID.TID 0000.0001)   128 @  0.000000000000000E+00              /* I =  1:128 */
(PID.TID 0000.0001)     ;
(PID.TID 0000.0001) dxG =  /* dxG(1,:,1,:) ( units: m ) */
(PID.TID 0000.0001)                 0.000000000000000E+00,      /* J =  1 */
(PID.TID 0000.0001)                 1.534280640463982E+04,      /* J =  2 */
(PID.TID 0000.0001)                 3.064865064477965E+04,      /* J =  3 */
(PID.TID 0000.0001)                 4.588065960101153E+04,      /* J =  4 */
(PID.TID 0000.0001)                 6.100213802959342E+04,      /* J =  5 */
(PID.TID 0000.0001)                 7.597665696450579E+04,      /* J =  6 */
(PID.TID 0000.0001)                 9.076814147802141E+04,      /* J =  7 */
(PID.TID 0000.0001)                 1.053409575883663E+05,      /* J =  8 */
(PID.TID 0000.0001)                 1.196599981051027E+05,      /* J =  9 */
(PID.TID 0000.0001)                 1.336907672054259E+05,      /* J = 10 */
(PID.TID 0000.0001)                 1.473994635376230E+05,      /* J = 11 */
(PID.TID 0000.0001)                 1.607530616514898E+05,      /* J = 12 */
(PID.TID 0000.0001)                 1.737193915595329E+05,      /* J = 13 */
(PID.TID 0000.0001)                 1.862672162372875E+05,      /* J = 14 */
(PID.TID 0000.0001)                 1.983663068760452E+05,      /* J = 15 */
(PID.TID 0000.0001)                 2.099875157067021E+05,      /* J = 16 */
(PID.TID 0000.0001)                 2.211028462192875E+05,      /* J = 17 */
(PID.TID 0000.0001)                 2.316855206090085E+05,      /* J = 18 */
(PID.TID 0000.0001)                 2.417100442863276E+05,      /* J = 19 */
(PID.TID 0000.0001)                 2.511522672956614E+05,      /* J = 20 */
(PID.TID 0000.0001)                 2.599894424947394E+05,      /* J = 21 */
(PID.TID 0000.0001)                 2.682002803544621E+05,      /* J = 22 */
(PID.TID 0000.0001)                 2.757650002472408E+05,      /* J = 23 */
(PID.TID 0000.0001)                 2.826653781002625E+05,      /* J = 24 */
(PID.TID 0000.0001)                 2.888847902988777E+05,      /* J = 25 */
(PID.TID 0000.0001)                 2.944082537343438E+05,      /* J = 26 */
(PID.TID 0000.0001)                 2.992224618994463E+05,      /* J = 27 */
(PID.TID 0000.0001)                 3.033158169450409E+05,      /* J = 28 */
(PID.TID 0000.0001)                 3.066784576202870E+05,      /* J = 29 */
(PID.TID 0000.0001)                 3.093022830292655E+05,      /* J = 30 */
(PID.TID 0000.0001)                 3.111809721467461E+05,      /* J = 31 */
(PID.TID 0000.0001)                 3.123099990460912E+05,      /* J = 32 */
(PID.TID 0000.0001)                 3.126866438026091E+05,      /* J = 33 */
(PID.TID 0000.0001)                 3.123099990460912E+05,      /* J = 34 */
(PID.TID 0000.0001)                 3.111809721467461E+05,      /* J = 35 */
(PID.TID 0000.0001)                 3.093022830292655E+05,      /* J = 36 */
(PID.TID 0000.0001)                 3.066784576202870E+05,      /* J = 37 */
(PID.TID 0000.0001)                 3.033158169450409E+05,      /* J = 38 */
(PID.TID 0000.0001)                 2.992224618994463E+05,      /* J = 39 */
(PID.TID 0000.0001)                 2.944082537343438E+05,      /* J = 40 */
(PID.TID 0000.0001)                 2.888847902988777E+05,      /* J = 41 */
(PID.TID 0000.0001)                 2.826653781002625E+05,      /* J = 42 */
(PID.TID 0000.0001)                 2.757650002472408E+05,      /* J = 43 */
(PID.TID 0000.0001)                 2.682002803544621E+05,      /* J = 44 */
(PID.TID 0000.0001)                 2.599894424947394E+05,      /* J = 45 */
(PID.TID 0000.0001)                 2.511522672956614E+05,      /* J = 46 */
(PID.TID 0000.0001)                 2.417100442863276E+05,      /* J = 47 */
(PID.TID 0000.0001)                 2.316855206090085E+05,      /* J = 48 */
(PID.TID 0000.0001)                 2.211028462192875E+05,      /* J = 49 */
(PID.TID 0000.0001)                 2.099875157067021E+05,      /* J = 50 */
(PID.TID 0000.0001)                 1.983663068760452E+05,      /* J = 51 */
(PID.TID 0000.0001)                 1.862672162372875E+05,      /* J = 52 */
(PID.TID 0000.0001)                 1.737193915595329E+05,      /* J = 53 */
(PID.TID 0000.0001)                 1.607530616514898E+05,      /* J = 54 */
(PID.TID 0000.0001)                 1.473994635376230E+05,      /* J = 55 */
(PID.TID 0000.0001)                 1.336907672054259E+05,      /* J = 56 */
(PID.TID 0000.0001)                 1.196599981051027E+05,      /* J = 57 */
(PID.TID 0000.0001)                 1.053409575883663E+05,      /* J = 58 */
(PID.TID 0000.0001)                 9.076814147802141E+04,      /* J = 59 */
(PID.TID 0000.0001)                 7.597665696450579E+04,      /* J = 60 */
(PID.TID 0000.0001)                 6.100213802959342E+04,      /* J = 61 */
(PID.TID 0000.0001)                 4.588065960101153E+04,      /* J = 62 */
(PID.TID 0000.0001)                 3.064865064477965E+04,      /* J = 63 */
(PID.TID 0000.0001)                 1.534280640463982E+04       /* J = 64 */
(PID.TID 0000.0001)     ;
(PID.TID 0000.0001) dyG =  /* dyG(:,1,:,1) ( units: m ) */
(PID.TID 0000.0001)   128 @  3.126866438026091E+05              /* I =  1:128 */
(PID.TID 0000.0001)     ;
(PID.TID 0000.0001) dyG =  /* dyG(1,:,1,:) ( units: m ) */
(PID.TID 0000.0001)    64 @  3.126866438026091E+05              /* J =  1: 64 */
(PID.TID 0000.0001)     ;
(PID.TID 0000.0001) dxC =  /* dxC(:,1,:,1) ( units: m ) */
(PID.TID 0000.0001)   128 @  7.673714381622299E+03              /* I =  1:128 */
(PID.TID 0000.0001)     ;
(PID.TID 0000.0001) dxC =  /* dxC(1,:,1,:) ( units: m ) */
(PID.TID 0000.0001)                 7.673714381622299E+03,      /* J =  1 */
(PID.TID 0000.0001)                 2.300265649478360E+04,      /* J =  2 */
(PID.TID 0000.0001)                 3.827618319365421E+04,      /* J =  3 */
(PID.TID 0000.0001)                 5.345749921461356E+04,      /* J =  4 */
(PID.TID 0000.0001)                 6.851003143764105E+04,      /* J =  5 */
(PID.TID 0000.0001)                 8.339751699416524E+04,      /* J =  6 */
(PID.TID 0000.0001)                 9.808409062749070E+04,      /* J =  7 */
(PID.TID 0000.0001)                 1.125343710953429E+05,      /* J =  8 */
(PID.TID 0000.0001)                 1.267135464063795E+05,      /* J =  9 */
(PID.TID 0000.0001)                 1.405874576853274E+05,      /* J = 10 */
(PID.TID 0000.0001)                 1.541226814647045E+05,      /* J = 11 */
(PID.TID 0000.0001)                 1.672866102048804E+05,      /* J = 12 */
(PID.TID 0000.0001)                 1.800475308484964E+05,      /* J = 13 */
(PID.TID 0000.0001)                 1.923747012199971E+05,      /* J = 14 */
(PID.TID 0000.0001)                 2.042384240862251E+05,      /* J = 15 */
(PID.TID 0000.0001)                 2.156101186996563E+05,      /* J = 16 */
(PID.TID 0000.0001)                 2.264623896519241E+05,      /* J = 17 */
(PID.TID 0000.0001)                 2.367690928717577E+05,      /* J = 18 */
(PID.TID 0000.0001)                 2.465053986083400E+05,      /* J = 19 */
(PID.TID 0000.0001)                 2.556478512483520E+05,      /* J = 20 */
(PID.TID 0000.0001)                 2.641744258225996E+05,      /* J = 21 */
(PID.TID 0000.0001)                 2.720645810660936E+05,      /* J = 22 */
(PID.TID 0000.0001)                 2.792993089037565E+05,      /* J = 23 */
(PID.TID 0000.0001)                 2.858611802425402E+05,      /* J = 24 */
(PID.TID 0000.0001)                 2.917343869596373E+05,      /* J = 25 */
(PID.TID 0000.0001)                 2.969047799856344E+05,      /* J = 26 */
(PID.TID 0000.0001)                 3.013599033908587E+05,      /* J = 27 */
(PID.TID 0000.0001)                 3.050890243928043E+05,      /* J = 28 */
(PID.TID 0000.0001)                 3.080831592123453E+05,      /* J = 29 */
(PID.TID 0000.0001)                 3.103350947164461E+05,      /* J = 30 */
(PID.TID 0000.0001)                 3.118394057952309E+05,      /* J = 31 */
(PID.TID 0000.0001)     2 @  3.125924684315491E+05,             /* J = 32: 33 */
(PID.TID 0000.0001)                 3.118394057952309E+05,      /* J = 34 */
(PID.TID 0000.0001)                 3.103350947164461E+05,      /* J = 35 */
(PID.TID 0000.0001)                 3.080831592123453E+05,      /* J = 36 */
(PID.TID 0000.0001)                 3.050890243928043E+05,      /* J = 37 */
(PID.TID 0000.0001)                 3.013599033908587E+05,      /* J = 38 */
(PID.TID 0000.0001)                 2.969047799856344E+05,      /* J = 39 */
(PID.TID 0000.0001)                 2.917343869596373E+05,      /* J = 40 */
(PID.TID 0000.0001)                 2.858611802425402E+05,      /* J = 41 */
(PID.TID 0000.0001)                 2.792993089037565E+05,      /* J = 42 */
(PID.TID 0000.0001)                 2.720645810660936E+05,      /* J = 43 */
(PID.TID 0000.0001)                 2.641744258225996E+05,      /* J = 44 */
(PID.TID 0000.0001)                 2.556478512483520E+05,      /* J = 45 */
(PID.TID 0000.0001)                 2.465053986083400E+05,      /* J = 46 */
(PID.TID 0000.0001)                 2.367690928717577E+05,      /* J = 47 */
(PID.TID 0000.0001)                 2.264623896519241E+05,      /* J = 48 */
(PID.TID 0000.0001)                 2.156101186996563E+05,      /* J = 49 */
(PID.TID 0000.0001)                 2.042384240862251E+05,      /* J = 50 */
(PID.TID 0000.0001)                 1.923747012199971E+05,      /* J = 51 */
(PID.TID 0000.0001)                 1.800475308484964E+05,      /* J = 52 */
(PID.TID 0000.0001)                 1.672866102048804E+05,      /* J = 53 */
(PID.TID 0000.0001)                 1.541226814647045E+05,      /* J = 54 */
(PID.TID 0000.0001)                 1.405874576853274E+05,      /* J = 55 */
(PID.TID 0000.0001)                 1.267135464063795E+05,      /* J = 56 */
(PID.TID 0000.0001)                 1.125343710953429E+05,      /* J = 57 */
(PID.TID 0000.0001)                 9.808409062749070E+04,      /* J = 58 */
(PID.TID 0000.0001)                 8.339751699416524E+04,      /* J = 59 */
(PID.TID 0000.0001)                 6.851003143764105E+04,      /* J = 60 */
(PID.TID 0000.0001)                 5.345749921461356E+04,      /* J = 61 */
(PID.TID 0000.0001)                 3.827618319365421E+04,      /* J = 62 */
(PID.TID 0000.0001)                 2.300265649478360E+04,      /* J = 63 */
(PID.TID 0000.0001)                 7.673714381622299E+03       /* J = 64 */
(PID.TID 0000.0001)     ;
(PID.TID 0000.0001) dyC =  /* dyC(:,1,:,1) ( units: m ) */
(PID.TID 0000.0001)   128 @  3.126866438026091E+05              /* I =  1:128 */
(PID.TID 0000.0001)     ;
(PID.TID 0000.0001) dyC =  /* dyC(1,:,1,:) ( units: m ) */
(PID.TID 0000.0001)    64 @  3.126866438026091E+05              /* J =  1: 64 */
(PID.TID 0000.0001)     ;
(PID.TID 0000.0001) dxV =  /* dxV(:,1,:,1) ( units: m ) */
(PID.TID 0000.0001)   128 @  0.000000000000000E+00              /* I =  1:128 */
(PID.TID 0000.0001)     ;
(PID.TID 0000.0001) dxV =  /* dxV(1,:,1,:) ( units: m ) */
(PID.TID 0000.0001)                 0.000000000000000E+00,      /* J =  1 */
(PID.TID 0000.0001)                 1.534280640463982E+04,      /* J =  2 */
(PID.TID 0000.0001)                 3.064865064477965E+04,      /* J =  3 */
(PID.TID 0000.0001)                 4.588065960101153E+04,      /* J =  4 */
(PID.TID 0000.0001)                 6.100213802959342E+04,      /* J =  5 */
(PID.TID 0000.0001)                 7.597665696450579E+04,      /* J =  6 */
(PID.TID 0000.0001)                 9.076814147802141E+04,      /* J =  7 */
(PID.TID 0000.0001)                 1.053409575883663E+05,      /* J =  8 */
(PID.TID 0000.0001)                 1.196599981051027E+05,      /* J =  9 */
(PID.TID 0000.0001)                 1.336907672054259E+05,      /* J = 10 */
(PID.TID 0000.0001)                 1.473994635376230E+05,      /* J = 11 */
(PID.TID 0000.0001)                 1.607530616514898E+05,      /* J = 12 */
(PID.TID 0000.0001)                 1.737193915595329E+05,      /* J = 13 */
(PID.TID 0000.0001)                 1.862672162372875E+05,      /* J = 14 */
(PID.TID 0000.0001)                 1.983663068760452E+05,      /* J = 15 */
(PID.TID 0000.0001)                 2.099875157067021E+05,      /* J = 16 */
(PID.TID 0000.0001)                 2.211028462192875E+05,      /* J = 17 */
(PID.TID 0000.0001)                 2.316855206090085E+05,      /* J = 18 */
(PID.TID 0000.0001)                 2.417100442863276E+05,      /* J = 19 */
(PID.TID 0000.0001)                 2.511522672956614E+05,      /* J = 20 */
(PID.TID 0000.0001)                 2.599894424947394E+05,      /* J = 21 */
(PID.TID 0000.0001)                 2.682002803544621E+05,      /* J = 22 */
(PID.TID 0000.0001)                 2.757650002472408E+05,      /* J = 23 */
(PID.TID 0000.0001)                 2.826653781002625E+05,      /* J = 24 */
(PID.TID 0000.0001)                 2.888847902988777E+05,      /* J = 25 */
(PID.TID 0000.0001)                 2.944082537343438E+05,      /* J = 26 */
(PID.TID 0000.0001)                 2.992224618994463E+05,      /* J = 27 */
(PID.TID 0000.0001)                 3.033158169450409E+05,      /* J = 28 */
(PID.TID 0000.0001)                 3.066784576202870E+05,      /* J = 29 */
(PID.TID 0000.0001)                 3.093022830292655E+05,      /* J = 30 */
(PID.TID 0000.0001)                 3.111809721467461E+05,      /* J = 31 */
(PID.TID 0000.0001)                 3.123099990460912E+05,      /* J = 32 */
(PID.TID 0000.0001)                 3.126866438026091E+05,      /* J = 33 */
(PID.TID 0000.0001)                 3.123099990460912E+05,      /* J = 34 */
(PID.TID 0000.0001)                 3.111809721467461E+05,      /* J = 35 */
(PID.TID 0000.0001)                 3.093022830292655E+05,      /* J = 36 */
(PID.TID 0000.0001)                 3.066784576202870E+05,      /* J = 37 */
(PID.TID 0000.0001)                 3.033158169450409E+05,      /* J = 38 */
(PID.TID 0000.0001)                 2.992224618994463E+05,      /* J = 39 */
(PID.TID 0000.0001)                 2.944082537343438E+05,      /* J = 40 */
(PID.TID 0000.0001)                 2.888847902988777E+05,      /* J = 41 */
(PID.TID 0000.0001)                 2.826653781002625E+05,      /* J = 42 */
(PID.TID 0000.0001)                 2.757650002472408E+05,      /* J = 43 */
(PID.TID 0000.0001)                 2.682002803544621E+05,      /* J = 44 */
(PID.TID 0000.0001)                 2.599894424947394E+05,      /* J = 45 */
(PID.TID 0000.0001)                 2.511522672956614E+05,      /* J = 46 */
(PID.TID 0000.0001)                 2.417100442863276E+05,      /* J = 47 */
(PID.TID 0000.0001)                 2.316855206090085E+05,      /* J = 48 */
(PID.TID 0000.0001)                 2.211028462192875E+05,      /* J = 49 */
(PID.TID 0000.0001)                 2.099875157067021E+05,      /* J = 50 */
(PID.TID 0000.0001)                 1.983663068760452E+05,      /* J = 51 */
(PID.TID 0000.0001)                 1.862672162372875E+05,      /* J = 52 */
(PID.TID 0000.0001)                 1.737193915595329E+05,      /* J = 53 */
(PID.TID 0000.0001)                 1.607530616514898E+05,      /* J = 54 */
(PID.TID 0000.0001)                 1.473994635376230E+05,      /* J = 55 */
(PID.TID 0000.0001)                 1.336907672054259E+05,      /* J = 56 */
(PID.TID 0000.0001)                 1.196599981051027E+05,      /* J = 57 */
(PID.TID 0000.0001)                 1.053409575883663E+05,      /* J = 58 */
(PID.TID 0000.0001)                 9.076814147802141E+04,      /* J = 59 */
(PID.TID 0000.0001)                 7.597665696450579E+04,      /* J = 60 */
(PID.TID 0000.0001)                 6.100213802959342E+04,      /* J = 61 */
(PID.TID 0000.0001)                 4.588065960101153E+04,      /* J = 62 */
(PID.TID 0000.0001)                 3.064865064477965E+04,      /* J = 63 */
(PID.TID 0000.0001)                 1.534280640463982E+04       /* J = 64 */
(PID.TID 0000.0001)     ;
(PID.TID 0000.0001) dyU =  /* dyU(:,1,:,1) ( units: m ) */
(PID.TID 0000.0001)   128 @  3.126866438026091E+05              /* I =  1:128 */
(PID.TID 0000.0001)     ;
(PID.TID 0000.0001) dyU =  /* dyU(1,:,1,:) ( units: m ) */
(PID.TID 0000.0001)    64 @  3.126866438026091E+05              /* J =  1: 64 */
(PID.TID 0000.0001)     ;
(PID.TID 0000.0001) rA  =  /* rA (:,1,:,1) ( units: m^2 ) */
(PID.TID 0000.0001)   128 @  2.399227099019018E+09              /* I =  1:128 */
(PID.TID 0000.0001)     ;
(PID.TID 0000.0001) rA  =  /* rA (1,:,1,:) ( units: m^2 ) */
(PID.TID 0000.0001)                 2.399227099019018E+09,      /* J =  1 */
(PID.TID 0000.0001)                 7.191901348828056E+09,      /* J =  2 */
(PID.TID 0000.0001)                 1.196724967835171E+10,      /* J =  3 */
(PID.TID 0000.0001)                 1.671376785519299E+10,      /* J =  4 */
(PID.TID 0000.0001)                 2.142002110131771E+10,      /* J =  5 */
(PID.TID 0000.0001)                 2.607467164043704E+10,      /* J =  6 */
(PID.TID 0000.0001)                 3.066650601170349E+10,      /* J =  7 */
(PID.TID 0000.0001)                 3.518446208391881E+10,      /* J =  8 */
(PID.TID 0000.0001)                 3.961765570517892E+10,      /* J =  9 */
(PID.TID 0000.0001)                 4.395540692374860E+10,      /* J = 10 */
(PID.TID 0000.0001)                 4.818726571700000E+10,      /* J = 11 */
(PID.TID 0000.0001)                 5.230303716643333E+10,      /* J = 12 */
(PID.TID 0000.0001)                 5.629280601812741E+10,      /* J = 13 */
(PID.TID 0000.0001)                 6.014696056945659E+10,      /* J = 14 */
(PID.TID 0000.0001)                 6.385621582452237E+10,      /* J = 15 */
(PID.TID 0000.0001)                 6.741163586252303E+10,      /* J = 16 */
(PID.TID 0000.0001)                 7.080465536516846E+10,      /* J = 17 */
(PID.TID 0000.0001)                 7.402710025128452E+10,      /* J = 18 */
(PID.TID 0000.0001)                 7.707120736888658E+10,      /* J = 19 */
(PID.TID 0000.0001)                 7.992964319729683E+10,      /* J = 20 */
(PID.TID 0000.0001)                 8.259552151423444E+10,      /* J = 21 */
(PID.TID 0000.0001)                 8.506241998533159E+10,      /* J = 22 */
(PID.TID 0000.0001)                 8.732439563609566E+10,      /* J = 23 */
(PID.TID 0000.0001)                 8.937599916905872E+10,      /* J = 24 */
(PID.TID 0000.0001)                 9.121228809161066E+10,      /* J = 25 */
(PID.TID 0000.0001)                 9.282883862289705E+10,      /* J = 26 */
(PID.TID 0000.0001)                 9.422175635109474E+10,      /* J = 27 */
(PID.TID 0000.0001)                 9.538768561539165E+10,      /* J = 28 */
(PID.TID 0000.0001)                 9.632381759006650E+10,      /* J = 29 */
(PID.TID 0000.0001)                 9.702789705119698E+10,      /* J = 30 */
(PID.TID 0000.0001)                 9.749822780969106E+10,      /* J = 31 */
(PID.TID 0000.0001)     2 @  9.773367679755542E+10,             /* J = 32: 33 */
(PID.TID 0000.0001)                 9.749822780969106E+10,      /* J = 34 */
(PID.TID 0000.0001)                 9.702789705119698E+10,      /* J = 35 */
(PID.TID 0000.0001)                 9.632381759006650E+10,      /* J = 36 */
(PID.TID 0000.0001)                 9.538768561539165E+10,      /* J = 37 */
(PID.TID 0000.0001)                 9.422175635109474E+10,      /* J = 38 */
(PID.TID 0000.0001)                 9.282883862289705E+10,      /* J = 39 */
(PID.TID 0000.0001)                 9.121228809161066E+10,      /* J = 40 */
(PID.TID 0000.0001)                 8.937599916905872E+10,      /* J = 41 */
(PID.TID 0000.0001)                 8.732439563609566E+10,      /* J = 42 */
(PID.TID 0000.0001)                 8.506241998533159E+10,      /* J = 43 */
(PID.TID 0000.0001)                 8.259552151423444E+10,      /* J = 44 */
(PID.TID 0000.0001)                 7.992964319729683E+10,      /* J = 45 */
(PID.TID 0000.0001)                 7.707120736888658E+10,      /* J = 46 */
(PID.TID 0000.0001)                 7.402710025128452E+10,      /* J = 47 */
(PID.TID 0000.0001)                 7.080465536516846E+10,      /* J = 48 */
(PID.TID 0000.0001)                 6.741163586252303E+10,      /* J = 49 */
(PID.TID 0000.0001)                 6.385621582452237E+10,      /* J = 50 */
(PID.TID 0000.0001)                 6.014696056945659E+10,      /* J = 51 */
(PID.TID 0000.0001)                 5.629280601812741E+10,      /* J = 52 */
(PID.TID 0000.0001)                 5.230303716643333E+10,      /* J = 53 */
(PID.TID 0000.0001)                 4.818726571700000E+10,      /* J = 54 */
(PID.TID 0000.0001)                 4.395540692374860E+10,      /* J = 55 */
(PID.TID 0000.0001)                 3.961765570517892E+10,      /* J = 56 */
(PID.TID 0000.0001)                 3.518446208391881E+10,      /* J = 57 */
(PID.TID 0000.0001)                 3.066650601170349E+10,      /* J = 58 */
(PID.TID 0000.0001)                 2.607467164043704E+10,      /* J = 59 */
(PID.TID 0000.0001)                 2.142002110131771E+10,      /* J = 60 */
(PID.TID 0000.0001)                 1.671376785519299E+10,      /* J = 61 */
(PID.TID 0000.0001)                 1.196724967835171E+10,      /* J = 62 */
(PID.TID 0000.0001)                 7.191901348828056E+09,      /* J = 63 */
(PID.TID 0000.0001)                 2.399227099019018E+09       /* J = 64 */
(PID.TID 0000.0001)     ;
(PID.TID 0000.0001) rAw =  /* rAw(:,1,:,1) ( units: m^2 ) */
(PID.TID 0000.0001)   128 @  2.399227099019018E+09              /* I =  1:128 */
(PID.TID 0000.0001)     ;
(PID.TID 0000.0001) rAw =  /* rAw(1,:,1,:) ( units: m^2 ) */
(PID.TID 0000.0001)                 2.399227099019018E+09,      /* J =  1 */
(PID.TID 0000.0001)                 7.191901348828056E+09,      /* J =  2 */
(PID.TID 0000.0001)                 1.196724967835171E+10,      /* J =  3 */
(PID.TID 0000.0001)                 1.671376785519299E+10,      /* J =  4 */
(PID.TID 0000.0001)                 2.142002110131771E+10,      /* J =  5 */
(PID.TID 0000.0001)                 2.607467164043704E+10,      /* J =  6 */
(PID.TID 0000.0001)                 3.066650601170349E+10,      /* J =  7 */
(PID.TID 0000.0001)                 3.518446208391881E+10,      /* J =  8 */
(PID.TID 0000.0001)                 3.961765570517892E+10,      /* J =  9 */
(PID.TID 0000.0001)                 4.395540692374860E+10,      /* J = 10 */
(PID.TID 0000.0001)                 4.818726571700000E+10,      /* J = 11 */
(PID.TID 0000.0001)                 5.230303716643333E+10,      /* J = 12 */
(PID.TID 0000.0001)                 5.629280601812741E+10,      /* J = 13 */
(PID.TID 0000.0001)                 6.014696056945659E+10,      /* J = 14 */
(PID.TID 0000.0001)                 6.385621582452237E+10,      /* J = 15 */
(PID.TID 0000.0001)                 6.741163586252303E+10,      /* J = 16 */
(PID.TID 0000.0001)                 7.080465536516846E+10,      /* J = 17 */
(PID.TID 0000.0001)                 7.402710025128452E+10,      /* J = 18 */
(PID.TID 0000.0001)                 7.707120736888658E+10,      /* J = 19 */
(PID.TID 0000.0001)                 7.992964319729683E+10,      /* J = 20 */
(PID.TID 0000.0001)                 8.259552151423444E+10,      /* J = 21 */
(PID.TID 0000.0001)                 8.506241998533159E+10,      /* J = 22 */
(PID.TID 0000.0001)                 8.732439563609566E+10,      /* J = 23 */
(PID.TID 0000.0001)                 8.937599916905872E+10,      /* J = 24 */
(PID.TID 0000.0001)                 9.121228809161066E+10,      /* J = 25 */
(PID.TID 0000.0001)                 9.282883862289705E+10,      /* J = 26 */
(PID.TID 0000.0001)                 9.422175635109474E+10,      /* J = 27 */
(PID.TID 0000.0001)                 9.538768561539165E+10,      /* J = 28 */
(PID.TID 0000.0001)                 9.632381759006650E+10,      /* J = 29 */
(PID.TID 0000.0001)                 9.702789705119698E+10,      /* J = 30 */
(PID.TID 0000.0001)                 9.749822780969106E+10,      /* J = 31 */
(PID.TID 0000.0001)     2 @  9.773367679755542E+10,             /* J = 32: 33 */
(PID.TID 0000.0001)                 9.749822780969106E+10,      /* J = 34 */
(PID.TID 0000.0001)                 9.702789705119698E+10,      /* J = 35 */
(PID.TID 0000.0001)                 9.632381759006650E+10,      /* J = 36 */
(PID.TID 0000.0001)                 9.538768561539165E+10,      /* J = 37 */
(PID.TID 0000.0001)                 9.422175635109474E+10,      /* J = 38 */
(PID.TID 0000.0001)                 9.282883862289705E+10,      /* J = 39 */
(PID.TID 0000.0001)                 9.121228809161066E+10,      /* J = 40 */
(PID.TID 0000.0001)                 8.937599916905872E+10,      /* J = 41 */
(PID.TID 0000.0001)                 8.732439563609566E+10,      /* J = 42 */
(PID.TID 0000.0001)                 8.506241998533159E+10,      /* J = 43 */
(PID.TID 0000.0001)                 8.259552151423444E+10,      /* J = 44 */
(PID.TID 0000.0001)                 7.992964319729683E+10,      /* J = 45 */
(PID.TID 0000.0001)                 7.707120736888658E+10,      /* J = 46 */
(PID.TID 0000.0001)                 7.402710025128452E+10,      /* J = 47 */
(PID.TID 0000.0001)                 7.080465536516846E+10,      /* J = 48 */
(PID.TID 0000.0001)                 6.741163586252303E+10,      /* J = 49 */
(PID.TID 0000.0001)                 6.385621582452237E+10,      /* J = 50 */
(PID.TID 0000.0001)                 6.014696056945659E+10,      /* J = 51 */
(PID.TID 0000.0001)                 5.629280601812741E+10,      /* J = 52 */
(PID.TID 0000.0001)                 5.230303716643333E+10,      /* J = 53 */
(PID.TID 0000.0001)                 4.818726571700000E+10,      /* J = 54 */
(PID.TID 0000.0001)                 4.395540692374860E+10,      /* J = 55 */
(PID.TID 0000.0001)                 3.961765570517892E+10,      /* J = 56 */
(PID.TID 0000.0001)                 3.518446208391881E+10,      /* J = 57 */
(PID.TID 0000.0001)                 3.066650601170349E+10,      /* J = 58 */
(PID.TID 0000.0001)                 2.607467164043704E+10,      /* J = 59 */
(PID.TID 0000.0001)                 2.142002110131771E+10,      /* J = 60 */
(PID.TID 0000.0001)                 1.671376785519299E+10,      /* J = 61 */
(PID.TID 0000.0001)                 1.196724967835171E+10,      /* J = 62 */
(PID.TID 0000.0001)                 7.191901348828056E+09,      /* J = 63 */
(PID.TID 0000.0001)                 2.399227099019018E+09       /* J = 64 */
(PID.TID 0000.0001)     ;
(PID.TID 0000.0001) rAs =  /* rAs(:,1,:,1) ( units: m^2 ) */
(PID.TID 0000.0001)   128 @  0.000000000000000E+00              /* I =  1:128 */
(PID.TID 0000.0001)     ;
(PID.TID 0000.0001) rAs =  /* rAs(1,:,1,:) ( units: m^2 ) */
(PID.TID 0000.0001)                 0.000000000000000E+00,      /* J =  1 */
(PID.TID 0000.0001)                 4.797008993346594E+09,      /* J =  2 */
(PID.TID 0000.0001)                 9.582461571859739E+09,      /* J =  3 */
(PID.TID 0000.0001)                 1.434482916112175E+10,      /* J =  4 */
(PID.TID 0000.0001)                 1.907263880047594E+10,      /* J =  5 */
(PID.TID 0000.0001)                 2.375450078239423E+10,      /* J =  6 */
(PID.TID 0000.0001)                 2.837913609127881E+10,      /* J =  7 */
(PID.TID 0000.0001)                 3.293540357560110E+10,      /* J =  8 */
(PID.TID 0000.0001)                 3.741232678790870E+10,      /* J =  9 */
(PID.TID 0000.0001)                 4.179912042805190E+10,      /* J = 10 */
(PID.TID 0000.0001)                 4.608521632591324E+10,      /* J = 11 */
(PID.TID 0000.0001)                 5.026028890105701E+10,      /* J = 12 */
(PID.TID 0000.0001)                 5.431428003795675E+10,      /* J = 13 */
(PID.TID 0000.0001)                 5.823742331687641E+10,      /* J = 14 */
(PID.TID 0000.0001)                 6.202026754202965E+10,      /* J = 15 */
(PID.TID 0000.0001)                 6.565369951034003E+10,      /* J = 16 */
(PID.TID 0000.0001)                 6.912896596594559E+10,      /* J = 17 */
(PID.TID 0000.0001)                 7.243769468755632E+10,      /* J = 18 */
(PID.TID 0000.0001)                 7.557191465787256E+10,      /* J = 19 */
(PID.TID 0000.0001)                 7.852407526645966E+10,      /* J = 20 */
(PID.TID 0000.0001)                 8.128706449983365E+10,      /* J = 21 */
(PID.TID 0000.0001)                 8.385422607492096E+10,      /* J = 22 */
(PID.TID 0000.0001)                 8.621937547463148E+10,      /* J = 23 */
(PID.TID 0000.0001)                 8.837681484689812E+10,      /* J = 24 */
(PID.TID 0000.0001)                 9.032134673130376E+10,      /* J = 25 */
(PID.TID 0000.0001)                 9.204828658021815E+10,      /* J = 26 */
(PID.TID 0000.0001)                 9.355347404428317E+10,      /* J = 27 */
(PID.TID 0000.0001)                 9.483328299505896E+10,      /* J = 28 */
(PID.TID 0000.0001)                 9.588463026068500E+10,      /* J = 29 */
(PID.TID 0000.0001)                 9.670498305351135E+10,      /* J = 30 */
(PID.TID 0000.0001)                 9.729236507180571E+10,      /* J = 31 */
(PID.TID 0000.0001)                 9.764536126083739E+10,      /* J = 32 */
(PID.TID 0000.0001)                 9.776312122186816E+10,      /* J = 33 */
(PID.TID 0000.0001)                 9.764536126083739E+10,      /* J = 34 */
(PID.TID 0000.0001)                 9.729236507180571E+10,      /* J = 35 */
(PID.TID 0000.0001)                 9.670498305351135E+10,      /* J = 36 */
(PID.TID 0000.0001)                 9.588463026068500E+10,      /* J = 37 */
(PID.TID 0000.0001)                 9.483328299505896E+10,      /* J = 38 */
(PID.TID 0000.0001)                 9.355347404428317E+10,      /* J = 39 */
(PID.TID 0000.0001)                 9.204828658021815E+10,      /* J = 40 */
(PID.TID 0000.0001)                 9.032134673130376E+10,      /* J = 41 */
(PID.TID 0000.0001)                 8.837681484689812E+10,      /* J = 42 */
(PID.TID 0000.0001)                 8.621937547463148E+10,      /* J = 43 */
(PID.TID 0000.0001)                 8.385422607492096E+10,      /* J = 44 */
(PID.TID 0000.0001)                 8.128706449983365E+10,      /* J = 45 */
(PID.TID 0000.0001)                 7.852407526645966E+10,      /* J = 46 */
(PID.TID 0000.0001)                 7.557191465787256E+10,      /* J = 47 */
(PID.TID 0000.0001)                 7.243769468755632E+10,      /* J = 48 */
(PID.TID 0000.0001)                 6.912896596594559E+10,      /* J = 49 */
(PID.TID 0000.0001)                 6.565369951034003E+10,      /* J = 50 */
(PID.TID 0000.0001)                 6.202026754202965E+10,      /* J = 51 */
(PID.TID 0000.0001)                 5.823742331687641E+10,      /* J = 52 */
(PID.TID 0000.0001)                 5.431428003795675E+10,      /* J = 53 */
(PID.TID 0000.0001)                 5.026028890105701E+10,      /* J = 54 */
(PID.TID 0000.0001)                 4.608521632591324E+10,      /* J = 55 */
(PID.TID 0000.0001)                 4.179912042805190E+10,      /* J = 56 */
(PID.TID 0000.0001)                 3.741232678790870E+10,      /* J = 57 */
(PID.TID 0000.0001)                 3.293540357560110E+10,      /* J = 58 */
(PID.TID 0000.0001)                 2.837913609127881E+10,      /* J = 59 */
(PID.TID 0000.0001)                 2.375450078239423E+10,      /* J = 60 */
(PID.TID 0000.0001)                 1.907263880047594E+10,      /* J = 61 */
(PID.TID 0000.0001)                 1.434482916112175E+10,      /* J = 62 */
(PID.TID 0000.0001)                 9.582461571859739E+09,      /* J = 63 */
(PID.TID 0000.0001)                 4.797008993346594E+09       /* J = 64 */
(PID.TID 0000.0001)     ;
(PID.TID 0000.0001) globalArea = /* Integrated horizontal Area (m^2) */
(PID.TID 0000.0001)                 3.303322488638320E+14
(PID.TID 0000.0001)     ;
(PID.TID 0000.0001) the_run_name = /* Name of this simulation */
(PID.TID 0000.0001)               'Tutorial Biogeo'
(PID.TID 0000.0001)     ;
(PID.TID 0000.0001) // =======================================================
(PID.TID 0000.0001) // End of Model config. summary
(PID.TID 0000.0001) // =======================================================
(PID.TID 0000.0001) 
(PID.TID 0000.0001) == Packages configuration : Check & print summary ==
(PID.TID 0000.0001) 
(PID.TID 0000.0001) GMREDI_CHECK: #define GMREDI
(PID.TID 0000.0001) GM_AdvForm =     /* if FALSE => use SkewFlux Form */
(PID.TID 0000.0001)                   F
(PID.TID 0000.0001)     ;
(PID.TID 0000.0001) GM_InMomAsStress = /* if TRUE => apply as Eddy Stress */
(PID.TID 0000.0001)                   F
(PID.TID 0000.0001)     ;
(PID.TID 0000.0001) GM_AdvSeparate = /* Calc Bolus & Euler Adv. separately */
(PID.TID 0000.0001)                   F
(PID.TID 0000.0001)     ;
(PID.TID 0000.0001) GM_ExtraDiag =   /* Tensor Extra Diag (line 1&2) non 0 */
(PID.TID 0000.0001)                   F
(PID.TID 0000.0001)     ;
(PID.TID 0000.0001) GM_isopycK =    /* Background Isopyc. Diffusivity [m^2/s] */
(PID.TID 0000.0001)                 1.000000000000000E+03
(PID.TID 0000.0001)     ;
(PID.TID 0000.0001) GM_advec*K =    /* Backg. GM-Advec(=Bolus) Diffusivity [m^2/s] */
(PID.TID 0000.0001)                 0.000000000000000E+00
(PID.TID 0000.0001)     ;
(PID.TID 0000.0001) GM_skewflx*K =  /* Background GM_SkewFlx Diffusivity [m^2/s] */
(PID.TID 0000.0001)                 1.000000000000000E+03
(PID.TID 0000.0001)     ;
(PID.TID 0000.0001) GM_isoFac_calcK = /* Fraction of dynamic K added to Redi tensor */
(PID.TID 0000.0001)                 1.000000000000000E+00
(PID.TID 0000.0001)     ;
(PID.TID 0000.0001) GM_Kmin_horiz = /* Minimum Horizontal Diffusivity [m^2/s] */
(PID.TID 0000.0001)                 1.000000000000000E+02
(PID.TID 0000.0001)     ;
(PID.TID 0000.0001) GM_Visbeck_alpha = /* Visbeck alpha coeff. [-] */
(PID.TID 0000.0001)                 0.000000000000000E+00
(PID.TID 0000.0001)     ;
(PID.TID 0000.0001) GM_Small_Number =  /* epsilon used in slope calc */
(PID.TID 0000.0001)                 9.999999999999999E-21
(PID.TID 0000.0001)     ;
(PID.TID 0000.0001) GM_slopeSqCutoff = /* Slope^2 cut-off value */
(PID.TID 0000.0001)                 1.000000000000000E+48
(PID.TID 0000.0001)     ;
(PID.TID 0000.0001) GM_taper_scheme =  /* Type of Tapering/Clipping scheme */
(PID.TID 0000.0001)               'gkw91                                   '
(PID.TID 0000.0001)     ;
(PID.TID 0000.0001) GM_maxSlope =  /* Maximum Slope (Tapering/Clipping) */
(PID.TID 0000.0001)                 1.000000000000000E-02
(PID.TID 0000.0001)     ;
(PID.TID 0000.0001) GM_facTrL2dz = /* Minimum Trans.Layer Thick. (factor of dz) */
(PID.TID 0000.0001)                 1.000000000000000E+00
(PID.TID 0000.0001)     ;
(PID.TID 0000.0001) GM_facTrL2ML = /* Max.Trans.Layer Thick. (factor of MxL Depth)*/
(PID.TID 0000.0001)                 5.000000000000000E+00
(PID.TID 0000.0001)     ;
(PID.TID 0000.0001) GM_maxTransLay = /* Maximum Transition Layer Thickness [m] */
(PID.TID 0000.0001)                 5.000000000000000E+02
(PID.TID 0000.0001)     ;
(PID.TID 0000.0001) GM_UseBVP = /* if TRUE => use bvp a la Ferrari et al. (2010) */
(PID.TID 0000.0001)                   F
(PID.TID 0000.0001)     ;
(PID.TID 0000.0001) GM_BVP_ModeNumber = /* Vertical mode number for BVP wave speed */
(PID.TID 0000.0001)                       1
(PID.TID 0000.0001)     ;
(PID.TID 0000.0001) GM_BVP_cMin = /* Minimum wave speed for BVP [m/s] */
(PID.TID 0000.0001)                 1.000000000000000E-01
(PID.TID 0000.0001)     ;
(PID.TID 0000.0001) GM_useSubMeso = /* if TRUE => use Sub-Meso param. (B.Fox-Kemper) */
(PID.TID 0000.0001)                   F
(PID.TID 0000.0001)     ;
(PID.TID 0000.0001) subMeso_Ceff = /* efficiency coeff. of Mixed-Layer Eddies [-] */
(PID.TID 0000.0001)                 7.000000000000001E-02
(PID.TID 0000.0001)     ;
(PID.TID 0000.0001) subMeso_invTau = /* inverse of Sub-Meso mixing time-scale [/s] */
(PID.TID 0000.0001)                 2.000000000000000E-06
(PID.TID 0000.0001)     ;
(PID.TID 0000.0001) subMeso_LfMin = /* minimum length-scale "Lf" [m] */
(PID.TID 0000.0001)                 1.000000000000000E+03
(PID.TID 0000.0001)     ;
(PID.TID 0000.0001) subMeso_Lmax = /* maximum grid-scale length [m] */
(PID.TID 0000.0001)                 1.100000000000000E+05
(PID.TID 0000.0001)     ;
(PID.TID 0000.0001) GM_useLeithQG = /* if TRUE => add QG Leith viscosity to GMRedi tensor */
(PID.TID 0000.0001)                   F
(PID.TID 0000.0001)     ;
(PID.TID 0000.0001) GM_useGEOM = /* using GEOMETRIC */
(PID.TID 0000.0001)                   F
(PID.TID 0000.0001)     ;
(PID.TID 0000.0001) EXF_CHECK: #define ALLOW_EXF
(PID.TID 0000.0001) PTRACERS_CHECK: #define ALLOW_PTRACERS
(PID.TID 0000.0001) // ===================================
(PID.TID 0000.0001) // PTRACERS parameters
(PID.TID 0000.0001) // ===================================
(PID.TID 0000.0001) PTRACERS_numInUse = /* number of tracers */
(PID.TID 0000.0001)                       8
(PID.TID 0000.0001)     ;
(PID.TID 0000.0001) PTRACERS_Iter0 = /* timestep number when tracers are initialized */
(PID.TID 0000.0001)                       0
(PID.TID 0000.0001)     ;
(PID.TID 0000.0001) PTRACERS_startAllTrc =/* all tracers start @ startTime */
(PID.TID 0000.0001)                   T
(PID.TID 0000.0001)     ;
(PID.TID 0000.0001) PTRACERS_doAB_onGpTr =/* apply AB on Tendencies (rather than on Tracers) */
(PID.TID 0000.0001)                   T
(PID.TID 0000.0001)     ;
(PID.TID 0000.0001) PTRACERS_addSrelax2EmP =/* add Salt relaxation to EmP */
(PID.TID 0000.0001)                   F
(PID.TID 0000.0001)     ;
(PID.TID 0000.0001) PTRACERS_dTLev =   /* Ptracer timestep ( s ) */
(PID.TID 0000.0001)    15 @  9.000000000000000E+02              /* K =  1: 15 */
(PID.TID 0000.0001)     ;
(PID.TID 0000.0001) PTRACERS_monitorFreq = /* Frequency^-1 for monitor output (s) */
(PID.TID 0000.0001)                 1.000000000000000E+00
(PID.TID 0000.0001)     ;
(PID.TID 0000.0001) PTRACERS_dumpFreq = /* Frequency^-1 for snapshot output (s) */
(PID.TID 0000.0001)                 2.160000000000000E+05
(PID.TID 0000.0001)     ;
(PID.TID 0000.0001) PTRACERS_useRecords = /* all tracers in 1 file */
(PID.TID 0000.0001)                   F
(PID.TID 0000.0001)     ;
(PID.TID 0000.0001) PTRACERS_snapshot_mnc = /* use MNC for snapshot output */
(PID.TID 0000.0001)                   F
(PID.TID 0000.0001)     ;
(PID.TID 0000.0001) PTRACERS_pickup_write_mnc = /* use MNC for writing pickups */
(PID.TID 0000.0001)                   F
(PID.TID 0000.0001)     ;
(PID.TID 0000.0001) PTRACERS_pickup_read_mnc = /* use MNC for reading pickups */
(PID.TID 0000.0001)                   F
(PID.TID 0000.0001)     ;
(PID.TID 0000.0001)  -----------------------------------
(PID.TID 0000.0001)  tracer number :    1
(PID.TID 0000.0001) PTRACERS_names = /* Tracer short name */
(PID.TID 0000.0001)               'dic'
(PID.TID 0000.0001)     ;
(PID.TID 0000.0001) PTRACERS_long_names = /* Tracer long name */
(PID.TID 0000.0001)               'Dissolved Inorganic Carbon'
(PID.TID 0000.0001)     ;
(PID.TID 0000.0001) PTRACERS_ioLabel = /* tracer IO Label */
(PID.TID 0000.0001)               '01'
(PID.TID 0000.0001)     ;
(PID.TID 0000.0001) PTRACERS_advScheme = /* Advection Scheme */
(PID.TID 0000.0001)                      30
(PID.TID 0000.0001)     ;
(PID.TID 0000.0001) PTRACERS_SOM_Advection = /* tracer uses SOM advection scheme */
(PID.TID 0000.0001)                   F
(PID.TID 0000.0001)     ;
(PID.TID 0000.0001) PTRACERS_ImplVertAdv = /* implicit vert. advection flag */
(PID.TID 0000.0001)                   F
(PID.TID 0000.0001)     ;
(PID.TID 0000.0001) PTRACERS_MultiDimAdv = /* tracer uses Multi-Dim advection */
(PID.TID 0000.0001)                   T
(PID.TID 0000.0001)     ;
(PID.TID 0000.0001) PTRACERS_AdamsBashGtr = /* apply AB on tracer tendency */
(PID.TID 0000.0001)                   F
(PID.TID 0000.0001)     ;
(PID.TID 0000.0001) PTRACERS_AdamsBash_Tr = /* apply AB on passive tracer */
(PID.TID 0000.0001)                   F
(PID.TID 0000.0001)     ;
(PID.TID 0000.0001) PTRACERS_diffKh = /* Laplacian Diffusivity */
(PID.TID 0000.0001)                 1.000000000000000E+00
(PID.TID 0000.0001)     ;
(PID.TID 0000.0001) PTRACERS_diffK4 = /* Biharmonic Diffusivity */
(PID.TID 0000.0001)                 0.000000000000000E+00
(PID.TID 0000.0001)     ;
(PID.TID 0000.0001) PTRACERS_diffKrNr = /* Vertical Diffusivity */
(PID.TID 0000.0001)    15 @  3.000000000000000E-05              /* K =  1: 15 */
(PID.TID 0000.0001)     ;
(PID.TID 0000.0001) PTRACERS_useGMRedi = /* apply GM-Redi */
(PID.TID 0000.0001)                   T
(PID.TID 0000.0001)     ;
(PID.TID 0000.0001) PTRACERS_useDWNSLP = /* apply DOWN-SLOPE Flow */
(PID.TID 0000.0001)                   F
(PID.TID 0000.0001)     ;
(PID.TID 0000.0001) PTRACERS_useKPP = /* apply KPP scheme */
(PID.TID 0000.0001)                   F
(PID.TID 0000.0001)     ;
(PID.TID 0000.0001) PTRACERS_ref = /* Reference vertical profile */
(PID.TID 0000.0001)    15 @  2.028200000000000E+00              /* K =  1: 15 */
(PID.TID 0000.0001)     ;
(PID.TID 0000.0001) PTRACERS_EvPrRn =/* tracer conc. in Evap. & Rain */
(PID.TID 0000.0001)                 1.234567000000000E+05
(PID.TID 0000.0001)     ;
(PID.TID 0000.0001)  -----------------------------------
(PID.TID 0000.0001)  tracer number :    2
(PID.TID 0000.0001) PTRACERS_names = /* Tracer short name */
(PID.TID 0000.0001)               'alk'
(PID.TID 0000.0001)     ;
(PID.TID 0000.0001) PTRACERS_long_names = /* Tracer long name */
(PID.TID 0000.0001)               'Alkalinity'
(PID.TID 0000.0001)     ;
(PID.TID 0000.0001) PTRACERS_ioLabel = /* tracer IO Label */
(PID.TID 0000.0001)               '02'
(PID.TID 0000.0001)     ;
(PID.TID 0000.0001) PTRACERS_advScheme = /* Advection Scheme */
(PID.TID 0000.0001)                      30
(PID.TID 0000.0001)     ;
(PID.TID 0000.0001) PTRACERS_SOM_Advection = /* tracer uses SOM advection scheme */
(PID.TID 0000.0001)                   F
(PID.TID 0000.0001)     ;
(PID.TID 0000.0001) PTRACERS_ImplVertAdv = /* implicit vert. advection flag */
(PID.TID 0000.0001)                   F
(PID.TID 0000.0001)     ;
(PID.TID 0000.0001) PTRACERS_MultiDimAdv = /* tracer uses Multi-Dim advection */
(PID.TID 0000.0001)                   T
(PID.TID 0000.0001)     ;
(PID.TID 0000.0001) PTRACERS_AdamsBashGtr = /* apply AB on tracer tendency */
(PID.TID 0000.0001)                   F
(PID.TID 0000.0001)     ;
(PID.TID 0000.0001) PTRACERS_AdamsBash_Tr = /* apply AB on passive tracer */
(PID.TID 0000.0001)                   F
(PID.TID 0000.0001)     ;
(PID.TID 0000.0001) PTRACERS_diffKh = /* Laplacian Diffusivity */
(PID.TID 0000.0001)                 1.000000000000000E+00
(PID.TID 0000.0001)     ;
(PID.TID 0000.0001) PTRACERS_diffK4 = /* Biharmonic Diffusivity */
(PID.TID 0000.0001)                 0.000000000000000E+00
(PID.TID 0000.0001)     ;
(PID.TID 0000.0001) PTRACERS_diffKrNr = /* Vertical Diffusivity */
(PID.TID 0000.0001)    15 @  3.000000000000000E-05              /* K =  1: 15 */
(PID.TID 0000.0001)     ;
(PID.TID 0000.0001) PTRACERS_useGMRedi = /* apply GM-Redi */
(PID.TID 0000.0001)                   T
(PID.TID 0000.0001)     ;
(PID.TID 0000.0001) PTRACERS_useDWNSLP = /* apply DOWN-SLOPE Flow */
(PID.TID 0000.0001)                   F
(PID.TID 0000.0001)     ;
(PID.TID 0000.0001) PTRACERS_useKPP = /* apply KPP scheme */
(PID.TID 0000.0001)                   F
(PID.TID 0000.0001)     ;
(PID.TID 0000.0001) PTRACERS_ref = /* Reference vertical profile */
(PID.TID 0000.0001)    15 @  2.308600000000000E+00              /* K =  1: 15 */
(PID.TID 0000.0001)     ;
(PID.TID 0000.0001) PTRACERS_EvPrRn =/* tracer conc. in Evap. & Rain */
(PID.TID 0000.0001)                 1.234567000000000E+05
(PID.TID 0000.0001)     ;
(PID.TID 0000.0001)  -----------------------------------
(PID.TID 0000.0001)  tracer number :    3
(PID.TID 0000.0001) PTRACERS_names = /* Tracer short name */
(PID.TID 0000.0001)               'o2'
(PID.TID 0000.0001)     ;
(PID.TID 0000.0001) PTRACERS_long_names = /* Tracer long name */
(PID.TID 0000.0001)               'Dissolved Oxygen'
(PID.TID 0000.0001)     ;
(PID.TID 0000.0001) PTRACERS_ioLabel = /* tracer IO Label */
(PID.TID 0000.0001)               '03'
(PID.TID 0000.0001)     ;
(PID.TID 0000.0001) PTRACERS_advScheme = /* Advection Scheme */
(PID.TID 0000.0001)                      30
(PID.TID 0000.0001)     ;
(PID.TID 0000.0001) PTRACERS_SOM_Advection = /* tracer uses SOM advection scheme */
(PID.TID 0000.0001)                   F
(PID.TID 0000.0001)     ;
(PID.TID 0000.0001) PTRACERS_ImplVertAdv = /* implicit vert. advection flag */
(PID.TID 0000.0001)                   F
(PID.TID 0000.0001)     ;
(PID.TID 0000.0001) PTRACERS_MultiDimAdv = /* tracer uses Multi-Dim advection */
(PID.TID 0000.0001)                   T
(PID.TID 0000.0001)     ;
(PID.TID 0000.0001) PTRACERS_AdamsBashGtr = /* apply AB on tracer tendency */
(PID.TID 0000.0001)                   F
(PID.TID 0000.0001)     ;
(PID.TID 0000.0001) PTRACERS_AdamsBash_Tr = /* apply AB on passive tracer */
(PID.TID 0000.0001)                   F
(PID.TID 0000.0001)     ;
(PID.TID 0000.0001) PTRACERS_diffKh = /* Laplacian Diffusivity */
(PID.TID 0000.0001)                 1.000000000000000E+00
(PID.TID 0000.0001)     ;
(PID.TID 0000.0001) PTRACERS_diffK4 = /* Biharmonic Diffusivity */
(PID.TID 0000.0001)                 0.000000000000000E+00
(PID.TID 0000.0001)     ;
(PID.TID 0000.0001) PTRACERS_diffKrNr = /* Vertical Diffusivity */
(PID.TID 0000.0001)    15 @  3.000000000000000E-05              /* K =  1: 15 */
(PID.TID 0000.0001)     ;
(PID.TID 0000.0001) PTRACERS_useGMRedi = /* apply GM-Redi */
(PID.TID 0000.0001)                   T
(PID.TID 0000.0001)     ;
(PID.TID 0000.0001) PTRACERS_useDWNSLP = /* apply DOWN-SLOPE Flow */
(PID.TID 0000.0001)                   F
(PID.TID 0000.0001)     ;
(PID.TID 0000.0001) PTRACERS_useKPP = /* apply KPP scheme */
(PID.TID 0000.0001)                   F
(PID.TID 0000.0001)     ;
(PID.TID 0000.0001) PTRACERS_ref = /* Reference vertical profile */
(PID.TID 0000.0001)    15 @  2.000000000000000E-01              /* K =  1: 15 */
(PID.TID 0000.0001)     ;
(PID.TID 0000.0001) PTRACERS_EvPrRn =/* tracer conc. in Evap. & Rain */
(PID.TID 0000.0001)                 1.234567000000000E+05
(PID.TID 0000.0001)     ;
(PID.TID 0000.0001)  -----------------------------------
(PID.TID 0000.0001)  tracer number :    4
(PID.TID 0000.0001) PTRACERS_names = /* Tracer short name */
(PID.TID 0000.0001)               'no3'
(PID.TID 0000.0001)     ;
(PID.TID 0000.0001) PTRACERS_long_names = /* Tracer long name */
(PID.TID 0000.0001)               'Nitrate'
(PID.TID 0000.0001)     ;
(PID.TID 0000.0001) PTRACERS_ioLabel = /* tracer IO Label */
(PID.TID 0000.0001)               '04'
(PID.TID 0000.0001)     ;
(PID.TID 0000.0001) PTRACERS_advScheme = /* Advection Scheme */
(PID.TID 0000.0001)                      30
(PID.TID 0000.0001)     ;
(PID.TID 0000.0001) PTRACERS_SOM_Advection = /* tracer uses SOM advection scheme */
(PID.TID 0000.0001)                   F
(PID.TID 0000.0001)     ;
(PID.TID 0000.0001) PTRACERS_ImplVertAdv = /* implicit vert. advection flag */
(PID.TID 0000.0001)                   F
(PID.TID 0000.0001)     ;
(PID.TID 0000.0001) PTRACERS_MultiDimAdv = /* tracer uses Multi-Dim advection */
(PID.TID 0000.0001)                   T
(PID.TID 0000.0001)     ;
(PID.TID 0000.0001) PTRACERS_AdamsBashGtr = /* apply AB on tracer tendency */
(PID.TID 0000.0001)                   F
(PID.TID 0000.0001)     ;
(PID.TID 0000.0001) PTRACERS_AdamsBash_Tr = /* apply AB on passive tracer */
(PID.TID 0000.0001)                   F
(PID.TID 0000.0001)     ;
(PID.TID 0000.0001) PTRACERS_diffKh = /* Laplacian Diffusivity */
(PID.TID 0000.0001)                 1.000000000000000E+00
(PID.TID 0000.0001)     ;
(PID.TID 0000.0001) PTRACERS_diffK4 = /* Biharmonic Diffusivity */
(PID.TID 0000.0001)                 0.000000000000000E+00
(PID.TID 0000.0001)     ;
(PID.TID 0000.0001) PTRACERS_diffKrNr = /* Vertical Diffusivity */
(PID.TID 0000.0001)    15 @  3.000000000000000E-05              /* K =  1: 15 */
(PID.TID 0000.0001)     ;
(PID.TID 0000.0001) PTRACERS_useGMRedi = /* apply GM-Redi */
(PID.TID 0000.0001)                   T
(PID.TID 0000.0001)     ;
(PID.TID 0000.0001) PTRACERS_useDWNSLP = /* apply DOWN-SLOPE Flow */
(PID.TID 0000.0001)                   F
(PID.TID 0000.0001)     ;
(PID.TID 0000.0001) PTRACERS_useKPP = /* apply KPP scheme */
(PID.TID 0000.0001)                   F
(PID.TID 0000.0001)     ;
(PID.TID 0000.0001) PTRACERS_ref = /* Reference vertical profile */
(PID.TID 0000.0001)    15 @  1.000000000000000E-02              /* K =  1: 15 */
(PID.TID 0000.0001)     ;
(PID.TID 0000.0001) PTRACERS_EvPrRn =/* tracer conc. in Evap. & Rain */
(PID.TID 0000.0001)                 1.234567000000000E+05
(PID.TID 0000.0001)     ;
(PID.TID 0000.0001)  -----------------------------------
(PID.TID 0000.0001)  tracer number :    5
(PID.TID 0000.0001) PTRACERS_names = /* Tracer short name */
(PID.TID 0000.0001)               'po4'
(PID.TID 0000.0001)     ;
(PID.TID 0000.0001) PTRACERS_long_names = /* Tracer long name */
(PID.TID 0000.0001)               'Phosphate'
(PID.TID 0000.0001)     ;
(PID.TID 0000.0001) PTRACERS_ioLabel = /* tracer IO Label */
(PID.TID 0000.0001)               '05'
(PID.TID 0000.0001)     ;
(PID.TID 0000.0001) PTRACERS_advScheme = /* Advection Scheme */
(PID.TID 0000.0001)                      30
(PID.TID 0000.0001)     ;
(PID.TID 0000.0001) PTRACERS_SOM_Advection = /* tracer uses SOM advection scheme */
(PID.TID 0000.0001)                   F
(PID.TID 0000.0001)     ;
(PID.TID 0000.0001) PTRACERS_ImplVertAdv = /* implicit vert. advection flag */
(PID.TID 0000.0001)                   F
(PID.TID 0000.0001)     ;
(PID.TID 0000.0001) PTRACERS_MultiDimAdv = /* tracer uses Multi-Dim advection */
(PID.TID 0000.0001)                   T
(PID.TID 0000.0001)     ;
(PID.TID 0000.0001) PTRACERS_AdamsBashGtr = /* apply AB on tracer tendency */
(PID.TID 0000.0001)                   F
(PID.TID 0000.0001)     ;
(PID.TID 0000.0001) PTRACERS_AdamsBash_Tr = /* apply AB on passive tracer */
(PID.TID 0000.0001)                   F
(PID.TID 0000.0001)     ;
(PID.TID 0000.0001) PTRACERS_diffKh = /* Laplacian Diffusivity */
(PID.TID 0000.0001)                 1.000000000000000E+00
(PID.TID 0000.0001)     ;
(PID.TID 0000.0001) PTRACERS_diffK4 = /* Biharmonic Diffusivity */
(PID.TID 0000.0001)                 0.000000000000000E+00
(PID.TID 0000.0001)     ;
(PID.TID 0000.0001) PTRACERS_diffKrNr = /* Vertical Diffusivity */
(PID.TID 0000.0001)    15 @  3.000000000000000E-05              /* K =  1: 15 */
(PID.TID 0000.0001)     ;
(PID.TID 0000.0001) PTRACERS_useGMRedi = /* apply GM-Redi */
(PID.TID 0000.0001)                   T
(PID.TID 0000.0001)     ;
(PID.TID 0000.0001) PTRACERS_useDWNSLP = /* apply DOWN-SLOPE Flow */
(PID.TID 0000.0001)                   F
(PID.TID 0000.0001)     ;
(PID.TID 0000.0001) PTRACERS_useKPP = /* apply KPP scheme */
(PID.TID 0000.0001)                   F
(PID.TID 0000.0001)     ;
(PID.TID 0000.0001) PTRACERS_ref = /* Reference vertical profile */
(PID.TID 0000.0001)    15 @  5.438000000000000E-04              /* K =  1: 15 */
(PID.TID 0000.0001)     ;
(PID.TID 0000.0001) PTRACERS_EvPrRn =/* tracer conc. in Evap. & Rain */
(PID.TID 0000.0001)                 1.234567000000000E+05
(PID.TID 0000.0001)     ;
(PID.TID 0000.0001)  -----------------------------------
(PID.TID 0000.0001)  tracer number :    6
(PID.TID 0000.0001) PTRACERS_names = /* Tracer short name */
(PID.TID 0000.0001)               'fet'
(PID.TID 0000.0001)     ;
(PID.TID 0000.0001) PTRACERS_long_names = /* Tracer long name */
(PID.TID 0000.0001)               'Dissolved Inorganic Iron'
(PID.TID 0000.0001)     ;
(PID.TID 0000.0001) PTRACERS_ioLabel = /* tracer IO Label */
(PID.TID 0000.0001)               '06'
(PID.TID 0000.0001)     ;
(PID.TID 0000.0001) PTRACERS_advScheme = /* Advection Scheme */
(PID.TID 0000.0001)                      30
(PID.TID 0000.0001)     ;
(PID.TID 0000.0001) PTRACERS_SOM_Advection = /* tracer uses SOM advection scheme */
(PID.TID 0000.0001)                   F
(PID.TID 0000.0001)     ;
(PID.TID 0000.0001) PTRACERS_ImplVertAdv = /* implicit vert. advection flag */
(PID.TID 0000.0001)                   F
(PID.TID 0000.0001)     ;
(PID.TID 0000.0001) PTRACERS_MultiDimAdv = /* tracer uses Multi-Dim advection */
(PID.TID 0000.0001)                   T
(PID.TID 0000.0001)     ;
(PID.TID 0000.0001) PTRACERS_AdamsBashGtr = /* apply AB on tracer tendency */
(PID.TID 0000.0001)                   F
(PID.TID 0000.0001)     ;
(PID.TID 0000.0001) PTRACERS_AdamsBash_Tr = /* apply AB on passive tracer */
(PID.TID 0000.0001)                   F
(PID.TID 0000.0001)     ;
(PID.TID 0000.0001) PTRACERS_diffKh = /* Laplacian Diffusivity */
(PID.TID 0000.0001)                 1.000000000000000E+00
(PID.TID 0000.0001)     ;
(PID.TID 0000.0001) PTRACERS_diffK4 = /* Biharmonic Diffusivity */
(PID.TID 0000.0001)                 0.000000000000000E+00
(PID.TID 0000.0001)     ;
(PID.TID 0000.0001) PTRACERS_diffKrNr = /* Vertical Diffusivity */
(PID.TID 0000.0001)    15 @  3.000000000000000E-05              /* K =  1: 15 */
(PID.TID 0000.0001)     ;
(PID.TID 0000.0001) PTRACERS_useGMRedi = /* apply GM-Redi */
(PID.TID 0000.0001)                   T
(PID.TID 0000.0001)     ;
(PID.TID 0000.0001) PTRACERS_useDWNSLP = /* apply DOWN-SLOPE Flow */
(PID.TID 0000.0001)                   F
(PID.TID 0000.0001)     ;
(PID.TID 0000.0001) PTRACERS_useKPP = /* apply KPP scheme */
(PID.TID 0000.0001)                   F
(PID.TID 0000.0001)     ;
(PID.TID 0000.0001) PTRACERS_ref = /* Reference vertical profile */
(PID.TID 0000.0001)    15 @  6.000000000000000E-07              /* K =  1: 15 */
(PID.TID 0000.0001)     ;
(PID.TID 0000.0001) PTRACERS_EvPrRn =/* tracer conc. in Evap. & Rain */
(PID.TID 0000.0001)                 1.234567000000000E+05
(PID.TID 0000.0001)     ;
(PID.TID 0000.0001)  -----------------------------------
(PID.TID 0000.0001)  tracer number :    7
(PID.TID 0000.0001) PTRACERS_names = /* Tracer short name */
(PID.TID 0000.0001)               'don'
(PID.TID 0000.0001)     ;
(PID.TID 0000.0001) PTRACERS_long_names = /* Tracer long name */
(PID.TID 0000.0001)               'Dissolved Organic Nitrogen'
(PID.TID 0000.0001)     ;
(PID.TID 0000.0001) PTRACERS_ioLabel = /* tracer IO Label */
(PID.TID 0000.0001)               '07'
(PID.TID 0000.0001)     ;
(PID.TID 0000.0001) PTRACERS_advScheme = /* Advection Scheme */
(PID.TID 0000.0001)                      30
(PID.TID 0000.0001)     ;
(PID.TID 0000.0001) PTRACERS_SOM_Advection = /* tracer uses SOM advection scheme */
(PID.TID 0000.0001)                   F
(PID.TID 0000.0001)     ;
(PID.TID 0000.0001) PTRACERS_ImplVertAdv = /* implicit vert. advection flag */
(PID.TID 0000.0001)                   F
(PID.TID 0000.0001)     ;
(PID.TID 0000.0001) PTRACERS_MultiDimAdv = /* tracer uses Multi-Dim advection */
(PID.TID 0000.0001)                   T
(PID.TID 0000.0001)     ;
(PID.TID 0000.0001) PTRACERS_AdamsBashGtr = /* apply AB on tracer tendency */
(PID.TID 0000.0001)                   F
(PID.TID 0000.0001)     ;
(PID.TID 0000.0001) PTRACERS_AdamsBash_Tr = /* apply AB on passive tracer */
(PID.TID 0000.0001)                   F
(PID.TID 0000.0001)     ;
(PID.TID 0000.0001) PTRACERS_diffKh = /* Laplacian Diffusivity */
(PID.TID 0000.0001)                 1.000000000000000E+00
(PID.TID 0000.0001)     ;
(PID.TID 0000.0001) PTRACERS_diffK4 = /* Biharmonic Diffusivity */
(PID.TID 0000.0001)                 0.000000000000000E+00
(PID.TID 0000.0001)     ;
(PID.TID 0000.0001) PTRACERS_diffKrNr = /* Vertical Diffusivity */
(PID.TID 0000.0001)    15 @  3.000000000000000E-05              /* K =  1: 15 */
(PID.TID 0000.0001)     ;
(PID.TID 0000.0001) PTRACERS_useGMRedi = /* apply GM-Redi */
(PID.TID 0000.0001)                   T
(PID.TID 0000.0001)     ;
(PID.TID 0000.0001) PTRACERS_useDWNSLP = /* apply DOWN-SLOPE Flow */
(PID.TID 0000.0001)                   F
(PID.TID 0000.0001)     ;
(PID.TID 0000.0001) PTRACERS_useKPP = /* apply KPP scheme */
(PID.TID 0000.0001)                   F
(PID.TID 0000.0001)     ;
(PID.TID 0000.0001) PTRACERS_ref = /* Reference vertical profile */
(PID.TID 0000.0001)    15 @  0.000000000000000E+00              /* K =  1: 15 */
(PID.TID 0000.0001)     ;
(PID.TID 0000.0001) PTRACERS_EvPrRn =/* tracer conc. in Evap. & Rain */
(PID.TID 0000.0001)                 1.234567000000000E+05
(PID.TID 0000.0001)     ;
(PID.TID 0000.0001)  -----------------------------------
(PID.TID 0000.0001)  tracer number :    8
(PID.TID 0000.0001) PTRACERS_names = /* Tracer short name */
(PID.TID 0000.0001)               'dop'
(PID.TID 0000.0001)     ;
(PID.TID 0000.0001) PTRACERS_long_names = /* Tracer long name */
(PID.TID 0000.0001)               'Dissolved Organic Phosphorus'
(PID.TID 0000.0001)     ;
(PID.TID 0000.0001) PTRACERS_ioLabel = /* tracer IO Label */
(PID.TID 0000.0001)               '08'
(PID.TID 0000.0001)     ;
(PID.TID 0000.0001) PTRACERS_advScheme = /* Advection Scheme */
(PID.TID 0000.0001)                      30
(PID.TID 0000.0001)     ;
(PID.TID 0000.0001) PTRACERS_SOM_Advection = /* tracer uses SOM advection scheme */
(PID.TID 0000.0001)                   F
(PID.TID 0000.0001)     ;
(PID.TID 0000.0001) PTRACERS_ImplVertAdv = /* implicit vert. advection flag */
(PID.TID 0000.0001)                   F
(PID.TID 0000.0001)     ;
(PID.TID 0000.0001) PTRACERS_MultiDimAdv = /* tracer uses Multi-Dim advection */
(PID.TID 0000.0001)                   T
(PID.TID 0000.0001)     ;
(PID.TID 0000.0001) PTRACERS_AdamsBashGtr = /* apply AB on tracer tendency */
(PID.TID 0000.0001)                   F
(PID.TID 0000.0001)     ;
(PID.TID 0000.0001) PTRACERS_AdamsBash_Tr = /* apply AB on passive tracer */
(PID.TID 0000.0001)                   F
(PID.TID 0000.0001)     ;
(PID.TID 0000.0001) PTRACERS_diffKh = /* Laplacian Diffusivity */
(PID.TID 0000.0001)                 1.000000000000000E+00
(PID.TID 0000.0001)     ;
(PID.TID 0000.0001) PTRACERS_diffK4 = /* Biharmonic Diffusivity */
(PID.TID 0000.0001)                 0.000000000000000E+00
(PID.TID 0000.0001)     ;
(PID.TID 0000.0001) PTRACERS_diffKrNr = /* Vertical Diffusivity */
(PID.TID 0000.0001)    15 @  3.000000000000000E-05              /* K =  1: 15 */
(PID.TID 0000.0001)     ;
(PID.TID 0000.0001) PTRACERS_useGMRedi = /* apply GM-Redi */
(PID.TID 0000.0001)                   T
(PID.TID 0000.0001)     ;
(PID.TID 0000.0001) PTRACERS_useDWNSLP = /* apply DOWN-SLOPE Flow */
(PID.TID 0000.0001)                   F
(PID.TID 0000.0001)     ;
(PID.TID 0000.0001) PTRACERS_useKPP = /* apply KPP scheme */
(PID.TID 0000.0001)                   F
(PID.TID 0000.0001)     ;
(PID.TID 0000.0001) PTRACERS_ref = /* Reference vertical profile */
(PID.TID 0000.0001)    15 @  0.000000000000000E+00              /* K =  1: 15 */
(PID.TID 0000.0001)     ;
(PID.TID 0000.0001) PTRACERS_EvPrRn =/* tracer conc. in Evap. & Rain */
(PID.TID 0000.0001)                 1.234567000000000E+05
(PID.TID 0000.0001)     ;
(PID.TID 0000.0001)  -----------------------------------
(PID.TID 0000.0001) GCHEM_CHECK  --> Starts to check GCHEM set-up
(PID.TID 0000.0001) GCHEM_CHECK  <-- Ends Normally
(PID.TID 0000.0001) 
(PID.TID 0000.0001) CTRL_CHECK:  --> Starts to check CTRL set-up
(PID.TID 0000.0001) CTRL_CHECK: pTracer #   1 in Gen-CTRL
(PID.TID 0000.0001) CTRL_CHECK: pTracer #   2 in Gen-CTRL
(PID.TID 0000.0001) CTRL_CHECK: pTracer #   3 in Gen-CTRL
(PID.TID 0000.0001) CTRL_CHECK: pTracer #   4 in Gen-CTRL
(PID.TID 0000.0001) CTRL_CHECK: pTracer #   5 in Gen-CTRL
(PID.TID 0000.0001) CTRL_CHECK: pTracer #   6 in Gen-CTRL
(PID.TID 0000.0001) CTRL_CHECK:  <-- Ends Normally
(PID.TID 0000.0001) 
(PID.TID 0000.0001) COST_CHECK: #define ALLOW_COST
(PID.TID 0000.0001) ECCO_CHECK:  --> Starts to check ECCO set-up
(PID.TID 0000.0001) etagcm defined by gencost =  0
(PID.TID 0000.0001) 
(PID.TID 0000.0001) // =======================================================
(PID.TID 0000.0001) // ECCO configuration >>> START <<<
(PID.TID 0000.0001) // =======================================================
(PID.TID 0000.0001) 
(PID.TID 0000.0001) gencost( 1) = sst-MW
(PID.TID 0000.0001) -------------
(PID.TID 0000.0001)  data file = lev_clim_temp.bin
(PID.TID 0000.0001)  model file = m_sst_day
(PID.TID 0000.0001)  error file = ones_32b.bin
(PID.TID 0000.0001)  gencost_flag =  1
(PID.TID 0000.0001)  gencost_outputlevel =  1
(PID.TID 0000.0001)  gencost_kLev_select =  1
(PID.TID 0000.0001) 
(PID.TID 0000.0001) // =======================================================
(PID.TID 0000.0001) // ECCO configuration  >>> END <<<
(PID.TID 0000.0001) // =======================================================
(PID.TID 0000.0001) 
(PID.TID 0000.0001) ECCO_CHECK:  <-- Ends Normally
(PID.TID 0000.0001) 
(PID.TID 0000.0001) GRDCHK_CHECK: grdchk package
(PID.TID 0000.0001) 
(PID.TID 0000.0001) // =======================================================
(PID.TID 0000.0001) // Gradient check configuration  >>> START <<<
(PID.TID 0000.0001) // =======================================================
(PID.TID 0000.0001) 
(PID.TID 0000.0001)   grdchkvarindex :                      4
(PID.TID 0000.0001)   matching CTRL xx_file:       "xx_ptr2"
(PID.TID 0000.0001)   eps =                         1.000E-05
(PID.TID 0000.0001)   First location:                       0
(PID.TID 0000.0001)   Last location:                        3
(PID.TID 0000.0001)   Increment:                            1
(PID.TID 0000.0001)   grdchkWhichProc:                      0
(PID.TID 0000.0001)   iLocTile =      2 ,   jLocTile =      1
(PID.TID 0000.0001) 
(PID.TID 0000.0001) // =======================================================
(PID.TID 0000.0001) // Gradient check configuration  >>> END <<<
(PID.TID 0000.0001) // =======================================================
(PID.TID 0000.0001) 
(PID.TID 0000.0001) GAD_CHECK: #define ALLOW_GENERIC_ADVDIFF
(PID.TID 0000.0001) // =======================================================
(PID.TID 0000.0001) // Check Model config. (CONFIG_CHECK):
(PID.TID 0000.0001) // CONFIG_CHECK : Normal End
(PID.TID 0000.0001) // =======================================================
(PID.TID 0000.0001) 
(PID.TID 0000.0001) Start initial hydrostatic pressure computation
(PID.TID 0000.0001) Pressure is predetermined for buoyancyRelation OCEANIC
(PID.TID 0000.0001) 
(PID.TID 0000.0001) // =======================================================
(PID.TID 0000.0001) // Begin MONITOR dynamic field statistics
(PID.TID 0000.0001) // =======================================================
(PID.TID 0000.0001) %MON time_tsnumber                =                     0
(PID.TID 0000.0001) %MON time_secondsf                =   0.0000000000000E+00
(PID.TID 0000.0001) %MON dynstat_eta_max              =   0.0000000000000E+00
(PID.TID 0000.0001) %MON dynstat_eta_min              =   0.0000000000000E+00
(PID.TID 0000.0001) %MON dynstat_eta_mean             =   0.0000000000000E+00
(PID.TID 0000.0001) %MON dynstat_eta_sd               =   0.0000000000000E+00
(PID.TID 0000.0001) %MON dynstat_eta_del2             =   0.0000000000000E+00
(PID.TID 0000.0001) %MON dynstat_uvel_max             =   0.0000000000000E+00
(PID.TID 0000.0001) %MON dynstat_uvel_min             =   0.0000000000000E+00
(PID.TID 0000.0001) %MON dynstat_uvel_mean            =   0.0000000000000E+00
(PID.TID 0000.0001) %MON dynstat_uvel_sd              =   0.0000000000000E+00
(PID.TID 0000.0001) %MON dynstat_uvel_del2            =   0.0000000000000E+00
(PID.TID 0000.0001) %MON dynstat_vvel_max             =   0.0000000000000E+00
(PID.TID 0000.0001) %MON dynstat_vvel_min             =   0.0000000000000E+00
(PID.TID 0000.0001) %MON dynstat_vvel_mean            =   0.0000000000000E+00
(PID.TID 0000.0001) %MON dynstat_vvel_sd              =   0.0000000000000E+00
(PID.TID 0000.0001) %MON dynstat_vvel_del2            =   0.0000000000000E+00
(PID.TID 0000.0001) %MON dynstat_wvel_max             =  -0.0000000000000E+00
(PID.TID 0000.0001) %MON dynstat_wvel_min             =  -0.0000000000000E+00
(PID.TID 0000.0001) %MON dynstat_wvel_mean            =   0.0000000000000E+00
(PID.TID 0000.0001) %MON dynstat_wvel_sd              =   0.0000000000000E+00
(PID.TID 0000.0001) %MON dynstat_wvel_del2            =   0.0000000000000E+00
(PID.TID 0000.0001) %MON dynstat_theta_max            =   2.9350790023804E+01
(PID.TID 0000.0001) %MON dynstat_theta_min            =  -1.9000000000000E+00
(PID.TID 0000.0001) %MON dynstat_theta_mean           =   3.7028400846158E+00
(PID.TID 0000.0001) %MON dynstat_theta_sd             =   4.4919297691180E+00
(PID.TID 0000.0001) %MON dynstat_theta_del2           =   1.9105714045853E-03
(PID.TID 0000.0001) %MON dynstat_salt_max             =   3.7393074035645E+01
(PID.TID 0000.0001) %MON dynstat_salt_min             =   3.1641572952271E+01
(PID.TID 0000.0001) %MON dynstat_salt_mean            =   3.4716565199218E+01
(PID.TID 0000.0001) %MON dynstat_salt_sd              =   2.9642246219911E-01
(PID.TID 0000.0001) %MON dynstat_salt_del2            =   3.3126046363364E-04
(PID.TID 0000.0001) %MON forcing_qnet_max             =   0.0000000000000E+00
(PID.TID 0000.0001) %MON forcing_qnet_min             =   0.0000000000000E+00
(PID.TID 0000.0001) %MON forcing_qnet_mean            =   0.0000000000000E+00
(PID.TID 0000.0001) %MON forcing_qnet_sd              =   0.0000000000000E+00
(PID.TID 0000.0001) %MON forcing_qnet_del2            =   0.0000000000000E+00
(PID.TID 0000.0001) %MON forcing_qsw_max              =   0.0000000000000E+00
(PID.TID 0000.0001) %MON forcing_qsw_min              =   0.0000000000000E+00
(PID.TID 0000.0001) %MON forcing_qsw_mean             =   0.0000000000000E+00
(PID.TID 0000.0001) %MON forcing_qsw_sd               =   0.0000000000000E+00
(PID.TID 0000.0001) %MON forcing_qsw_del2             =   0.0000000000000E+00
(PID.TID 0000.0001) %MON forcing_empmr_max            =   0.0000000000000E+00
(PID.TID 0000.0001) %MON forcing_empmr_min            =   0.0000000000000E+00
(PID.TID 0000.0001) %MON forcing_empmr_mean           =   0.0000000000000E+00
(PID.TID 0000.0001) %MON forcing_empmr_sd             =   0.0000000000000E+00
(PID.TID 0000.0001) %MON forcing_empmr_del2           =   0.0000000000000E+00
(PID.TID 0000.0001) %MON forcing_fu_max               =   0.0000000000000E+00
(PID.TID 0000.0001) %MON forcing_fu_min               =   0.0000000000000E+00
(PID.TID 0000.0001) %MON forcing_fu_mean              =   0.0000000000000E+00
(PID.TID 0000.0001) %MON forcing_fu_sd                =   0.0000000000000E+00
(PID.TID 0000.0001) %MON forcing_fu_del2              =   0.0000000000000E+00
(PID.TID 0000.0001) %MON forcing_fv_max               =   0.0000000000000E+00
(PID.TID 0000.0001) %MON forcing_fv_min               =   0.0000000000000E+00
(PID.TID 0000.0001) %MON forcing_fv_mean              =   0.0000000000000E+00
(PID.TID 0000.0001) %MON forcing_fv_sd                =   0.0000000000000E+00
(PID.TID 0000.0001) %MON forcing_fv_del2              =   0.0000000000000E+00
(PID.TID 0000.0001) %MON trAdv_CFL_u_max              =   0.0000000000000E+00
(PID.TID 0000.0001) %MON trAdv_CFL_v_max              =   0.0000000000000E+00
(PID.TID 0000.0001) %MON trAdv_CFL_w_max              =   0.0000000000000E+00
(PID.TID 0000.0001) %MON advcfl_uvel_max              =   0.0000000000000E+00
(PID.TID 0000.0001) %MON advcfl_vvel_max              =   0.0000000000000E+00
(PID.TID 0000.0001) %MON advcfl_wvel_max              =   0.0000000000000E+00
(PID.TID 0000.0001) %MON advcfl_W_hf_max              =   0.0000000000000E+00
(PID.TID 0000.0001) %MON pe_b_mean                    =   0.0000000000000E+00
(PID.TID 0000.0001) %MON ke_max                       =   0.0000000000000E+00
(PID.TID 0000.0001) %MON ke_mean                      =   0.0000000000000E+00
(PID.TID 0000.0001) %MON ke_vol                       =   1.2571476858570E+18
(PID.TID 0000.0001) %MON vort_r_min                   =   0.0000000000000E+00
(PID.TID 0000.0001) %MON vort_r_max                   =   0.0000000000000E+00
(PID.TID 0000.0001) %MON vort_a_mean                  =  -2.4002453570026E-05
(PID.TID 0000.0001) %MON vort_a_sd                    =   7.3137909706342E-05
(PID.TID 0000.0001) %MON vort_p_mean                  =  -2.8585773838204E-05
(PID.TID 0000.0001) %MON vort_p_sd                    =   1.1453381765431E-04
(PID.TID 0000.0001) %MON surfExpan_theta_mean         =   0.0000000000000E+00
(PID.TID 0000.0001) %MON surfExpan_salt_mean          =   0.0000000000000E+00
(PID.TID 0000.0001) // =======================================================
(PID.TID 0000.0001) // End MONITOR dynamic field statistics
(PID.TID 0000.0001) // =======================================================
(PID.TID 0000.0001) // =======================================================
(PID.TID 0000.0001) // Begin MONITOR ptracer field statistics
(PID.TID 0000.0001) // =======================================================
(PID.TID 0000.0001) %MON trcstat_ptracer01_max        =   2.3453021049500E+00
(PID.TID 0000.0001) %MON trcstat_ptracer01_min        =   1.8064596652985E+00
(PID.TID 0000.0001) %MON trcstat_ptracer01_mean       =   2.2008880582142E+00
(PID.TID 0000.0001) %MON trcstat_ptracer01_sd         =   7.6952373502975E-02
(PID.TID 0000.0001) %MON trcstat_ptracer01_del2       =   4.2611729558358E-05
(PID.TID 0000.0001) %MON trcstat_ptracer02_max        =   2.3977425098419E+00
(PID.TID 0000.0001) %MON trcstat_ptracer02_min        =   2.1285221576691E+00
(PID.TID 0000.0001) %MON trcstat_ptracer02_mean       =   2.3062094517207E+00
(PID.TID 0000.0001) %MON trcstat_ptracer02_sd         =   4.1745946677143E-02
(PID.TID 0000.0001) %MON trcstat_ptracer02_del2       =   2.3436609996259E-05
(PID.TID 0000.0001) %MON trcstat_ptracer03_max        =   4.7903439402580E-01
(PID.TID 0000.0001) %MON trcstat_ptracer03_min        =   1.7168744234368E-03
(PID.TID 0000.0001) %MON trcstat_ptracer03_mean       =   1.7341069695970E-01
(PID.TID 0000.0001) %MON trcstat_ptracer03_sd         =   6.3443852530264E-02
(PID.TID 0000.0001) %MON trcstat_ptracer03_del2       =   4.9162187058022E-05
(PID.TID 0000.0001) %MON trcstat_ptracer04_max        =   4.8773415386677E-02
(PID.TID 0000.0001) %MON trcstat_ptracer04_min        =   2.7919921308239E-07
(PID.TID 0000.0001) %MON trcstat_ptracer04_mean       =   3.1284105112480E-02
(PID.TID 0000.0001) %MON trcstat_ptracer04_sd         =   9.0970619731602E-03
(PID.TID 0000.0001) %MON trcstat_ptracer04_del2       =   6.5860528220661E-06
(PID.TID 0000.0001) %MON trcstat_ptracer05_max        =   3.6434102803469E-03
(PID.TID 0000.0001) %MON trcstat_ptracer05_min        =   4.3383789716245E-07
(PID.TID 0000.0001) %MON trcstat_ptracer05_mean       =   2.1903152966321E-03
(PID.TID 0000.0001) %MON trcstat_ptracer05_sd         =   6.4715585569804E-04
(PID.TID 0000.0001) %MON trcstat_ptracer05_del2       =   5.2087562122133E-07
(PID.TID 0000.0001) %MON trcstat_ptracer06_max        =   4.3144641495019E-06
(PID.TID 0000.0001) %MON trcstat_ptracer06_min        =   4.5710002893884E-08
(PID.TID 0000.0001) %MON trcstat_ptracer06_mean       =   4.3239734366228E-07
(PID.TID 0000.0001) %MON trcstat_ptracer06_sd         =   1.4362069390415E-07
(PID.TID 0000.0001) %MON trcstat_ptracer06_del2       =   3.2640702710884E-10
(PID.TID 0000.0001) %MON trcstat_ptracer07_max        =   4.8014768399298E-03
(PID.TID 0000.0001) %MON trcstat_ptracer07_min        =  -3.0291218990897E-06
(PID.TID 0000.0001) %MON trcstat_ptracer07_mean       =   9.5284881618563E-05
(PID.TID 0000.0001) %MON trcstat_ptracer07_sd         =   4.2149730496556E-04
(PID.TID 0000.0001) %MON trcstat_ptracer07_del2       =   5.2191611800717E-07
(PID.TID 0000.0001) %MON trcstat_ptracer08_max        =   3.0009230249561E-04
(PID.TID 0000.0001) %MON trcstat_ptracer08_min        =  -1.8932011869310E-07
(PID.TID 0000.0001) %MON trcstat_ptracer08_mean       =   5.9553051011602E-06
(PID.TID 0000.0001) %MON trcstat_ptracer08_sd         =   2.6343581560347E-05
(PID.TID 0000.0001) %MON trcstat_ptracer08_del2       =   3.2619757375448E-08
(PID.TID 0000.0001) // =======================================================
(PID.TID 0000.0001) // End MONITOR ptracer field statistics
(PID.TID 0000.0001) // =======================================================
(PID.TID 0000.0001) whio : write lev 3 rec   1
(PID.TID 0000.0001) // =======================================================
(PID.TID 0000.0001) // Begin MONITOR EXF statistics
(PID.TID 0000.0001) // =======================================================
(PID.TID 0000.0001) %MON exf_tsnumber                 =                     0
(PID.TID 0000.0001) %MON exf_time_sec                 =   0.0000000000000E+00
(PID.TID 0000.0001) %MON exf_ustress_max              =   0.0000000000000E+00
(PID.TID 0000.0001) %MON exf_ustress_min              =   0.0000000000000E+00
(PID.TID 0000.0001) %MON exf_ustress_mean             =   0.0000000000000E+00
(PID.TID 0000.0001) %MON exf_ustress_sd               =   0.0000000000000E+00
(PID.TID 0000.0001) %MON exf_ustress_del2             =   0.0000000000000E+00
(PID.TID 0000.0001) %MON exf_vstress_max              =   0.0000000000000E+00
(PID.TID 0000.0001) %MON exf_vstress_min              =   0.0000000000000E+00
(PID.TID 0000.0001) %MON exf_vstress_mean             =   0.0000000000000E+00
(PID.TID 0000.0001) %MON exf_vstress_sd               =   0.0000000000000E+00
(PID.TID 0000.0001) %MON exf_vstress_del2             =   0.0000000000000E+00
(PID.TID 0000.0001) %MON exf_hflux_max                =   0.0000000000000E+00
(PID.TID 0000.0001) %MON exf_hflux_min                =   0.0000000000000E+00
(PID.TID 0000.0001) %MON exf_hflux_mean               =   0.0000000000000E+00
(PID.TID 0000.0001) %MON exf_hflux_sd                 =   0.0000000000000E+00
(PID.TID 0000.0001) %MON exf_hflux_del2               =   0.0000000000000E+00
(PID.TID 0000.0001) %MON exf_sflux_max                =   0.0000000000000E+00
(PID.TID 0000.0001) %MON exf_sflux_min                =   0.0000000000000E+00
(PID.TID 0000.0001) %MON exf_sflux_mean               =   0.0000000000000E+00
(PID.TID 0000.0001) %MON exf_sflux_sd                 =   0.0000000000000E+00
(PID.TID 0000.0001) %MON exf_sflux_del2               =   0.0000000000000E+00
(PID.TID 0000.0001) %MON exf_uwind_max                =   0.0000000000000E+00
(PID.TID 0000.0001) %MON exf_uwind_min                =   0.0000000000000E+00
(PID.TID 0000.0001) %MON exf_uwind_mean               =   0.0000000000000E+00
(PID.TID 0000.0001) %MON exf_uwind_sd                 =   0.0000000000000E+00
(PID.TID 0000.0001) %MON exf_uwind_del2               =   0.0000000000000E+00
(PID.TID 0000.0001) %MON exf_vwind_max                =   0.0000000000000E+00
(PID.TID 0000.0001) %MON exf_vwind_min                =   0.0000000000000E+00
(PID.TID 0000.0001) %MON exf_vwind_mean               =   0.0000000000000E+00
(PID.TID 0000.0001) %MON exf_vwind_sd                 =   0.0000000000000E+00
(PID.TID 0000.0001) %MON exf_vwind_del2               =   0.0000000000000E+00
(PID.TID 0000.0001) %MON exf_wspeed_max               =   0.0000000000000E+00
(PID.TID 0000.0001) %MON exf_wspeed_min               =   0.0000000000000E+00
(PID.TID 0000.0001) %MON exf_wspeed_mean              =   0.0000000000000E+00
(PID.TID 0000.0001) %MON exf_wspeed_sd                =   0.0000000000000E+00
(PID.TID 0000.0001) %MON exf_wspeed_del2              =   0.0000000000000E+00
(PID.TID 0000.0001) %MON exf_evap_max                 =   0.0000000000000E+00
(PID.TID 0000.0001) %MON exf_evap_min                 =   0.0000000000000E+00
(PID.TID 0000.0001) %MON exf_evap_mean                =   0.0000000000000E+00
(PID.TID 0000.0001) %MON exf_evap_sd                  =   0.0000000000000E+00
(PID.TID 0000.0001) %MON exf_evap_del2                =   0.0000000000000E+00
(PID.TID 0000.0001) // =======================================================
(PID.TID 0000.0001) // End MONITOR EXF statistics
(PID.TID 0000.0001) // =======================================================
(PID.TID 0000.0001) SOLVE_FOR_PRESSURE: putPmEinXvector =    F
 cg2d: Sum(rhs),rhsMax =  -8.88178419700125E-16  1.12611745267849E+00
(PID.TID 0000.0001)      cg2d_init_res =   8.71047386620148E+00
(PID.TID 0000.0001)      cg2d_iters(min,last) =      -1      28
(PID.TID 0000.0001)      cg2d_last_res =   5.53671752971133E-14
(PID.TID 0000.0001) // =======================================================
(PID.TID 0000.0001) // Begin MONITOR dynamic field statistics
(PID.TID 0000.0001) // =======================================================
(PID.TID 0000.0001) %MON time_tsnumber                =                     1
(PID.TID 0000.0001) %MON time_secondsf                =   9.0000000000000E+02
(PID.TID 0000.0001) %MON dynstat_eta_max              =   9.4765870671732E-02
(PID.TID 0000.0001) %MON dynstat_eta_min              =  -7.3379888876319E-02
(PID.TID 0000.0001) %MON dynstat_eta_mean             =   7.3316335547920E-18
(PID.TID 0000.0001) %MON dynstat_eta_sd               =   1.4840481963084E-02
(PID.TID 0000.0001) %MON dynstat_eta_del2             =   3.6100131888792E-04
(PID.TID 0000.0001) %MON dynstat_uvel_max             =   5.8985547200336E-03
(PID.TID 0000.0001) %MON dynstat_uvel_min             =  -7.7879044366376E-03
(PID.TID 0000.0001) %MON dynstat_uvel_mean            =  -2.5900373729902E-04
(PID.TID 0000.0001) %MON dynstat_uvel_sd              =   7.2376412247201E-04
(PID.TID 0000.0001) %MON dynstat_uvel_del2            =   2.7898479779500E-06
(PID.TID 0000.0001) %MON dynstat_vvel_max             =   1.3529776932335E-02
(PID.TID 0000.0001) %MON dynstat_vvel_min             =  -8.8244997202856E-03
(PID.TID 0000.0001) %MON dynstat_vvel_mean            =   7.1384015231493E-04
(PID.TID 0000.0001) %MON dynstat_vvel_sd              =   2.5628115858124E-03
(PID.TID 0000.0001) %MON dynstat_vvel_del2            =   5.1877262157540E-06
(PID.TID 0000.0001) %MON dynstat_wvel_max             =   1.1851994439634E-04
(PID.TID 0000.0001) %MON dynstat_wvel_min             =  -8.4620813592234E-05
(PID.TID 0000.0001) %MON dynstat_wvel_mean            =  -3.0832569680665E-22
(PID.TID 0000.0001) %MON dynstat_wvel_sd              =   1.2911063281460E-05
(PID.TID 0000.0001) %MON dynstat_wvel_del2            =   1.0718057070597E-07
(PID.TID 0000.0001) %MON dynstat_theta_max            =   2.9350777912341E+01
(PID.TID 0000.0001) %MON dynstat_theta_min            =  -1.8999927703884E+00
(PID.TID 0000.0001) %MON dynstat_theta_mean           =   3.7028400846158E+00
(PID.TID 0000.0001) %MON dynstat_theta_sd             =   4.4919256350377E+00
(PID.TID 0000.0001) %MON dynstat_theta_del2           =   1.9124367401041E-03
(PID.TID 0000.0001) %MON dynstat_salt_max             =   3.7393069467718E+01
(PID.TID 0000.0001) %MON dynstat_salt_min             =   3.1641574627960E+01
(PID.TID 0000.0001) %MON dynstat_salt_mean            =   3.4716565199219E+01
(PID.TID 0000.0001) %MON dynstat_salt_sd              =   2.9642089318756E-01
(PID.TID 0000.0001) %MON dynstat_salt_del2            =   3.3133241066017E-04
(PID.TID 0000.0001) %MON forcing_qnet_max             =   0.0000000000000E+00
(PID.TID 0000.0001) %MON forcing_qnet_min             =   0.0000000000000E+00
(PID.TID 0000.0001) %MON forcing_qnet_mean            =   0.0000000000000E+00
(PID.TID 0000.0001) %MON forcing_qnet_sd              =   0.0000000000000E+00
(PID.TID 0000.0001) %MON forcing_qnet_del2            =   0.0000000000000E+00
(PID.TID 0000.0001) %MON forcing_qsw_max              =   0.0000000000000E+00
(PID.TID 0000.0001) %MON forcing_qsw_min              =   0.0000000000000E+00
(PID.TID 0000.0001) %MON forcing_qsw_mean             =   0.0000000000000E+00
(PID.TID 0000.0001) %MON forcing_qsw_sd               =   0.0000000000000E+00
(PID.TID 0000.0001) %MON forcing_qsw_del2             =   0.0000000000000E+00
(PID.TID 0000.0001) %MON forcing_empmr_max            =   0.0000000000000E+00
(PID.TID 0000.0001) %MON forcing_empmr_min            =   0.0000000000000E+00
(PID.TID 0000.0001) %MON forcing_empmr_mean           =   0.0000000000000E+00
(PID.TID 0000.0001) %MON forcing_empmr_sd             =   0.0000000000000E+00
(PID.TID 0000.0001) %MON forcing_empmr_del2           =   0.0000000000000E+00
(PID.TID 0000.0001) %MON forcing_fu_max               =   0.0000000000000E+00
(PID.TID 0000.0001) %MON forcing_fu_min               =   0.0000000000000E+00
(PID.TID 0000.0001) %MON forcing_fu_mean              =   0.0000000000000E+00
(PID.TID 0000.0001) %MON forcing_fu_sd                =   0.0000000000000E+00
(PID.TID 0000.0001) %MON forcing_fu_del2              =   0.0000000000000E+00
(PID.TID 0000.0001) %MON forcing_fv_max               =   0.0000000000000E+00
(PID.TID 0000.0001) %MON forcing_fv_min               =   0.0000000000000E+00
(PID.TID 0000.0001) %MON forcing_fv_mean              =   0.0000000000000E+00
(PID.TID 0000.0001) %MON forcing_fv_sd                =   0.0000000000000E+00
(PID.TID 0000.0001) %MON forcing_fv_del2              =   0.0000000000000E+00
(PID.TID 0000.0001) %MON trAdv_CFL_u_max              =   0.0000000000000E+00
(PID.TID 0000.0001) %MON trAdv_CFL_v_max              =   0.0000000000000E+00
(PID.TID 0000.0001) %MON trAdv_CFL_w_max              =   0.0000000000000E+00
(PID.TID 0000.0001) %MON advcfl_uvel_max              =   1.3111563570968E-04
(PID.TID 0000.0001) %MON advcfl_vvel_max              =   3.8942498761758E-05
(PID.TID 0000.0001) %MON advcfl_wvel_max              =   3.7906348268693E-03
(PID.TID 0000.0001) %MON advcfl_W_hf_max              =   1.9109848843962E-03
(PID.TID 0000.0001) %MON pe_b_mean                    =   2.8385705736317E-07
(PID.TID 0000.0001) %MON ke_max                       =   7.0574530504680E-05
(PID.TID 0000.0001) %MON ke_mean                      =   3.5243145687978E-06
(PID.TID 0000.0001) %MON ke_vol                       =   1.2571476858570E+18
(PID.TID 0000.0001) %MON vort_r_min                   =  -7.1792977369385E-08
(PID.TID 0000.0001) %MON vort_r_max                   =   7.7515972995316E-08
(PID.TID 0000.0001) %MON vort_a_mean                  =  -2.4002453570026E-05
(PID.TID 0000.0001) %MON vort_a_sd                    =   7.3137845301903E-05
(PID.TID 0000.0001) %MON vort_p_mean                  =  -2.8585773838204E-05
(PID.TID 0000.0001) %MON vort_p_sd                    =   1.1453371308570E-04
(PID.TID 0000.0001) %MON surfExpan_theta_mean         =   3.4042486819166E-05
(PID.TID 0000.0001) %MON surfExpan_salt_mean          =   2.9185868125980E-06
(PID.TID 0000.0001) // =======================================================
(PID.TID 0000.0001) // End MONITOR dynamic field statistics
(PID.TID 0000.0001) // =======================================================
(PID.TID 0000.0001) // =======================================================
(PID.TID 0000.0001) // Begin MONITOR ptracer field statistics
(PID.TID 0000.0001) // =======================================================
(PID.TID 0000.0001) %MON trcstat_ptracer01_max        =   2.3453000148350E+00
(PID.TID 0000.0001) %MON trcstat_ptracer01_min        =   1.8064551382857E+00
(PID.TID 0000.0001) %MON trcstat_ptracer01_mean       =   2.2008880329792E+00
(PID.TID 0000.0001) %MON trcstat_ptracer01_sd         =   7.6951130785744E-02
(PID.TID 0000.0001) %MON trcstat_ptracer01_del2       =   4.2699790743644E-05
(PID.TID 0000.0001) %MON trcstat_ptracer02_max        =   2.3977420872054E+00
(PID.TID 0000.0001) %MON trcstat_ptracer02_min        =   2.1285230772965E+00
(PID.TID 0000.0001) %MON trcstat_ptracer02_mean       =   2.3062094529486E+00
(PID.TID 0000.0001) %MON trcstat_ptracer02_sd         =   4.1744995147026E-02
(PID.TID 0000.0001) %MON trcstat_ptracer02_del2       =   2.3445196334120E-05
(PID.TID 0000.0001) %MON trcstat_ptracer03_max        =   4.7902521754764E-01
(PID.TID 0000.0001) %MON trcstat_ptracer03_min        =   1.7167995731762E-03
(PID.TID 0000.0001) %MON trcstat_ptracer03_mean       =   1.7341070967867E-01
(PID.TID 0000.0001) %MON trcstat_ptracer03_sd         =   6.3443009027406E-02
(PID.TID 0000.0001) %MON trcstat_ptracer03_del2       =   4.9346962222885E-05
(PID.TID 0000.0001) %MON trcstat_ptracer04_max        =   4.8773335452339E-02
(PID.TID 0000.0001) %MON trcstat_ptracer04_min        =   4.5763512190147E-07
(PID.TID 0000.0001) %MON trcstat_ptracer04_mean       =   3.1284103884546E-02
(PID.TID 0000.0001) %MON trcstat_ptracer04_sd         =   9.0969473942346E-03
(PID.TID 0000.0001) %MON trcstat_ptracer04_del2       =   6.6093693213046E-06
(PID.TID 0000.0001) %MON trcstat_ptracer05_max        =   3.6434172750775E-03
(PID.TID 0000.0001) %MON trcstat_ptracer05_min        =   4.3832926865703E-07
(PID.TID 0000.0001) %MON trcstat_ptracer05_mean       =   2.1903149221459E-03
(PID.TID 0000.0001) %MON trcstat_ptracer05_sd         =   6.4714834227366E-04
(PID.TID 0000.0001) %MON trcstat_ptracer05_del2       =   5.2205278960533E-07
(PID.TID 0000.0001) %MON trcstat_ptracer06_max        =   4.3130840125930E-06
(PID.TID 0000.0001) %MON trcstat_ptracer06_min        =   4.5694993247341E-08
(PID.TID 0000.0001) %MON trcstat_ptracer06_mean       =   4.3239760588736E-07
(PID.TID 0000.0001) %MON trcstat_ptracer06_sd         =   1.4361623243781E-07
(PID.TID 0000.0001) %MON trcstat_ptracer06_del2       =   3.2633876895247E-10
(PID.TID 0000.0001) %MON trcstat_ptracer07_max        =   4.8018091511524E-03
(PID.TID 0000.0001) %MON trcstat_ptracer07_min        =   1.0000722819476E-11
(PID.TID 0000.0001) %MON trcstat_ptracer07_mean       =   9.5294017090856E-05
(PID.TID 0000.0001) %MON trcstat_ptracer07_sd         =   4.2147702835497E-04
(PID.TID 0000.0001) %MON trcstat_ptracer07_del2       =   5.2781790947488E-07
(PID.TID 0000.0001) %MON trcstat_ptracer08_max        =   3.0010609512781E-04
(PID.TID 0000.0001) %MON trcstat_ptracer08_min        =   9.9999101245493E-12
(PID.TID 0000.0001) %MON trcstat_ptracer08_mean       =   5.9557762323689E-06
(PID.TID 0000.0001) %MON trcstat_ptracer08_sd         =   2.6341811288436E-05
(PID.TID 0000.0001) %MON trcstat_ptracer08_del2       =   3.2988366797870E-08
(PID.TID 0000.0001) // =======================================================
(PID.TID 0000.0001) // End MONITOR ptracer field statistics
(PID.TID 0000.0001) // =======================================================
(PID.TID 0000.0001) // =======================================================
(PID.TID 0000.0001) // Begin MONITOR EXF statistics
(PID.TID 0000.0001) // =======================================================
(PID.TID 0000.0001) %MON exf_tsnumber                 =                     1
(PID.TID 0000.0001) %MON exf_time_sec                 =   9.0000000000000E+02
(PID.TID 0000.0001) %MON exf_ustress_max              =   1.3772804327750E-07
(PID.TID 0000.0001) %MON exf_ustress_min              =  -4.3199646598957E-08
(PID.TID 0000.0001) %MON exf_ustress_mean             =   2.8144864442639E-10
(PID.TID 0000.0001) %MON exf_ustress_sd               =   4.8123409156262E-09
(PID.TID 0000.0001) %MON exf_ustress_del2             =   1.7776478120022E-10
(PID.TID 0000.0001) %MON exf_vstress_max              =   4.8796880837069E-08
(PID.TID 0000.0001) %MON exf_vstress_min              =  -6.9402144521448E-08
(PID.TID 0000.0001) %MON exf_vstress_mean             =  -3.5253662926320E-10
(PID.TID 0000.0001) %MON exf_vstress_sd               =   6.1834066999065E-09
(PID.TID 0000.0001) %MON exf_vstress_del2             =   1.7162557859360E-10
(PID.TID 0000.0001) %MON exf_hflux_max                =   1.5053219783766E+00
(PID.TID 0000.0001) %MON exf_hflux_min                =   3.7812268232461E-05
(PID.TID 0000.0001) %MON exf_hflux_mean               =   1.9825855332497E-01
(PID.TID 0000.0001) %MON exf_hflux_sd                 =   1.8617508319452E-01
(PID.TID 0000.0001) %MON exf_hflux_del2               =   4.2644654077201E-03
(PID.TID 0000.0001) %MON exf_sflux_max                =   4.0336631840967E-10
(PID.TID 0000.0001) %MON exf_sflux_min                =   1.6540604483080E-14
(PID.TID 0000.0001) %MON exf_sflux_mean               =   5.4288669712861E-11
(PID.TID 0000.0001) %MON exf_sflux_sd                 =   5.0616139490927E-11
(PID.TID 0000.0001) %MON exf_sflux_del2               =   1.1640710620800E-12
(PID.TID 0000.0001) %MON exf_uwind_max                =   0.0000000000000E+00
(PID.TID 0000.0001) %MON exf_uwind_min                =   0.0000000000000E+00
(PID.TID 0000.0001) %MON exf_uwind_mean               =   0.0000000000000E+00
(PID.TID 0000.0001) %MON exf_uwind_sd                 =   0.0000000000000E+00
(PID.TID 0000.0001) %MON exf_uwind_del2               =   0.0000000000000E+00
(PID.TID 0000.0001) %MON exf_vwind_max                =   0.0000000000000E+00
(PID.TID 0000.0001) %MON exf_vwind_min                =   0.0000000000000E+00
(PID.TID 0000.0001) %MON exf_vwind_mean               =   0.0000000000000E+00
(PID.TID 0000.0001) %MON exf_vwind_sd                 =   0.0000000000000E+00
(PID.TID 0000.0001) %MON exf_vwind_del2               =   0.0000000000000E+00
(PID.TID 0000.0001) %MON exf_wspeed_max               =   3.7365429497533E-03
(PID.TID 0000.0001) %MON exf_wspeed_min               =   8.9517248051499E-07
(PID.TID 0000.0001) %MON exf_wspeed_mean              =   3.1055733893028E-04
(PID.TID 0000.0001) %MON exf_wspeed_sd                =   2.5231655894351E-04
(PID.TID 0000.0001) %MON exf_wspeed_del2              =   7.6586660919722E-06
(PID.TID 0000.0001) %MON exf_evap_max                 =   4.0336631840967E-10
(PID.TID 0000.0001) %MON exf_evap_min                 =   1.6540604483080E-14
(PID.TID 0000.0001) %MON exf_evap_mean                =   5.4288669712861E-11
(PID.TID 0000.0001) %MON exf_evap_sd                  =   5.0616139490927E-11
(PID.TID 0000.0001) %MON exf_evap_del2                =   1.1640710620800E-12
(PID.TID 0000.0001) // =======================================================
(PID.TID 0000.0001) // End MONITOR EXF statistics
(PID.TID 0000.0001) // =======================================================
 cg2d: Sum(rhs),rhsMax =  -5.50670620214078E-14  2.39596792572070E+00
(PID.TID 0000.0001)      cg2d_init_res =   5.22874801110350E+00
(PID.TID 0000.0001)      cg2d_iters(min,last) =      -1      28
(PID.TID 0000.0001)      cg2d_last_res =   3.96296488677878E-14
(PID.TID 0000.0001) // =======================================================
(PID.TID 0000.0001) // Begin MONITOR dynamic field statistics
(PID.TID 0000.0001) // =======================================================
(PID.TID 0000.0001) %MON time_tsnumber                =                     2
(PID.TID 0000.0001) %MON time_secondsf                =   1.8000000000000E+03
(PID.TID 0000.0001) %MON dynstat_eta_max              =   2.1724914116323E-01
(PID.TID 0000.0001) %MON dynstat_eta_min              =  -1.7394554049006E-01
(PID.TID 0000.0001) %MON dynstat_eta_mean             =   1.4160695454618E-17
(PID.TID 0000.0001) %MON dynstat_eta_sd               =   3.6636128079200E-02
(PID.TID 0000.0001) %MON dynstat_eta_del2             =   7.4059296888114E-04
(PID.TID 0000.0001) %MON dynstat_uvel_max             =   9.6732030740054E-03
(PID.TID 0000.0001) %MON dynstat_uvel_min             =  -1.3567966353957E-02
(PID.TID 0000.0001) %MON dynstat_uvel_mean            =  -6.2646092090151E-04
(PID.TID 0000.0001) %MON dynstat_uvel_sd              =   1.3259765360635E-03
(PID.TID 0000.0001) %MON dynstat_uvel_del2            =   6.1915497188780E-06
(PID.TID 0000.0001) %MON dynstat_vvel_max             =   2.4680166455323E-02
(PID.TID 0000.0001) %MON dynstat_vvel_min             =  -1.5803015933031E-02
(PID.TID 0000.0001) %MON dynstat_vvel_mean            =   1.3969152306295E-03
(PID.TID 0000.0001) %MON dynstat_vvel_sd              =   4.8175815016527E-03
(PID.TID 0000.0001) %MON dynstat_vvel_del2            =   1.0079722664101E-05
(PID.TID 0000.0001) %MON dynstat_wvel_max             =   1.7116926690562E-04
(PID.TID 0000.0001) %MON dynstat_wvel_min             =  -1.3381378703769E-04
(PID.TID 0000.0001) %MON dynstat_wvel_mean            =  -3.8068785013882E-22
(PID.TID 0000.0001) %MON dynstat_wvel_sd              =   2.0320431815568E-05
(PID.TID 0000.0001) %MON dynstat_wvel_del2            =   1.3443706247278E-07
(PID.TID 0000.0001) %MON dynstat_theta_max            =   2.9350693727877E+01
(PID.TID 0000.0001) %MON dynstat_theta_min            =  -1.8999848219054E+00
(PID.TID 0000.0001) %MON dynstat_theta_mean           =   3.7028279916968E+00
(PID.TID 0000.0001) %MON dynstat_theta_sd             =   4.4919006391895E+00
(PID.TID 0000.0001) %MON dynstat_theta_del2           =   1.9126747643663E-03
(PID.TID 0000.0001) %MON dynstat_salt_max             =   3.7393060700797E+01
(PID.TID 0000.0001) %MON dynstat_salt_min             =   3.1641576998390E+01
(PID.TID 0000.0001) %MON dynstat_salt_mean            =   3.4716564164558E+01
(PID.TID 0000.0001) %MON dynstat_salt_sd              =   2.9642060352179E-01
(PID.TID 0000.0001) %MON dynstat_salt_del2            =   3.3135026949222E-04
(PID.TID 0000.0001) %MON forcing_qnet_max             =   1.5053219783766E+00
(PID.TID 0000.0001) %MON forcing_qnet_min             =   3.7812268232461E-05
(PID.TID 0000.0001) %MON forcing_qnet_mean            =   1.9825855332497E-01
(PID.TID 0000.0001) %MON forcing_qnet_sd              =   1.8617508319452E-01
(PID.TID 0000.0001) %MON forcing_qnet_del2            =   4.2396954007476E-03
(PID.TID 0000.0001) %MON forcing_qsw_max              =   0.0000000000000E+00
(PID.TID 0000.0001) %MON forcing_qsw_min              =   0.0000000000000E+00
(PID.TID 0000.0001) %MON forcing_qsw_mean             =   0.0000000000000E+00
(PID.TID 0000.0001) %MON forcing_qsw_sd               =   0.0000000000000E+00
(PID.TID 0000.0001) %MON forcing_qsw_del2             =   0.0000000000000E+00
(PID.TID 0000.0001) %MON forcing_empmr_max            =   4.0336631840967E-07
(PID.TID 0000.0001) %MON forcing_empmr_min            =   1.6540604483080E-11
(PID.TID 0000.0001) %MON forcing_empmr_mean           =   5.4288669712860E-08
(PID.TID 0000.0001) %MON forcing_empmr_sd             =   5.0616139490927E-08
(PID.TID 0000.0001) %MON forcing_empmr_del2           =   1.1573031539976E-09
(PID.TID 0000.0001) %MON forcing_fu_max               =   1.1447737010597E-07
(PID.TID 0000.0001) %MON forcing_fu_min               =  -3.1313376648383E-08
(PID.TID 0000.0001) %MON forcing_fu_mean              =   2.8727745736107E-10
(PID.TID 0000.0001) %MON forcing_fu_sd                =   4.1928791542741E-09
(PID.TID 0000.0001) %MON forcing_fu_del2              =   1.3524064096882E-10
(PID.TID 0000.0001) %MON forcing_fv_max               =   3.3831169173836E-08
(PID.TID 0000.0001) %MON forcing_fv_min               =  -3.8692465885198E-08
(PID.TID 0000.0001) %MON forcing_fv_mean              =  -3.7260062310329E-10
(PID.TID 0000.0001) %MON forcing_fv_sd                =   5.0446994481830E-09
(PID.TID 0000.0001) %MON forcing_fv_del2              =   1.0653775016344E-10
(PID.TID 0000.0001) %MON trAdv_CFL_u_max              =   1.2206941930311E-04
(PID.TID 0000.0001) %MON trAdv_CFL_v_max              =   3.9938579373698E-05
(PID.TID 0000.0001) %MON trAdv_CFL_w_max              =   1.8953174134346E-03
(PID.TID 0000.0001) %MON advcfl_uvel_max              =   2.2069988800301E-04
(PID.TID 0000.0001) %MON advcfl_vvel_max              =   7.1036452147960E-05
(PID.TID 0000.0001) %MON advcfl_wvel_max              =   4.8993308196597E-03
(PID.TID 0000.0001) %MON advcfl_W_hf_max              =   2.4961587786418E-03
(PID.TID 0000.0001) %MON pe_b_mean                    =   1.7299072655864E-06
(PID.TID 0000.0001) %MON ke_max                       =   2.4004004451390E-04
(PID.TID 0000.0001) %MON ke_mean                      =   1.2551988395724E-05
(PID.TID 0000.0001) %MON ke_vol                       =   1.2571476858570E+18
(PID.TID 0000.0001) %MON vort_r_min                   =  -1.2821209952325E-07
(PID.TID 0000.0001) %MON vort_r_max                   =   1.4441063557985E-07
(PID.TID 0000.0001) %MON vort_a_mean                  =  -2.4002453570025E-05
(PID.TID 0000.0001) %MON vort_a_sd                    =   7.3137761623493E-05
(PID.TID 0000.0001) %MON vort_p_mean                  =  -2.8585773838203E-05
(PID.TID 0000.0001) %MON vort_p_sd                    =   1.1453350611131E-04
(PID.TID 0000.0001) %MON surfExpan_theta_mean         =   6.4214637699292E-05
(PID.TID 0000.0001) %MON surfExpan_salt_mean          =   5.5798910447695E-06
(PID.TID 0000.0001) // =======================================================
(PID.TID 0000.0001) // End MONITOR dynamic field statistics
(PID.TID 0000.0001) // =======================================================
(PID.TID 0000.0001) // =======================================================
(PID.TID 0000.0001) // Begin MONITOR ptracer field statistics
(PID.TID 0000.0001) // =======================================================
(PID.TID 0000.0001) %MON trcstat_ptracer01_max        =   2.3452981335926E+00
(PID.TID 0000.0001) %MON trcstat_ptracer01_min        =   1.8064584247757E+00
(PID.TID 0000.0001) %MON trcstat_ptracer01_mean       =   2.2008881071569E+00
(PID.TID 0000.0001) %MON trcstat_ptracer01_sd         =   7.6950450836236E-02
(PID.TID 0000.0001) %MON trcstat_ptracer01_del2       =   4.2743824419316E-05
(PID.TID 0000.0001) %MON trcstat_ptracer02_max        =   2.3977407935028E+00
(PID.TID 0000.0001) %MON trcstat_ptracer02_min        =   2.1285235886609E+00
(PID.TID 0000.0001) %MON trcstat_ptracer02_mean       =   2.3062094284195E+00
(PID.TID 0000.0001) %MON trcstat_ptracer02_sd         =   4.1744721830988E-02
(PID.TID 0000.0001) %MON trcstat_ptracer02_del2       =   2.3458189386004E-05
(PID.TID 0000.0001) %MON trcstat_ptracer03_max        =   4.7901600183910E-01
(PID.TID 0000.0001) %MON trcstat_ptracer03_min        =   1.7168993829228E-03
(PID.TID 0000.0001) %MON trcstat_ptracer03_mean       =   1.7341070193386E-01
(PID.TID 0000.0001) %MON trcstat_ptracer03_sd         =   6.3442744917861E-02
(PID.TID 0000.0001) %MON trcstat_ptracer03_del2       =   4.9462923286216E-05
(PID.TID 0000.0001) %MON trcstat_ptracer04_max        =   4.8773242771819E-02
(PID.TID 0000.0001) %MON trcstat_ptracer04_min        =   6.2030087586776E-07
(PID.TID 0000.0001) %MON trcstat_ptracer04_mean       =   3.1284115005262E-02
(PID.TID 0000.0001) %MON trcstat_ptracer04_sd         =   9.0968784069757E-03
(PID.TID 0000.0001) %MON trcstat_ptracer04_del2       =   6.6199593558641E-06
(PID.TID 0000.0001) %MON trcstat_ptracer05_max        =   3.6434157337178E-03
(PID.TID 0000.0001) %MON trcstat_ptracer05_min        =   4.4663174037501E-07
(PID.TID 0000.0001) %MON trcstat_ptracer05_mean       =   2.1903156217187E-03
(PID.TID 0000.0001) %MON trcstat_ptracer05_sd         =   6.4714358375092E-04
(PID.TID 0000.0001) %MON trcstat_ptracer05_del2       =   5.2276721177183E-07
(PID.TID 0000.0001) %MON trcstat_ptracer06_max        =   4.3117005086299E-06
(PID.TID 0000.0001) %MON trcstat_ptracer06_min        =   4.5693352082667E-08
(PID.TID 0000.0001) %MON trcstat_ptracer06_mean       =   4.3239739325251E-07
(PID.TID 0000.0001) %MON trcstat_ptracer06_sd         =   1.4361262076737E-07
(PID.TID 0000.0001) %MON trcstat_ptracer06_del2       =   3.2631248950084E-10
(PID.TID 0000.0001) %MON trcstat_ptracer07_max        =   4.8016578488124E-03
(PID.TID 0000.0001) %MON trcstat_ptracer07_min        =   9.9999369031487E-12
(PID.TID 0000.0001) %MON trcstat_ptracer07_mean       =   9.5294204358125E-05
(PID.TID 0000.0001) %MON trcstat_ptracer07_sd         =   4.2146220952353E-04
(PID.TID 0000.0001) %MON trcstat_ptracer07_del2       =   5.3099092321807E-07
(PID.TID 0000.0001) %MON trcstat_ptracer08_max        =   3.0009420212510E-04
(PID.TID 0000.0001) %MON trcstat_ptracer08_min        =   9.9998579190505E-12
(PID.TID 0000.0001) %MON trcstat_ptracer08_mean       =   5.9557399658325E-06
(PID.TID 0000.0001) %MON trcstat_ptracer08_sd         =   2.6340669057067E-05
(PID.TID 0000.0001) %MON trcstat_ptracer08_del2       =   3.3186450739779E-08
(PID.TID 0000.0001) // =======================================================
(PID.TID 0000.0001) // End MONITOR ptracer field statistics
(PID.TID 0000.0001) // =======================================================
(PID.TID 0000.0001) whio : write lev 3 rec   2
(PID.TID 0000.0001) // =======================================================
(PID.TID 0000.0001) // Begin MONITOR EXF statistics
(PID.TID 0000.0001) // =======================================================
(PID.TID 0000.0001) %MON exf_tsnumber                 =                     2
(PID.TID 0000.0001) %MON exf_time_sec                 =   1.8000000000000E+03
(PID.TID 0000.0001) %MON exf_ustress_max              =   1.1781685905214E-06
(PID.TID 0000.0001) %MON exf_ustress_min              =  -3.7152742487097E-07
(PID.TID 0000.0001) %MON exf_ustress_mean             =   2.2119831048981E-09
(PID.TID 0000.0001) %MON exf_ustress_sd               =   4.5772688862117E-08
(PID.TID 0000.0001) %MON exf_ustress_del2             =   1.5622893203847E-09
(PID.TID 0000.0001) %MON exf_vstress_max              =   5.7588639170801E-07
(PID.TID 0000.0001) %MON exf_vstress_min              =  -7.7024752382093E-07
(PID.TID 0000.0001) %MON exf_vstress_mean             =  -1.5299360295102E-09
(PID.TID 0000.0001) %MON exf_vstress_sd               =   6.4635086401099E-08
(PID.TID 0000.0001) %MON exf_vstress_del2             =   1.7752791726851E-09
(PID.TID 0000.0001) %MON exf_hflux_max                =   4.7681710732267E+00
(PID.TID 0000.0001) %MON exf_hflux_min                =   4.1488352264895E-04
(PID.TID 0000.0001) %MON exf_hflux_mean               =   5.7703725282028E-01
(PID.TID 0000.0001) %MON exf_hflux_sd                 =   5.8016891533636E-01
(PID.TID 0000.0001) %MON exf_hflux_del2               =   1.3747824645723E-02
(PID.TID 0000.0001) %MON exf_sflux_max                =   1.2776817511778E-09
(PID.TID 0000.0001) %MON exf_sflux_min                =   1.8148678979661E-13
(PID.TID 0000.0001) %MON exf_sflux_mean               =   1.5812425689412E-10
(PID.TID 0000.0001) %MON exf_sflux_sd                 =   1.5775532533344E-10
(PID.TID 0000.0001) %MON exf_sflux_del2               =   3.7530437172175E-12
(PID.TID 0000.0001) %MON exf_uwind_max                =   0.0000000000000E+00
(PID.TID 0000.0001) %MON exf_uwind_min                =   0.0000000000000E+00
(PID.TID 0000.0001) %MON exf_uwind_mean               =   0.0000000000000E+00
(PID.TID 0000.0001) %MON exf_uwind_sd                 =   0.0000000000000E+00
(PID.TID 0000.0001) %MON exf_uwind_del2               =   0.0000000000000E+00
(PID.TID 0000.0001) %MON exf_vwind_max                =   0.0000000000000E+00
(PID.TID 0000.0001) %MON exf_vwind_min                =   0.0000000000000E+00
(PID.TID 0000.0001) %MON exf_vwind_mean               =   0.0000000000000E+00
(PID.TID 0000.0001) %MON exf_vwind_sd                 =   0.0000000000000E+00
(PID.TID 0000.0001) %MON exf_vwind_del2               =   0.0000000000000E+00
(PID.TID 0000.0001) %MON exf_wspeed_max               =   9.1287943511638E-03
(PID.TID 0000.0001) %MON exf_wspeed_min               =   2.5535139288138E-06
(PID.TID 0000.0001) %MON exf_wspeed_mean              =   9.3121964761907E-04
(PID.TID 0000.0001) %MON exf_wspeed_sd                =   8.1936134645683E-04
(PID.TID 0000.0001) %MON exf_wspeed_del2              =   2.3327987583930E-05
(PID.TID 0000.0001) %MON exf_evap_max                 =   1.2776817511778E-09
(PID.TID 0000.0001) %MON exf_evap_min                 =   1.8148678979661E-13
(PID.TID 0000.0001) %MON exf_evap_mean                =   1.5812425689412E-10
(PID.TID 0000.0001) %MON exf_evap_sd                  =   1.5775532533344E-10
(PID.TID 0000.0001) %MON exf_evap_del2                =   3.7530437172175E-12
(PID.TID 0000.0001) // =======================================================
(PID.TID 0000.0001) // End MONITOR EXF statistics
(PID.TID 0000.0001) // =======================================================
 cg2d: Sum(rhs),rhsMax =  -1.36779476633819E-13  3.40223488218936E+00
(PID.TID 0000.0001)      cg2d_init_res =   3.68984732020022E+00
(PID.TID 0000.0001)      cg2d_iters(min,last) =      -1      28
(PID.TID 0000.0001)      cg2d_last_res =   3.51944708582968E-14
(PID.TID 0000.0001) // =======================================================
(PID.TID 0000.0001) // Begin MONITOR dynamic field statistics
(PID.TID 0000.0001) // =======================================================
(PID.TID 0000.0001) %MON time_tsnumber                =                     3
(PID.TID 0000.0001) %MON time_secondsf                =   2.7000000000000E+03
(PID.TID 0000.0001) %MON dynstat_eta_max              =   3.3249103266019E-01
(PID.TID 0000.0001) %MON dynstat_eta_min              =  -2.9411877504178E-01
(PID.TID 0000.0001) %MON dynstat_eta_mean             =   2.1935774587321E-17
(PID.TID 0000.0001) %MON dynstat_eta_sd               =   6.0840550491334E-02
(PID.TID 0000.0001) %MON dynstat_eta_del2             =   9.9974202010393E-04
(PID.TID 0000.0001) %MON dynstat_uvel_max             =   1.3497645432525E-02
(PID.TID 0000.0001) %MON dynstat_uvel_min             =  -2.0760081370432E-02
(PID.TID 0000.0001) %MON dynstat_uvel_mean            =  -1.0900739588433E-03
(PID.TID 0000.0001) %MON dynstat_uvel_sd              =   1.9130247959978E-03
(PID.TID 0000.0001) %MON dynstat_uvel_del2            =   1.0075068682912E-05
(PID.TID 0000.0001) %MON dynstat_vvel_max             =   3.3818626619055E-02
(PID.TID 0000.0001) %MON dynstat_vvel_min             =  -2.0862734951902E-02
(PID.TID 0000.0001) %MON dynstat_vvel_mean            =   2.0392245193255E-03
(PID.TID 0000.0001) %MON dynstat_vvel_sd              =   6.7908394287338E-03
(PID.TID 0000.0001) %MON dynstat_vvel_del2            =   1.6011842977372E-05
(PID.TID 0000.0001) %MON dynstat_wvel_max             =   2.0580370984409E-04
(PID.TID 0000.0001) %MON dynstat_wvel_min             =  -1.8096145043300E-04
(PID.TID 0000.0001) %MON dynstat_wvel_mean            =  -5.7260486549806E-22
(PID.TID 0000.0001) %MON dynstat_wvel_sd              =   2.4532833174268E-05
(PID.TID 0000.0001) %MON dynstat_wvel_del2            =   1.3372859909728E-07
(PID.TID 0000.0001) %MON dynstat_theta_max            =   2.9350607705722E+01
(PID.TID 0000.0001) %MON dynstat_theta_min            =  -1.8999767193823E+00
(PID.TID 0000.0001) %MON dynstat_theta_mean           =   3.7028095713323E+00
(PID.TID 0000.0001) %MON dynstat_theta_sd             =   4.4918644931449E+00
(PID.TID 0000.0001) %MON dynstat_theta_del2           =   1.9121656567540E-03
(PID.TID 0000.0001) %MON dynstat_salt_max             =   3.7393052255215E+01
(PID.TID 0000.0001) %MON dynstat_salt_min             =   3.1641579765006E+01
(PID.TID 0000.0001) %MON dynstat_salt_mean            =   3.4716562557502E+01
(PID.TID 0000.0001) %MON dynstat_salt_sd              =   2.9642089371913E-01
(PID.TID 0000.0001) %MON dynstat_salt_del2            =   3.3133904596066E-04
(PID.TID 0000.0001) %MON forcing_qnet_max             =   4.7681710732267E+00
(PID.TID 0000.0001) %MON forcing_qnet_min             =   4.1488352264895E-04
(PID.TID 0000.0001) %MON forcing_qnet_mean            =   5.7703725282028E-01
(PID.TID 0000.0001) %MON forcing_qnet_sd              =   5.8016891533636E-01
(PID.TID 0000.0001) %MON forcing_qnet_del2            =   1.3754358648856E-02
(PID.TID 0000.0001) %MON forcing_qsw_max              =   0.0000000000000E+00
(PID.TID 0000.0001) %MON forcing_qsw_min              =   0.0000000000000E+00
(PID.TID 0000.0001) %MON forcing_qsw_mean             =   0.0000000000000E+00
(PID.TID 0000.0001) %MON forcing_qsw_sd               =   0.0000000000000E+00
(PID.TID 0000.0001) %MON forcing_qsw_del2             =   0.0000000000000E+00
(PID.TID 0000.0001) %MON forcing_empmr_max            =   1.2776817511778E-06
(PID.TID 0000.0001) %MON forcing_empmr_min            =   1.8148678979661E-10
(PID.TID 0000.0001) %MON forcing_empmr_mean           =   1.5812425689412E-07
(PID.TID 0000.0001) %MON forcing_empmr_sd             =   1.5775532533344E-07
(PID.TID 0000.0001) %MON forcing_empmr_del2           =   3.7546122851792E-09
(PID.TID 0000.0001) %MON forcing_fu_max               =   9.7845165312173E-07
(PID.TID 0000.0001) %MON forcing_fu_min               =  -2.7377921582354E-07
(PID.TID 0000.0001) %MON forcing_fu_mean              =   2.2611293910593E-09
(PID.TID 0000.0001) %MON forcing_fu_sd                =   4.0287834256220E-08
(PID.TID 0000.0001) %MON forcing_fu_del2              =   1.1902821615262E-09
(PID.TID 0000.0001) %MON forcing_fv_max               =   3.8645932442712E-07
(PID.TID 0000.0001) %MON forcing_fv_min               =  -4.7442426643929E-07
(PID.TID 0000.0001) %MON forcing_fv_mean              =  -1.6372534518947E-09
(PID.TID 0000.0001) %MON forcing_fv_sd                =   5.2591580264009E-08
(PID.TID 0000.0001) %MON forcing_fv_del2              =   1.0980137087889E-09
(PID.TID 0000.0001) %MON trAdv_CFL_u_max              =   2.1968948359876E-04
(PID.TID 0000.0001) %MON trAdv_CFL_v_max              =   7.2853439628873E-05
(PID.TID 0000.0001) %MON trAdv_CFL_w_max              =   2.4496654098299E-03
(PID.TID 0000.0001) %MON advcfl_uvel_max              =   3.4951266909024E-04
(PID.TID 0000.0001) %MON advcfl_vvel_max              =   9.7339507652151E-05
(PID.TID 0000.0001) %MON advcfl_wvel_max              =   5.0393966531033E-03
(PID.TID 0000.0001) %MON advcfl_W_hf_max              =   2.5488293899041E-03
(PID.TID 0000.0001) %MON pe_b_mean                    =   4.7707862107400E-06
(PID.TID 0000.0001) %MON ke_max                       =   4.6904427281235E-04
(PID.TID 0000.0001) %MON ke_mean                      =   2.5336115659991E-05
(PID.TID 0000.0001) %MON ke_vol                       =   1.2571476858570E+18
(PID.TID 0000.0001) %MON vort_r_min                   =  -1.8687523550921E-07
(PID.TID 0000.0001) %MON vort_r_max                   =   2.0839022674702E-07
(PID.TID 0000.0001) %MON vort_a_mean                  =  -2.4002453570025E-05
(PID.TID 0000.0001) %MON vort_a_sd                    =   7.3137661015938E-05
(PID.TID 0000.0001) %MON vort_p_mean                  =  -2.8585773838203E-05
(PID.TID 0000.0001) %MON vort_p_sd                    =   1.1453322276498E-04
(PID.TID 0000.0001) %MON surfExpan_theta_mean         =   9.0196025702149E-05
(PID.TID 0000.0001) %MON surfExpan_salt_mean          =   7.8968714006727E-06
(PID.TID 0000.0001) // =======================================================
(PID.TID 0000.0001) // End MONITOR dynamic field statistics
(PID.TID 0000.0001) // =======================================================
(PID.TID 0000.0001) // =======================================================
(PID.TID 0000.0001) // Begin MONITOR ptracer field statistics
(PID.TID 0000.0001) // =======================================================
(PID.TID 0000.0001) %MON trcstat_ptracer01_max        =   2.3452964194728E+00
(PID.TID 0000.0001) %MON trcstat_ptracer01_min        =   1.8064611783940E+00
(PID.TID 0000.0001) %MON trcstat_ptracer01_mean       =   2.2008882219838E+00
(PID.TID 0000.0001) %MON trcstat_ptracer01_sd         =   7.6949982470104E-02
(PID.TID 0000.0001) %MON trcstat_ptracer01_del2       =   4.2748275706681E-05
(PID.TID 0000.0001) %MON trcstat_ptracer02_max        =   2.3977393641925E+00
(PID.TID 0000.0001) %MON trcstat_ptracer02_min        =   2.1285212754615E+00
(PID.TID 0000.0001) %MON trcstat_ptracer02_mean       =   2.3062093831626E+00
(PID.TID 0000.0001) %MON trcstat_ptracer02_sd         =   4.1744667631684E-02
(PID.TID 0000.0001) %MON trcstat_ptracer02_del2       =   2.3462359584879E-05
(PID.TID 0000.0001) %MON trcstat_ptracer03_max        =   4.7900673813650E-01
(PID.TID 0000.0001) %MON trcstat_ptracer03_min        =   1.7170024496314E-03
(PID.TID 0000.0001) %MON trcstat_ptracer03_mean       =   1.7341073721314E-01
(PID.TID 0000.0001) %MON trcstat_ptracer03_sd         =   6.3442695660013E-02
(PID.TID 0000.0001) %MON trcstat_ptracer03_del2       =   4.9487704754424E-05
(PID.TID 0000.0001) %MON trcstat_ptracer04_max        =   4.8773145505884E-02
(PID.TID 0000.0001) %MON trcstat_ptracer04_min        =   6.8366351937481E-07
(PID.TID 0000.0001) %MON trcstat_ptracer04_mean       =   3.1284134921014E-02
(PID.TID 0000.0001) %MON trcstat_ptracer04_sd         =   9.0968210889559E-03
(PID.TID 0000.0001) %MON trcstat_ptracer04_del2       =   6.6221966342886E-06
(PID.TID 0000.0001) %MON trcstat_ptracer05_max        =   3.6434143162580E-03
(PID.TID 0000.0001) %MON trcstat_ptracer05_min        =   4.5428531553065E-07
(PID.TID 0000.0001) %MON trcstat_ptracer05_mean       =   2.1903168933260E-03
(PID.TID 0000.0001) %MON trcstat_ptracer05_sd         =   6.4714005574578E-04
(PID.TID 0000.0001) %MON trcstat_ptracer05_del2       =   5.2291259778612E-07
(PID.TID 0000.0001) %MON trcstat_ptracer06_max        =   4.3103201473208E-06
(PID.TID 0000.0001) %MON trcstat_ptracer06_min        =   4.5691409727151E-08
(PID.TID 0000.0001) %MON trcstat_ptracer06_mean       =   4.3239715084021E-07
(PID.TID 0000.0001) %MON trcstat_ptracer06_sd         =   1.4360954042914E-07
(PID.TID 0000.0001) %MON trcstat_ptracer06_del2       =   3.2627259203172E-10
(PID.TID 0000.0001) %MON trcstat_ptracer07_max        =   4.8013905511422E-03
(PID.TID 0000.0001) %MON trcstat_ptracer07_min        =   9.9999374242720E-12
(PID.TID 0000.0001) %MON trcstat_ptracer07_mean       =   9.5294755567449E-05
(PID.TID 0000.0001) %MON trcstat_ptracer07_sd         =   4.2146187510095E-04
(PID.TID 0000.0001) %MON trcstat_ptracer07_del2       =   5.3182602330426E-07
(PID.TID 0000.0001) %MON trcstat_ptracer08_max        =   3.0007502624730E-04
(PID.TID 0000.0001) %MON trcstat_ptracer08_min        =   9.9998579518025E-12
(PID.TID 0000.0001) %MON trcstat_ptracer08_mean       =   5.9557262124747E-06
(PID.TID 0000.0001) %MON trcstat_ptracer08_sd         =   2.6340431004120E-05
(PID.TID 0000.0001) %MON trcstat_ptracer08_del2       =   3.3238412155453E-08
(PID.TID 0000.0001) // =======================================================
(PID.TID 0000.0001) // End MONITOR ptracer field statistics
(PID.TID 0000.0001) // =======================================================
(PID.TID 0000.0001) // =======================================================
(PID.TID 0000.0001) // Begin MONITOR EXF statistics
(PID.TID 0000.0001) // =======================================================
(PID.TID 0000.0001) %MON exf_tsnumber                 =                     3
(PID.TID 0000.0001) %MON exf_time_sec                 =   2.7000000000000E+03
(PID.TID 0000.0001) %MON exf_ustress_max              =   3.9288826340495E-06
(PID.TID 0000.0001) %MON exf_ustress_min              =  -1.5794428232161E-06
(PID.TID 0000.0001) %MON exf_ustress_mean             =   7.0772856280030E-09
(PID.TID 0000.0001) %MON exf_ustress_sd               =   1.7256001597823E-07
(PID.TID 0000.0001) %MON exf_ustress_del2             =   5.4443505703026E-09
(PID.TID 0000.0001) %MON exf_vstress_max              =   2.4741020373115E-06
(PID.TID 0000.0001) %MON exf_vstress_min              =  -3.2000641022147E-06
(PID.TID 0000.0001) %MON exf_vstress_mean             =  -2.5393016343136E-09
(PID.TID 0000.0001) %MON exf_vstress_sd               =   2.7047069558362E-07
(PID.TID 0000.0001) %MON exf_vstress_del2             =   7.0849239980972E-09
(PID.TID 0000.0001) %MON exf_hflux_max                =   9.3943249339518E+00
(PID.TID 0000.0001) %MON exf_hflux_min                =   7.1451739432046E-04
(PID.TID 0000.0001) %MON exf_hflux_mean               =   1.1474814015805E+00
(PID.TID 0000.0001) %MON exf_hflux_sd                 =   1.1694355372812E+00
(PID.TID 0000.0001) %MON exf_hflux_del2               =   2.7264474499526E-02
(PID.TID 0000.0001) %MON exf_sflux_max                =   2.5173112417192E-09
(PID.TID 0000.0001) %MON exf_sflux_min                =   3.1048564216115E-13
(PID.TID 0000.0001) %MON exf_sflux_mean               =   3.1446485265912E-10
(PID.TID 0000.0001) %MON exf_sflux_sd                 =   3.1800298435753E-10
(PID.TID 0000.0001) %MON exf_sflux_del2               =   7.4426177558523E-12
(PID.TID 0000.0001) %MON exf_uwind_max                =   0.0000000000000E+00
(PID.TID 0000.0001) %MON exf_uwind_min                =   0.0000000000000E+00
(PID.TID 0000.0001) %MON exf_uwind_mean               =   0.0000000000000E+00
(PID.TID 0000.0001) %MON exf_uwind_sd                 =   0.0000000000000E+00
(PID.TID 0000.0001) %MON exf_uwind_del2               =   0.0000000000000E+00
(PID.TID 0000.0001) %MON exf_vwind_max                =   0.0000000000000E+00
(PID.TID 0000.0001) %MON exf_vwind_min                =   0.0000000000000E+00
(PID.TID 0000.0001) %MON exf_vwind_mean               =   0.0000000000000E+00
(PID.TID 0000.0001) %MON exf_vwind_sd                 =   0.0000000000000E+00
(PID.TID 0000.0001) %MON exf_vwind_del2               =   0.0000000000000E+00
(PID.TID 0000.0001) %MON exf_wspeed_max               =   1.6852726857635E-02
(PID.TID 0000.0001) %MON exf_wspeed_min               =   5.1667855635346E-06
(PID.TID 0000.0001) %MON exf_wspeed_mean              =   1.8644958616119E-03
(PID.TID 0000.0001) %MON exf_wspeed_sd                =   1.6582288486908E-03
(PID.TID 0000.0001) %MON exf_wspeed_del2              =   4.4593210669431E-05
(PID.TID 0000.0001) %MON exf_evap_max                 =   2.5173112417192E-09
(PID.TID 0000.0001) %MON exf_evap_min                 =   3.1048564216115E-13
(PID.TID 0000.0001) %MON exf_evap_mean                =   3.1446485265912E-10
(PID.TID 0000.0001) %MON exf_evap_sd                  =   3.1800298435753E-10
(PID.TID 0000.0001) %MON exf_evap_del2                =   7.4426177558523E-12
(PID.TID 0000.0001) // =======================================================
(PID.TID 0000.0001) // End MONITOR EXF statistics
(PID.TID 0000.0001) // =======================================================
 cg2d: Sum(rhs),rhsMax =  -1.03139718987677E-13  4.12548679737729E+00
(PID.TID 0000.0001)      cg2d_init_res =   2.97807806504026E+00
(PID.TID 0000.0001)      cg2d_iters(min,last) =      -1      28
(PID.TID 0000.0001)      cg2d_last_res =   3.14242102574225E-14
(PID.TID 0000.0001) // =======================================================
(PID.TID 0000.0001) // Begin MONITOR dynamic field statistics
(PID.TID 0000.0001) // =======================================================
(PID.TID 0000.0001) %MON time_tsnumber                =                     4
(PID.TID 0000.0001) %MON time_secondsf                =   3.6000000000000E+03
(PID.TID 0000.0001) %MON dynstat_eta_max              =   4.3019442298607E-01
(PID.TID 0000.0001) %MON dynstat_eta_min              =  -4.1317045317055E-01
(PID.TID 0000.0001) %MON dynstat_eta_mean             =   3.1425509954613E-17
(PID.TID 0000.0001) %MON dynstat_eta_sd               =   8.5489151845870E-02
(PID.TID 0000.0001) %MON dynstat_eta_del2             =   1.1343138701929E-03
(PID.TID 0000.0001) %MON dynstat_uvel_max             =   1.9436080970688E-02
(PID.TID 0000.0001) %MON dynstat_uvel_min             =  -2.8187564580847E-02
(PID.TID 0000.0001) %MON dynstat_uvel_mean            =  -1.6362125321052E-03
(PID.TID 0000.0001) %MON dynstat_uvel_sd              =   2.5471415691015E-03
(PID.TID 0000.0001) %MON dynstat_uvel_del2            =   1.3953009018674E-05
(PID.TID 0000.0001) %MON dynstat_vvel_max             =   4.1295342715233E-02
(PID.TID 0000.0001) %MON dynstat_vvel_min             =  -2.4048228025807E-02
(PID.TID 0000.0001) %MON dynstat_vvel_mean            =   2.6327584519327E-03
(PID.TID 0000.0001) %MON dynstat_vvel_sd              =   8.5158249471978E-03
(PID.TID 0000.0001) %MON dynstat_vvel_del2            =   2.2364504366413E-05
(PID.TID 0000.0001) %MON dynstat_wvel_max             =   2.3974383315900E-04
(PID.TID 0000.0001) %MON dynstat_wvel_min             =  -2.2165603178863E-04
(PID.TID 0000.0001) %MON dynstat_wvel_mean            =   1.2081333425893E-21
(PID.TID 0000.0001) %MON dynstat_wvel_sd              =   2.7280350726325E-05
(PID.TID 0000.0001) %MON dynstat_wvel_del2            =   1.3681132560470E-07
(PID.TID 0000.0001) %MON dynstat_theta_max            =   2.9350524141197E+01
(PID.TID 0000.0001) %MON dynstat_theta_min            =  -1.8999685017095E+00
(PID.TID 0000.0001) %MON dynstat_theta_mean           =   3.7027854954303E+00
(PID.TID 0000.0001) %MON dynstat_theta_sd             =   4.4918176507821E+00
(PID.TID 0000.0001) %MON dynstat_theta_del2           =   1.9116923385134E-03
(PID.TID 0000.0001) %MON dynstat_salt_max             =   3.7393044019075E+01
(PID.TID 0000.0001) %MON dynstat_salt_min             =   3.1641582915346E+01
(PID.TID 0000.0001) %MON dynstat_salt_mean            =   3.4716560453270E+01
(PID.TID 0000.0001) %MON dynstat_salt_sd              =   2.9642140206268E-01
(PID.TID 0000.0001) %MON dynstat_salt_del2            =   3.3132623424231E-04
(PID.TID 0000.0001) %MON forcing_qnet_max             =   9.3943249339518E+00
(PID.TID 0000.0001) %MON forcing_qnet_min             =   7.1451739432046E-04
(PID.TID 0000.0001) %MON forcing_qnet_mean            =   1.1474814015805E+00
(PID.TID 0000.0001) %MON forcing_qnet_sd              =   1.1694355372812E+00
(PID.TID 0000.0001) %MON forcing_qnet_del2            =   2.7296712986107E-02
(PID.TID 0000.0001) %MON forcing_qsw_max              =   0.0000000000000E+00
(PID.TID 0000.0001) %MON forcing_qsw_min              =   0.0000000000000E+00
(PID.TID 0000.0001) %MON forcing_qsw_mean             =   0.0000000000000E+00
(PID.TID 0000.0001) %MON forcing_qsw_sd               =   0.0000000000000E+00
(PID.TID 0000.0001) %MON forcing_qsw_del2             =   0.0000000000000E+00
(PID.TID 0000.0001) %MON forcing_empmr_max            =   2.5173112417192E-06
(PID.TID 0000.0001) %MON forcing_empmr_min            =   3.1048564216115E-10
(PID.TID 0000.0001) %MON forcing_empmr_mean           =   3.1446485265912E-07
(PID.TID 0000.0001) %MON forcing_empmr_sd             =   3.1800298435753E-07
(PID.TID 0000.0001) %MON forcing_empmr_del2           =   7.4510625266712E-09
(PID.TID 0000.0001) %MON forcing_fu_max               =   3.3343502268662E-06
(PID.TID 0000.0001) %MON forcing_fu_min               =  -1.2855095671131E-06
(PID.TID 0000.0001) %MON forcing_fu_mean              =   7.2196613449382E-09
(PID.TID 0000.0001) %MON forcing_fu_sd                =   1.5320977360999E-07
(PID.TID 0000.0001) %MON forcing_fu_del2              =   4.1423379977842E-09
(PID.TID 0000.0001) %MON forcing_fv_max               =   1.7250590247870E-06
(PID.TID 0000.0001) %MON forcing_fv_min               =  -2.1208361784567E-06
(PID.TID 0000.0001) %MON forcing_fv_mean              =  -2.7026450231901E-09
(PID.TID 0000.0001) %MON forcing_fv_sd                =   2.2322458414185E-07
(PID.TID 0000.0001) %MON forcing_fv_del2              =   4.3987042373273E-09
(PID.TID 0000.0001) %MON trAdv_CFL_u_max              =   3.4954776221182E-04
(PID.TID 0000.0001) %MON trAdv_CFL_v_max              =   9.9829281021375E-05
(PID.TID 0000.0001) %MON trAdv_CFL_w_max              =   2.5488293899041E-03
(PID.TID 0000.0001) %MON advcfl_uvel_max              =   4.5367150156420E-04
(PID.TID 0000.0001) %MON advcfl_vvel_max              =   1.1885959691701E-04
(PID.TID 0000.0001) %MON advcfl_wvel_max              =   4.8335764677408E-03
(PID.TID 0000.0001) %MON advcfl_W_hf_max              =   2.4352863317186E-03
(PID.TID 0000.0001) %MON pe_b_mean                    =   9.4194534063846E-06
(PID.TID 0000.0001) %MON ke_max                       =   7.4505983683494E-04
(PID.TID 0000.0001) %MON ke_mean                      =   4.0738046847812E-05
(PID.TID 0000.0001) %MON ke_vol                       =   1.2571476858570E+18
(PID.TID 0000.0001) %MON vort_r_min                   =  -2.4130000704845E-07
(PID.TID 0000.0001) %MON vort_r_max                   =   2.6601706524126E-07
(PID.TID 0000.0001) %MON vort_a_mean                  =  -2.4002453570026E-05
(PID.TID 0000.0001) %MON vort_a_sd                    =   7.3137545981938E-05
(PID.TID 0000.0001) %MON vort_p_mean                  =  -2.8585773838204E-05
(PID.TID 0000.0001) %MON vort_p_sd                    =   1.1453288009608E-04
(PID.TID 0000.0001) %MON surfExpan_theta_mean         =   1.1210319545502E-04
(PID.TID 0000.0001) %MON surfExpan_salt_mean          =   9.8251354484038E-06
(PID.TID 0000.0001) // =======================================================
(PID.TID 0000.0001) // End MONITOR dynamic field statistics
(PID.TID 0000.0001) // =======================================================
(PID.TID 0000.0001) // =======================================================
(PID.TID 0000.0001) // Begin MONITOR ptracer field statistics
(PID.TID 0000.0001) // =======================================================
(PID.TID 0000.0001) %MON trcstat_ptracer01_max        =   2.3452948063966E+00
(PID.TID 0000.0001) %MON trcstat_ptracer01_min        =   1.8064642663024E+00
(PID.TID 0000.0001) %MON trcstat_ptracer01_mean       =   2.2008883717179E+00
(PID.TID 0000.0001) %MON trcstat_ptracer01_sd         =   7.6949507627607E-02
(PID.TID 0000.0001) %MON trcstat_ptracer01_del2       =   4.2746662047131E-05
(PID.TID 0000.0001) %MON trcstat_ptracer02_max        =   2.3977381083826E+00
(PID.TID 0000.0001) %MON trcstat_ptracer02_min        =   2.1285160553688E+00
(PID.TID 0000.0001) %MON trcstat_ptracer02_mean       =   2.3062093203310E+00
(PID.TID 0000.0001) %MON trcstat_ptracer02_sd         =   4.1744694591977E-02
(PID.TID 0000.0001) %MON trcstat_ptracer02_del2       =   2.3465477632021E-05
(PID.TID 0000.0001) %MON trcstat_ptracer03_max        =   4.7899740869333E-01
(PID.TID 0000.0001) %MON trcstat_ptracer03_min        =   1.7170839222628E-03
(PID.TID 0000.0001) %MON trcstat_ptracer03_mean       =   1.7341080952365E-01
(PID.TID 0000.0001) %MON trcstat_ptracer03_sd         =   6.3442736560742E-02
(PID.TID 0000.0001) %MON trcstat_ptracer03_del2       =   4.9487409980332E-05
(PID.TID 0000.0001) %MON trcstat_ptracer04_max        =   4.8773046647758E-02
(PID.TID 0000.0001) %MON trcstat_ptracer04_min        =   2.3499689994652E-07
(PID.TID 0000.0001) %MON trcstat_ptracer04_mean       =   3.1284162271017E-02
(PID.TID 0000.0001) %MON trcstat_ptracer04_sd         =   9.0967457354132E-03
(PID.TID 0000.0001) %MON trcstat_ptracer04_del2       =   6.6228870451767E-06
(PID.TID 0000.0001) %MON trcstat_ptracer05_max        =   3.6434130374659E-03
(PID.TID 0000.0001) %MON trcstat_ptracer05_min        =   4.5908633890161E-07
(PID.TID 0000.0001) %MON trcstat_ptracer05_mean       =   2.1903186565390E-03
(PID.TID 0000.0001) %MON trcstat_ptracer05_sd         =   6.4713549328710E-04
(PID.TID 0000.0001) %MON trcstat_ptracer05_del2       =   5.2293180375604E-07
(PID.TID 0000.0001) %MON trcstat_ptracer06_max        =   4.3089424236148E-06
(PID.TID 0000.0001) %MON trcstat_ptracer06_min        =   4.5689234736206E-08
(PID.TID 0000.0001) %MON trcstat_ptracer06_mean       =   4.3239688380549E-07
(PID.TID 0000.0001) %MON trcstat_ptracer06_sd         =   1.4360661690737E-07
(PID.TID 0000.0001) %MON trcstat_ptracer06_del2       =   3.2622355632963E-10
(PID.TID 0000.0001) %MON trcstat_ptracer07_max        =   4.8010450278994E-03
(PID.TID 0000.0001) %MON trcstat_ptracer07_min        =   9.9999379254819E-12
(PID.TID 0000.0001) %MON trcstat_ptracer07_mean       =   9.5295606579605E-05
(PID.TID 0000.0001) %MON trcstat_ptracer07_sd         =   4.2146125384717E-04
(PID.TID 0000.0001) %MON trcstat_ptracer07_del2       =   5.3237335402869E-07
(PID.TID 0000.0001) %MON trcstat_ptracer08_max        =   3.0005093788231E-04
(PID.TID 0000.0001) %MON trcstat_ptracer08_min        =   9.9998579833026E-12
(PID.TID 0000.0001) %MON trcstat_ptracer08_mean       =   5.9557310173426E-06
(PID.TID 0000.0001) %MON trcstat_ptracer08_sd         =   2.6340174174512E-05
(PID.TID 0000.0001) %MON trcstat_ptracer08_del2       =   3.3272387489456E-08
(PID.TID 0000.0001) // =======================================================
(PID.TID 0000.0001) // End MONITOR ptracer field statistics
(PID.TID 0000.0001) // =======================================================
(PID.TID 0000.0001) %CHECKPOINT         4 ckptA
(PID.TID 0000.0001) 
(PID.TID 0000.0001) == profiles_cost: begin ==
(PID.TID 0000.0001)  profiles_cost( 1, 1) =  0.157617558591043D+05 0.240000000000000D+02
(PID.TID 0000.0001)  profiles_cost( 1, 2) =  0.173246554803070D+06 0.190000000000000D+02
(PID.TID 0000.0001)  profiles_cost( 1,14) =  0.995783587784460D+03 0.240000000000000D+02
(PID.TID 0000.0001) == profiles_cost: end   ==
(PID.TID 0000.0001) 
(PID.TID 0000.0001)  --> f_profiles = 0.157617558591043D+05 1 1
(PID.TID 0000.0001)  --> f_profiles = 0.173246554803070D+06 1 2
(PID.TID 0000.0001)  --> f_profiles = 0.995783587784460D+03 114
(PID.TID 0000.0001)  --> f_gencost = 0.130557044252138D-02 1
(PID.TID 0000.0001)  --> f_genarr3d = 0.000000000000000D+00 1
(PID.TID 0000.0001)  --> f_genarr3d = 0.000000000000000D+00 2
(PID.TID 0000.0001)  --> f_genarr3d = 0.000000000000000D+00 3
(PID.TID 0000.0001)  --> f_genarr3d = 0.000000000000000D+00 4
(PID.TID 0000.0001)  --> f_genarr3d = 0.000000000000000D+00 5
(PID.TID 0000.0001)  --> f_genarr3d = 0.000000000000000D+00 6
(PID.TID 0000.0001)  --> f_genarr3d = 0.000000000000000D+00 7
(PID.TID 0000.0001)  --> f_genarr3d = 0.000000000000000D+00 8
(PID.TID 0000.0001)  --> fc               = 0.995783718341505D+03
(PID.TID 0000.0001) Writing cost function info to costfunction0000
(PID.TID 0000.0001)   early fc =  0.000000000000000D+00
(PID.TID 0000.0001)   local fc =  0.995783718341505D+03
(PID.TID 0000.0001)  global fc =  0.995783718341505D+03
(PID.TID 0000.0001) Start initial hydrostatic pressure computation
(PID.TID 0000.0001) Pressure is predetermined for buoyancyRelation OCEANIC
(PID.TID 0000.0001) 
(PID.TID 0000.0001) // =======================================================
(PID.TID 0000.0001) // Model current state
(PID.TID 0000.0001) // =======================================================
(PID.TID 0000.0001) 
(PID.TID 0000.0001) whio : write lev 2 rec   1
 cg2d: Sum(rhs),rhsMax =  -4.15931253883173E-08  3.40223385180036E+00
(PID.TID 0000.0001) whio : write lev 2 rec   2
 cg2d: Sum(rhs),rhsMax =  -3.43014932013830E-08  4.12548446401341E+00
(PID.TID 0000.0001) Did not write pickup because writePickupAtEnd = FALSE
 cg2d: Sum(rhs),rhsMax =   3.54689730919233E-08  4.12549222858236E+00
(PID.TID 0000.0001) Did not write pickup because writePickupAtEnd = FALSE
(PID.TID 0000.0001) Did not write pickup because writePickupAtEnd = FALSE
(PID.TID 0000.0001) // =======================================================
(PID.TID 0000.0001) // Begin AD_MONITOR dynamic field statistics
(PID.TID 0000.0001) // =======================================================
(PID.TID 0000.0001) %MON ad_time_tsnumber             =                     4
(PID.TID 0000.0001) %MON ad_time_secondsf             =   3.6000000000000E+03
(PID.TID 0000.0001) %MON ad_dynstat_adeta_max         =   0.0000000000000E+00
(PID.TID 0000.0001) %MON ad_dynstat_adeta_min         =   0.0000000000000E+00
(PID.TID 0000.0001) %MON ad_dynstat_adeta_mean        =   0.0000000000000E+00
(PID.TID 0000.0001) %MON ad_dynstat_adeta_sd          =   0.0000000000000E+00
(PID.TID 0000.0001) %MON ad_dynstat_adeta_del2        =   0.0000000000000E+00
(PID.TID 0000.0001) %MON ad_dynstat_aduvel_max        =   0.0000000000000E+00
(PID.TID 0000.0001) %MON ad_dynstat_aduvel_min        =   0.0000000000000E+00
(PID.TID 0000.0001) %MON ad_dynstat_aduvel_mean       =   0.0000000000000E+00
(PID.TID 0000.0001) %MON ad_dynstat_aduvel_sd         =   0.0000000000000E+00
(PID.TID 0000.0001) %MON ad_dynstat_aduvel_del2       =   0.0000000000000E+00
(PID.TID 0000.0001) %MON ad_dynstat_advvel_max        =   0.0000000000000E+00
(PID.TID 0000.0001) %MON ad_dynstat_advvel_min        =   0.0000000000000E+00
(PID.TID 0000.0001) %MON ad_dynstat_advvel_mean       =   0.0000000000000E+00
(PID.TID 0000.0001) %MON ad_dynstat_advvel_sd         =   0.0000000000000E+00
(PID.TID 0000.0001) %MON ad_dynstat_advvel_del2       =   0.0000000000000E+00
(PID.TID 0000.0001) %MON ad_dynstat_adwvel_max        =   0.0000000000000E+00
(PID.TID 0000.0001) %MON ad_dynstat_adwvel_min        =   0.0000000000000E+00
(PID.TID 0000.0001) %MON ad_dynstat_adwvel_mean       =   0.0000000000000E+00
(PID.TID 0000.0001) %MON ad_dynstat_adwvel_sd         =   0.0000000000000E+00
(PID.TID 0000.0001) %MON ad_dynstat_adwvel_del2       =   0.0000000000000E+00
(PID.TID 0000.0001) %MON ad_dynstat_adtheta_max       =   1.9351958762854E-04
(PID.TID 0000.0001) %MON ad_dynstat_adtheta_min       =  -1.3000487815589E-04
(PID.TID 0000.0001) %MON ad_dynstat_adtheta_mean      =   9.8631557711553E-09
(PID.TID 0000.0001) %MON ad_dynstat_adtheta_sd        =   2.6089107893343E-06
(PID.TID 0000.0001) %MON ad_dynstat_adtheta_del2      =   3.3013234475813E-08
(PID.TID 0000.0001) %MON ad_dynstat_adsalt_max        =   0.0000000000000E+00
(PID.TID 0000.0001) %MON ad_dynstat_adsalt_min        =   0.0000000000000E+00
(PID.TID 0000.0001) %MON ad_dynstat_adsalt_mean       =   0.0000000000000E+00
(PID.TID 0000.0001) %MON ad_dynstat_adsalt_sd         =   0.0000000000000E+00
(PID.TID 0000.0001) %MON ad_dynstat_adsalt_del2       =   0.0000000000000E+00
(PID.TID 0000.0001) // =======================================================
(PID.TID 0000.0001) // End AD_MONITOR dynamic field statistics
(PID.TID 0000.0001) // =======================================================
(PID.TID 0000.0001) // =======================================================
(PID.TID 0000.0001) // Begin AD_MONITOR ptracer field statistics
(PID.TID 0000.0001) // =======================================================
(PID.TID 0000.0001) %MON ad_trcstat_adptracer01_max   =   0.0000000000000E+00
(PID.TID 0000.0001) %MON ad_trcstat_adptracer01_min   =   0.0000000000000E+00
(PID.TID 0000.0001) %MON ad_trcstat_adptracer01_mean  =   0.0000000000000E+00
(PID.TID 0000.0001) %MON ad_trcstat_adptracer01_sd    =   0.0000000000000E+00
(PID.TID 0000.0001) %MON ad_trcstat_adptracer01_del2  =   0.0000000000000E+00
(PID.TID 0000.0001) %MON ad_trcstat_adptracer02_max   =   0.0000000000000E+00
(PID.TID 0000.0001) %MON ad_trcstat_adptracer02_min   =   0.0000000000000E+00
(PID.TID 0000.0001) %MON ad_trcstat_adptracer02_mean  =   0.0000000000000E+00
(PID.TID 0000.0001) %MON ad_trcstat_adptracer02_sd    =   0.0000000000000E+00
(PID.TID 0000.0001) %MON ad_trcstat_adptracer02_del2  =   0.0000000000000E+00
(PID.TID 0000.0001) %MON ad_trcstat_adptracer03_max   =   0.0000000000000E+00
(PID.TID 0000.0001) %MON ad_trcstat_adptracer03_min   =   0.0000000000000E+00
(PID.TID 0000.0001) %MON ad_trcstat_adptracer03_mean  =   0.0000000000000E+00
(PID.TID 0000.0001) %MON ad_trcstat_adptracer03_sd    =   0.0000000000000E+00
(PID.TID 0000.0001) %MON ad_trcstat_adptracer03_del2  =   0.0000000000000E+00
(PID.TID 0000.0001) %MON ad_trcstat_adptracer04_max   =   0.0000000000000E+00
(PID.TID 0000.0001) %MON ad_trcstat_adptracer04_min   =   0.0000000000000E+00
(PID.TID 0000.0001) %MON ad_trcstat_adptracer04_mean  =   0.0000000000000E+00
(PID.TID 0000.0001) %MON ad_trcstat_adptracer04_sd    =   0.0000000000000E+00
(PID.TID 0000.0001) %MON ad_trcstat_adptracer04_del2  =   0.0000000000000E+00
(PID.TID 0000.0001) %MON ad_trcstat_adptracer05_max   =   0.0000000000000E+00
(PID.TID 0000.0001) %MON ad_trcstat_adptracer05_min   =   0.0000000000000E+00
(PID.TID 0000.0001) %MON ad_trcstat_adptracer05_mean  =   0.0000000000000E+00
(PID.TID 0000.0001) %MON ad_trcstat_adptracer05_sd    =   0.0000000000000E+00
(PID.TID 0000.0001) %MON ad_trcstat_adptracer05_del2  =   0.0000000000000E+00
(PID.TID 0000.0001) %MON ad_trcstat_adptracer06_max   =   0.0000000000000E+00
(PID.TID 0000.0001) %MON ad_trcstat_adptracer06_min   =   0.0000000000000E+00
(PID.TID 0000.0001) %MON ad_trcstat_adptracer06_mean  =   0.0000000000000E+00
(PID.TID 0000.0001) %MON ad_trcstat_adptracer06_sd    =   0.0000000000000E+00
(PID.TID 0000.0001) %MON ad_trcstat_adptracer06_del2  =   0.0000000000000E+00
(PID.TID 0000.0001) %MON ad_trcstat_adptracer07_max   =   0.0000000000000E+00
(PID.TID 0000.0001) %MON ad_trcstat_adptracer07_min   =   0.0000000000000E+00
(PID.TID 0000.0001) %MON ad_trcstat_adptracer07_mean  =   0.0000000000000E+00
(PID.TID 0000.0001) %MON ad_trcstat_adptracer07_sd    =   0.0000000000000E+00
(PID.TID 0000.0001) %MON ad_trcstat_adptracer07_del2  =   0.0000000000000E+00
(PID.TID 0000.0001) %MON ad_trcstat_adptracer08_max   =   0.0000000000000E+00
(PID.TID 0000.0001) %MON ad_trcstat_adptracer08_min   =   0.0000000000000E+00
(PID.TID 0000.0001) %MON ad_trcstat_adptracer08_mean  =   0.0000000000000E+00
(PID.TID 0000.0001) %MON ad_trcstat_adptracer08_sd    =   0.0000000000000E+00
(PID.TID 0000.0001) %MON ad_trcstat_adptracer08_del2  =   0.0000000000000E+00
(PID.TID 0000.0001) // =======================================================
(PID.TID 0000.0001) // End AD_MONITOR ptracer field statistics
(PID.TID 0000.0001) // =======================================================
 Calling cg2d from S/R CG2D_MAD
 cg2d: Sum(rhs),rhsMax =   0.00000000000000E+00  0.00000000000000E+00
(PID.TID 0000.0001) // =======================================================
(PID.TID 0000.0001) // Begin AD_MONITOR EXF statistics for iwhen =  3
(PID.TID 0000.0001) // =======================================================
(PID.TID 0000.0001) %MON ad_exf_tsnumber              =                     3
(PID.TID 0000.0001) %MON ad_exf_time_sec              =   2.7000000000000E+03
(PID.TID 0000.0001) %MON ad_exf_adfu_max              =   0.0000000000000E+00
(PID.TID 0000.0001) %MON ad_exf_adfu_min              =   0.0000000000000E+00
(PID.TID 0000.0001) %MON ad_exf_adfu_mean             =   0.0000000000000E+00
(PID.TID 0000.0001) %MON ad_exf_adfu_sd               =   0.0000000000000E+00
(PID.TID 0000.0001) %MON ad_exf_adfu_del2             =   0.0000000000000E+00
(PID.TID 0000.0001) %MON ad_exf_adfv_max              =   0.0000000000000E+00
(PID.TID 0000.0001) %MON ad_exf_adfv_min              =   0.0000000000000E+00
(PID.TID 0000.0001) %MON ad_exf_adfv_mean             =   0.0000000000000E+00
(PID.TID 0000.0001) %MON ad_exf_adfv_sd               =   0.0000000000000E+00
(PID.TID 0000.0001) %MON ad_exf_adfv_del2             =   0.0000000000000E+00
(PID.TID 0000.0001) %MON ad_exf_adqnet_max            =   1.0849887053727E-09
(PID.TID 0000.0001) %MON ad_exf_adqnet_min            =  -1.6150672822030E-09
(PID.TID 0000.0001) %MON ad_exf_adqnet_mean           =  -6.2646957570312E-12
(PID.TID 0000.0001) %MON ad_exf_adqnet_sd             =   1.8985527148117E-10
(PID.TID 0000.0001) %MON ad_exf_adqnet_del2           =   3.4492874336685E-12
(PID.TID 0000.0001) %MON ad_exf_adempmr_max           =   0.0000000000000E+00
(PID.TID 0000.0001) %MON ad_exf_adempmr_min           =   0.0000000000000E+00
(PID.TID 0000.0001) %MON ad_exf_adempmr_mean          =   0.0000000000000E+00
(PID.TID 0000.0001) %MON ad_exf_adempmr_sd            =   0.0000000000000E+00
(PID.TID 0000.0001) %MON ad_exf_adempmr_del2          =   0.0000000000000E+00
(PID.TID 0000.0001) %MON ad_exf_adqsw_max             =   5.0377260949814E-11
(PID.TID 0000.0001) %MON ad_exf_adqsw_min             =  -3.3843016454051E-11
(PID.TID 0000.0001) %MON ad_exf_adqsw_mean            =   1.9507655273481E-13
(PID.TID 0000.0001) %MON ad_exf_adqsw_sd              =   5.9219259181225E-12
(PID.TID 0000.0001) %MON ad_exf_adqsw_del2            =   1.0761050046377E-13
(PID.TID 0000.0001) // =======================================================
(PID.TID 0000.0001) // End AD_MONITOR EXF statistics for iwhen =  3
(PID.TID 0000.0001) // =======================================================
 cg2d: Sum(rhs),rhsMax =  -4.15931253883173E-08  3.40223385180036E+00
(PID.TID 0000.0001) // =======================================================
(PID.TID 0000.0001) // Begin AD_MONITOR dynamic field statistics
(PID.TID 0000.0001) // =======================================================
(PID.TID 0000.0001) %MON ad_time_tsnumber             =                     3
(PID.TID 0000.0001) %MON ad_time_secondsf             =   2.7000000000000E+03
(PID.TID 0000.0001) %MON ad_dynstat_adeta_max         =   0.0000000000000E+00
(PID.TID 0000.0001) %MON ad_dynstat_adeta_min         =   0.0000000000000E+00
(PID.TID 0000.0001) %MON ad_dynstat_adeta_mean        =   0.0000000000000E+00
(PID.TID 0000.0001) %MON ad_dynstat_adeta_sd          =   0.0000000000000E+00
(PID.TID 0000.0001) %MON ad_dynstat_adeta_del2        =   0.0000000000000E+00
(PID.TID 0000.0001) %MON ad_dynstat_aduvel_max        =   7.7275689548057E-07
(PID.TID 0000.0001) %MON ad_dynstat_aduvel_min        =  -1.1791963879117E-06
(PID.TID 0000.0001) %MON ad_dynstat_aduvel_mean       =  -1.0566435187518E-11
(PID.TID 0000.0001) %MON ad_dynstat_aduvel_sd         =   9.7166116522408E-09
(PID.TID 0000.0001) %MON ad_dynstat_aduvel_del2       =   1.9924040984728E-10
(PID.TID 0000.0001) %MON ad_dynstat_advvel_max        =   3.8803910510555E-06
(PID.TID 0000.0001) %MON ad_dynstat_advvel_min        =  -9.7304385593375E-07
(PID.TID 0000.0001) %MON ad_dynstat_advvel_mean       =   2.8707340844580E-10
(PID.TID 0000.0001) %MON ad_dynstat_advvel_sd         =   2.8267332963348E-08
(PID.TID 0000.0001) %MON ad_dynstat_advvel_del2       =   3.4143029360948E-10
(PID.TID 0000.0001) %MON ad_dynstat_adwvel_max        =   1.1360551413437E-02
(PID.TID 0000.0001) %MON ad_dynstat_adwvel_min        =  -1.8658087542192E-02
(PID.TID 0000.0001) %MON ad_dynstat_adwvel_mean       =  -1.7819430798106E-06
(PID.TID 0000.0001) %MON ad_dynstat_adwvel_sd         =   2.2118904272645E-04
(PID.TID 0000.0001) %MON ad_dynstat_adwvel_del2       =   2.8504626892842E-06
(PID.TID 0000.0001) %MON ad_dynstat_adtheta_max       =   3.8737889912949E-04
(PID.TID 0000.0001) %MON ad_dynstat_adtheta_min       =  -2.5972367525433E-04
(PID.TID 0000.0001) %MON ad_dynstat_adtheta_mean      =   1.9684426014734E-08
(PID.TID 0000.0001) %MON ad_dynstat_adtheta_sd        =   5.2184514835912E-06
(PID.TID 0000.0001) %MON ad_dynstat_adtheta_del2      =   6.6032160487113E-08
(PID.TID 0000.0001) %MON ad_dynstat_adsalt_max        =   1.2761103556284E-06
(PID.TID 0000.0001) %MON ad_dynstat_adsalt_min        =  -1.2825365681176E-06
(PID.TID 0000.0001) %MON ad_dynstat_adsalt_mean       =  -1.3549010252102E-11
(PID.TID 0000.0001) %MON ad_dynstat_adsalt_sd         =   4.6270072768044E-09
(PID.TID 0000.0001) %MON ad_dynstat_adsalt_del2       =   1.0373734109173E-10
(PID.TID 0000.0001) // =======================================================
(PID.TID 0000.0001) // End AD_MONITOR dynamic field statistics
(PID.TID 0000.0001) // =======================================================
(PID.TID 0000.0001) // =======================================================
(PID.TID 0000.0001) // Begin AD_MONITOR ptracer field statistics
(PID.TID 0000.0001) // =======================================================
(PID.TID 0000.0001) %MON ad_trcstat_adptracer01_max   =   0.0000000000000E+00
(PID.TID 0000.0001) %MON ad_trcstat_adptracer01_min   =   0.0000000000000E+00
(PID.TID 0000.0001) %MON ad_trcstat_adptracer01_mean  =   0.0000000000000E+00
(PID.TID 0000.0001) %MON ad_trcstat_adptracer01_sd    =   0.0000000000000E+00
(PID.TID 0000.0001) %MON ad_trcstat_adptracer01_del2  =   0.0000000000000E+00
(PID.TID 0000.0001) %MON ad_trcstat_adptracer02_max   =   0.0000000000000E+00
(PID.TID 0000.0001) %MON ad_trcstat_adptracer02_min   =   0.0000000000000E+00
(PID.TID 0000.0001) %MON ad_trcstat_adptracer02_mean  =   0.0000000000000E+00
(PID.TID 0000.0001) %MON ad_trcstat_adptracer02_sd    =   0.0000000000000E+00
(PID.TID 0000.0001) %MON ad_trcstat_adptracer02_del2  =   0.0000000000000E+00
(PID.TID 0000.0001) %MON ad_trcstat_adptracer03_max   =   0.0000000000000E+00
(PID.TID 0000.0001) %MON ad_trcstat_adptracer03_min   =   0.0000000000000E+00
(PID.TID 0000.0001) %MON ad_trcstat_adptracer03_mean  =   0.0000000000000E+00
(PID.TID 0000.0001) %MON ad_trcstat_adptracer03_sd    =   0.0000000000000E+00
(PID.TID 0000.0001) %MON ad_trcstat_adptracer03_del2  =   0.0000000000000E+00
(PID.TID 0000.0001) %MON ad_trcstat_adptracer04_max   =   0.0000000000000E+00
(PID.TID 0000.0001) %MON ad_trcstat_adptracer04_min   =   0.0000000000000E+00
(PID.TID 0000.0001) %MON ad_trcstat_adptracer04_mean  =   0.0000000000000E+00
(PID.TID 0000.0001) %MON ad_trcstat_adptracer04_sd    =   0.0000000000000E+00
(PID.TID 0000.0001) %MON ad_trcstat_adptracer04_del2  =   0.0000000000000E+00
(PID.TID 0000.0001) %MON ad_trcstat_adptracer05_max   =   0.0000000000000E+00
(PID.TID 0000.0001) %MON ad_trcstat_adptracer05_min   =   0.0000000000000E+00
(PID.TID 0000.0001) %MON ad_trcstat_adptracer05_mean  =   0.0000000000000E+00
(PID.TID 0000.0001) %MON ad_trcstat_adptracer05_sd    =   0.0000000000000E+00
(PID.TID 0000.0001) %MON ad_trcstat_adptracer05_del2  =   0.0000000000000E+00
(PID.TID 0000.0001) %MON ad_trcstat_adptracer06_max   =   0.0000000000000E+00
(PID.TID 0000.0001) %MON ad_trcstat_adptracer06_min   =   0.0000000000000E+00
(PID.TID 0000.0001) %MON ad_trcstat_adptracer06_mean  =   0.0000000000000E+00
(PID.TID 0000.0001) %MON ad_trcstat_adptracer06_sd    =   0.0000000000000E+00
(PID.TID 0000.0001) %MON ad_trcstat_adptracer06_del2  =   0.0000000000000E+00
(PID.TID 0000.0001) %MON ad_trcstat_adptracer07_max   =   0.0000000000000E+00
(PID.TID 0000.0001) %MON ad_trcstat_adptracer07_min   =   0.0000000000000E+00
(PID.TID 0000.0001) %MON ad_trcstat_adptracer07_mean  =   0.0000000000000E+00
(PID.TID 0000.0001) %MON ad_trcstat_adptracer07_sd    =   0.0000000000000E+00
(PID.TID 0000.0001) %MON ad_trcstat_adptracer07_del2  =   0.0000000000000E+00
(PID.TID 0000.0001) %MON ad_trcstat_adptracer08_max   =   0.0000000000000E+00
(PID.TID 0000.0001) %MON ad_trcstat_adptracer08_min   =   0.0000000000000E+00
(PID.TID 0000.0001) %MON ad_trcstat_adptracer08_mean  =   0.0000000000000E+00
(PID.TID 0000.0001) %MON ad_trcstat_adptracer08_sd    =   0.0000000000000E+00
(PID.TID 0000.0001) %MON ad_trcstat_adptracer08_del2  =   0.0000000000000E+00
(PID.TID 0000.0001) // =======================================================
(PID.TID 0000.0001) // End AD_MONITOR ptracer field statistics
(PID.TID 0000.0001) // =======================================================
 Calling cg2d from S/R CG2D_MAD
 cg2d: Sum(rhs),rhsMax =   4.44089209850063E-15  8.79373251344524E-11
(PID.TID 0000.0001) // =======================================================
(PID.TID 0000.0001) // Begin AD_MONITOR EXF statistics for iwhen =  3
(PID.TID 0000.0001) // =======================================================
(PID.TID 0000.0001) %MON ad_exf_tsnumber              =                     2
(PID.TID 0000.0001) %MON ad_exf_time_sec              =   1.8000000000000E+03
(PID.TID 0000.0001) %MON ad_exf_adfu_max              =   2.7606224793734E-08
(PID.TID 0000.0001) %MON ad_exf_adfu_min              =  -4.6425371162370E-08
(PID.TID 0000.0001) %MON ad_exf_adfu_mean             =  -7.1291550433373E-11
(PID.TID 0000.0001) %MON ad_exf_adfu_sd               =   3.0197128016499E-09
(PID.TID 0000.0001) %MON ad_exf_adfu_del2             =   9.0347517792015E-11
(PID.TID 0000.0001) %MON ad_exf_adfv_max              =   1.3221377150524E-07
(PID.TID 0000.0001) %MON ad_exf_adfv_min              =  -5.4358597405097E-08
(PID.TID 0000.0001) %MON ad_exf_adfv_mean             =   6.4229204798925E-10
(PID.TID 0000.0001) %MON ad_exf_adfv_sd               =   8.4004737279691E-09
(PID.TID 0000.0001) %MON ad_exf_adfv_del2             =   1.6202882342087E-10
(PID.TID 0000.0001) %MON ad_exf_adqnet_max            =   3.7331639803229E-06
(PID.TID 0000.0001) %MON ad_exf_adqnet_min            =  -2.1094447308240E-09
(PID.TID 0000.0001) %MON ad_exf_adqnet_mean           =   7.1140552682085E-10
(PID.TID 0000.0001) %MON ad_exf_adqnet_sd             =   4.4941734930961E-08
(PID.TID 0000.0001) %MON ad_exf_adqnet_del2           =   2.6234009362754E-09
(PID.TID 0000.0001) %MON ad_exf_adempmr_max           =   1.4861637184736E-06
(PID.TID 0000.0001) %MON ad_exf_adempmr_min           =  -3.9131237020351E-01
(PID.TID 0000.0001) %MON ad_exf_adempmr_mean          =  -7.5671214032101E-05
(PID.TID 0000.0001) %MON ad_exf_adempmr_sd            =   4.7132991711927E-03
(PID.TID 0000.0001) %MON ad_exf_adempmr_del2          =   2.7471239293158E-04
(PID.TID 0000.0001) %MON ad_exf_adqsw_max             =   6.5863451420773E-11
(PID.TID 0000.0001) %MON ad_exf_adqsw_min             =  -1.3531539124297E-08
(PID.TID 0000.0001) %MON ad_exf_adqsw_mean            =  -2.3362856754854E-12
(PID.TID 0000.0001) %MON ad_exf_adqsw_sd              =   1.6284065478841E-10
(PID.TID 0000.0001) %MON ad_exf_adqsw_del2            =   9.5260812162566E-12
(PID.TID 0000.0001) // =======================================================
(PID.TID 0000.0001) // End AD_MONITOR EXF statistics for iwhen =  3
(PID.TID 0000.0001) // =======================================================
(PID.TID 0000.0001) whio : write lev 2 rec   1
(PID.TID 0000.0001) SOLVE_FOR_PRESSURE: putPmEinXvector =    F
 cg2d: Sum(rhs),rhsMax =  -8.88178419700125E-16  1.12611745267849E+00
(PID.TID 0000.0001) whio : write lev 2 rec   2
 cg2d: Sum(rhs),rhsMax =  -3.37507799486048E-14  2.39596792572070E+00
 cg2d: Sum(rhs),rhsMax =   2.18964304465885E-08  2.39597516151526E+00
(PID.TID 0000.0001) // =======================================================
(PID.TID 0000.0001) // Begin AD_MONITOR dynamic field statistics
(PID.TID 0000.0001) // =======================================================
(PID.TID 0000.0001) %MON ad_time_tsnumber             =                     2
(PID.TID 0000.0001) %MON ad_time_secondsf             =   1.8000000000000E+03
(PID.TID 0000.0001) %MON ad_dynstat_adeta_max         =   6.5771413170702E-06
(PID.TID 0000.0001) %MON ad_dynstat_adeta_min         =  -5.2572319155877E-06
(PID.TID 0000.0001) %MON ad_dynstat_adeta_mean        =  -4.5613700351413E-10
(PID.TID 0000.0001) %MON ad_dynstat_adeta_sd          =   5.5798549978367E-07
(PID.TID 0000.0001) %MON ad_dynstat_adeta_del2        =   1.7356113325438E-08
(PID.TID 0000.0001) %MON ad_dynstat_aduvel_max        =   6.7275442275782E-04
(PID.TID 0000.0001) %MON ad_dynstat_aduvel_min        =  -6.6496396183709E-04
(PID.TID 0000.0001) %MON ad_dynstat_aduvel_mean       =  -3.6260340985047E-08
(PID.TID 0000.0001) %MON ad_dynstat_aduvel_sd         =   5.5219778552577E-06
(PID.TID 0000.0001) %MON ad_dynstat_aduvel_del2       =   9.2139923015406E-08
(PID.TID 0000.0001) %MON ad_dynstat_advvel_max        =   1.6496059870883E-03
(PID.TID 0000.0001) %MON ad_dynstat_advvel_min        =  -2.3680363227691E-03
(PID.TID 0000.0001) %MON ad_dynstat_advvel_mean       =   2.1106918960958E-10
(PID.TID 0000.0001) %MON ad_dynstat_advvel_sd         =   1.4521401385908E-05
(PID.TID 0000.0001) %MON ad_dynstat_advvel_del2       =   2.6267694952007E-07
(PID.TID 0000.0001) %MON ad_dynstat_adwvel_max        =   1.9470468035980E+00
(PID.TID 0000.0001) %MON ad_dynstat_adwvel_min        =  -1.6437268474658E+01
(PID.TID 0000.0001) %MON ad_dynstat_adwvel_mean       =  -2.1112947684161E-04
(PID.TID 0000.0001) %MON ad_dynstat_adwvel_sd         =   5.3518368602149E-02
(PID.TID 0000.0001) %MON ad_dynstat_adwvel_del2       =   1.5819798889296E-03
(PID.TID 0000.0001) %MON ad_dynstat_adtheta_max       =   5.8123692253958E-04
(PID.TID 0000.0001) %MON ad_dynstat_adtheta_min       =  -7.4829907472524E-01
(PID.TID 0000.0001) %MON ad_dynstat_adtheta_mean      =  -4.8730989465549E-05
(PID.TID 0000.0001) %MON ad_dynstat_adtheta_sd        =   4.3699032169834E-03
(PID.TID 0000.0001) %MON ad_dynstat_adtheta_del2      =   8.3991310091739E-05
(PID.TID 0000.0001) %MON ad_dynstat_adsalt_max        =   6.7438279812818E-05
(PID.TID 0000.0001) %MON ad_dynstat_adsalt_min        =  -5.2898572782166E-01
(PID.TID 0000.0001) %MON ad_dynstat_adsalt_mean       =  -3.4689218842323E-05
(PID.TID 0000.0001) %MON ad_dynstat_adsalt_sd         =   3.0946167694817E-03
(PID.TID 0000.0001) %MON ad_dynstat_adsalt_del2       =   5.9932352820621E-05
(PID.TID 0000.0001) // =======================================================
(PID.TID 0000.0001) // End AD_MONITOR dynamic field statistics
(PID.TID 0000.0001) // =======================================================
(PID.TID 0000.0001) // =======================================================
(PID.TID 0000.0001) // Begin AD_MONITOR ptracer field statistics
(PID.TID 0000.0001) // =======================================================
(PID.TID 0000.0001) %MON ad_trcstat_adptracer01_max   =   5.6338583379584E-04
(PID.TID 0000.0001) %MON ad_trcstat_adptracer01_min   =  -1.4739883571399E+02
(PID.TID 0000.0001) %MON ad_trcstat_adptracer01_mean  =  -9.3724334627558E-03
(PID.TID 0000.0001) %MON ad_trcstat_adptracer01_sd    =   8.4641731465544E-01
(PID.TID 0000.0001) %MON ad_trcstat_adptracer01_del2  =   1.5699962608765E-02
(PID.TID 0000.0001) %MON ad_trcstat_adptracer02_max   =   1.4449445357538E+02
(PID.TID 0000.0001) %MON ad_trcstat_adptracer02_min   =  -5.5228474224895E-04
(PID.TID 0000.0001) %MON ad_trcstat_adptracer02_mean  =   9.1675351528047E-03
(PID.TID 0000.0001) %MON ad_trcstat_adptracer02_sd    =   8.2871003652015E-01
(PID.TID 0000.0001) %MON ad_trcstat_adptracer02_del2  =   1.5328756366617E-02
(PID.TID 0000.0001) %MON ad_trcstat_adptracer03_max   =   0.0000000000000E+00
(PID.TID 0000.0001) %MON ad_trcstat_adptracer03_min   =   0.0000000000000E+00
(PID.TID 0000.0001) %MON ad_trcstat_adptracer03_mean  =   0.0000000000000E+00
(PID.TID 0000.0001) %MON ad_trcstat_adptracer03_sd    =   0.0000000000000E+00
(PID.TID 0000.0001) %MON ad_trcstat_adptracer03_del2  =   0.0000000000000E+00
(PID.TID 0000.0001) %MON ad_trcstat_adptracer04_max   =   0.0000000000000E+00
(PID.TID 0000.0001) %MON ad_trcstat_adptracer04_min   =   0.0000000000000E+00
(PID.TID 0000.0001) %MON ad_trcstat_adptracer04_mean  =   0.0000000000000E+00
(PID.TID 0000.0001) %MON ad_trcstat_adptracer04_sd    =   0.0000000000000E+00
(PID.TID 0000.0001) %MON ad_trcstat_adptracer04_del2  =   0.0000000000000E+00
(PID.TID 0000.0001) %MON ad_trcstat_adptracer05_max   =   5.5889991511413E-04
(PID.TID 0000.0001) %MON ad_trcstat_adptracer05_min   =  -1.4622518295983E+02
(PID.TID 0000.0001) %MON ad_trcstat_adptracer05_mean  =  -9.3108811035871E-03
(PID.TID 0000.0001) %MON ad_trcstat_adptracer05_sd    =   8.4077761886744E-01
(PID.TID 0000.0001) %MON ad_trcstat_adptracer05_del2  =   1.5615658048278E-02
(PID.TID 0000.0001) %MON ad_trcstat_adptracer06_max   =   0.0000000000000E+00
(PID.TID 0000.0001) %MON ad_trcstat_adptracer06_min   =   0.0000000000000E+00
(PID.TID 0000.0001) %MON ad_trcstat_adptracer06_mean  =   0.0000000000000E+00
(PID.TID 0000.0001) %MON ad_trcstat_adptracer06_sd    =   0.0000000000000E+00
(PID.TID 0000.0001) %MON ad_trcstat_adptracer06_del2  =   0.0000000000000E+00
(PID.TID 0000.0001) %MON ad_trcstat_adptracer07_max   =   0.0000000000000E+00
(PID.TID 0000.0001) %MON ad_trcstat_adptracer07_min   =   0.0000000000000E+00
(PID.TID 0000.0001) %MON ad_trcstat_adptracer07_mean  =   0.0000000000000E+00
(PID.TID 0000.0001) %MON ad_trcstat_adptracer07_sd    =   0.0000000000000E+00
(PID.TID 0000.0001) %MON ad_trcstat_adptracer07_del2  =   0.0000000000000E+00
(PID.TID 0000.0001) %MON ad_trcstat_adptracer08_max   =   0.0000000000000E+00
(PID.TID 0000.0001) %MON ad_trcstat_adptracer08_min   =   0.0000000000000E+00
(PID.TID 0000.0001) %MON ad_trcstat_adptracer08_mean  =   0.0000000000000E+00
(PID.TID 0000.0001) %MON ad_trcstat_adptracer08_sd    =   0.0000000000000E+00
(PID.TID 0000.0001) %MON ad_trcstat_adptracer08_del2  =   0.0000000000000E+00
(PID.TID 0000.0001) // =======================================================
(PID.TID 0000.0001) // End AD_MONITOR ptracer field statistics
(PID.TID 0000.0001) // =======================================================
 Calling cg2d from S/R CG2D_MAD
 cg2d: Sum(rhs),rhsMax =   1.39862080250630E-16  1.46144154046392E-06
(PID.TID 0000.0001) // =======================================================
(PID.TID 0000.0001) // Begin AD_MONITOR EXF statistics for iwhen =  3
(PID.TID 0000.0001) // =======================================================
(PID.TID 0000.0001) %MON ad_exf_tsnumber              =                     1
(PID.TID 0000.0001) %MON ad_exf_time_sec              =   9.0000000000000E+02
(PID.TID 0000.0001) %MON ad_exf_adfu_max              =   2.8649707019547E-04
(PID.TID 0000.0001) %MON ad_exf_adfu_min              =  -3.7460328826290E-04
(PID.TID 0000.0001) %MON ad_exf_adfu_mean             =  -7.7589212922937E-10
(PID.TID 0000.0001) %MON ad_exf_adfu_sd               =   5.5428983870802E-06
(PID.TID 0000.0001) %MON ad_exf_adfu_del2             =   4.1435986165416E-07
(PID.TID 0000.0001) %MON ad_exf_adfv_max              =   1.4210100988597E-04
(PID.TID 0000.0001) %MON ad_exf_adfv_min              =  -1.2586527434753E-04
(PID.TID 0000.0001) %MON ad_exf_adfv_mean             =   3.5884984981423E-09
(PID.TID 0000.0001) %MON ad_exf_adfv_sd               =   2.3122960835635E-06
(PID.TID 0000.0001) %MON ad_exf_adfv_del2             =   1.7331964102760E-07
(PID.TID 0000.0001) %MON ad_exf_adqnet_max            =   8.4159012973573E-07
(PID.TID 0000.0001) %MON ad_exf_adqnet_min            =  -1.8984055542891E-09
(PID.TID 0000.0001) %MON ad_exf_adqnet_mean           =   1.5496565192638E-10
(PID.TID 0000.0001) %MON ad_exf_adqnet_sd             =   1.0135054451649E-08
(PID.TID 0000.0001) %MON ad_exf_adqnet_del2           =   5.9138461903179E-10
(PID.TID 0000.0001) %MON ad_exf_adempmr_max           =   1.3111888758936E-06
(PID.TID 0000.0001) %MON ad_exf_adempmr_min           =  -8.8237994003240E-02
(PID.TID 0000.0001) %MON ad_exf_adempmr_mean          =  -1.7078365318067E-05
(PID.TID 0000.0001) %MON ad_exf_adempmr_sd            =   1.0629897318106E-03
(PID.TID 0000.0001) %MON ad_exf_adempmr_del2          =   6.1927669094244E-05
(PID.TID 0000.0001) %MON ad_exf_adqsw_max             =   5.9295639881873E-11
(PID.TID 0000.0001) %MON ad_exf_adqsw_min             =  -5.0458000029015E-08
(PID.TID 0000.0001) %MON ad_exf_adqsw_mean            =  -9.5115485109356E-12
(PID.TID 0000.0001) %MON ad_exf_adqsw_sd              =   6.0770677196841E-10
(PID.TID 0000.0001) %MON ad_exf_adqsw_del2            =   3.5445537326235E-11
(PID.TID 0000.0001) // =======================================================
(PID.TID 0000.0001) // End AD_MONITOR EXF statistics for iwhen =  3
(PID.TID 0000.0001) // =======================================================
(PID.TID 0000.0001) SOLVE_FOR_PRESSURE: putPmEinXvector =    F
 cg2d: Sum(rhs),rhsMax =  -8.88178419700125E-16  1.12611745267849E+00
(PID.TID 0000.0001) // =======================================================
(PID.TID 0000.0001) // Begin AD_MONITOR dynamic field statistics
(PID.TID 0000.0001) // =======================================================
(PID.TID 0000.0001) %MON ad_time_tsnumber             =                     1
(PID.TID 0000.0001) %MON ad_time_secondsf             =   9.0000000000000E+02
(PID.TID 0000.0001) %MON ad_dynstat_adeta_max         =   3.7998119450709E-02
(PID.TID 0000.0001) %MON ad_dynstat_adeta_min         =  -6.9265776736661E-03
(PID.TID 0000.0001) %MON ad_dynstat_adeta_mean        =  -7.1784458666745E-08
(PID.TID 0000.0001) %MON ad_dynstat_adeta_sd          =   4.5694379530843E-04
(PID.TID 0000.0001) %MON ad_dynstat_adeta_del2        =   3.0726310695551E-05
(PID.TID 0000.0001) %MON ad_dynstat_aduvel_max        =   3.7415860542308E-02
(PID.TID 0000.0001) %MON ad_dynstat_aduvel_min        =  -2.7753092637159E-02
(PID.TID 0000.0001) %MON ad_dynstat_aduvel_mean       =  -2.4108745955136E-06
(PID.TID 0000.0001) %MON ad_dynstat_aduvel_sd         =   5.5419176170194E-04
(PID.TID 0000.0001) %MON ad_dynstat_aduvel_del2       =   7.1803924887314E-06
(PID.TID 0000.0001) %MON ad_dynstat_advvel_max        =   2.4033079988673E-02
(PID.TID 0000.0001) %MON ad_dynstat_advvel_min        =  -2.2909235782628E-02
(PID.TID 0000.0001) %MON ad_dynstat_advvel_mean       =   4.9042099792177E-06
(PID.TID 0000.0001) %MON ad_dynstat_advvel_sd         =   4.0362285012437E-04
(PID.TID 0000.0001) %MON ad_dynstat_advvel_del2       =   4.7959944188015E-06
(PID.TID 0000.0001) %MON ad_dynstat_adwvel_max        =   7.7218670624651E-01
(PID.TID 0000.0001) %MON ad_dynstat_adwvel_min        =  -1.9355505903692E+01
(PID.TID 0000.0001) %MON ad_dynstat_adwvel_mean       =  -1.4234851748393E-04
(PID.TID 0000.0001) %MON ad_dynstat_adwvel_sd         =   3.4752266135216E-02
(PID.TID 0000.0001) %MON ad_dynstat_adwvel_del2       =   1.1741450600749E-03
(PID.TID 0000.0001) %MON ad_dynstat_adtheta_max       =   7.7497073814315E-04
(PID.TID 0000.0001) %MON ad_dynstat_adtheta_min       =  -5.2663126170447E-01
(PID.TID 0000.0001) %MON ad_dynstat_adtheta_mean      =  -3.0948778373714E-05
(PID.TID 0000.0001) %MON ad_dynstat_adtheta_sd        =   2.8134768954784E-03
(PID.TID 0000.0001) %MON ad_dynstat_adtheta_del2      =   5.8052605055212E-05
(PID.TID 0000.0001) %MON ad_dynstat_adsalt_max        =   9.5941968873148E-03
(PID.TID 0000.0001) %MON ad_dynstat_adsalt_min        =  -3.9233503011443E-01
(PID.TID 0000.0001) %MON ad_dynstat_adsalt_mean       =  -2.2076356243774E-05
(PID.TID 0000.0001) %MON ad_dynstat_adsalt_sd         =   1.9136420376235E-03
(PID.TID 0000.0001) %MON ad_dynstat_adsalt_del2       =   4.0226373109518E-05
(PID.TID 0000.0001) // =======================================================
(PID.TID 0000.0001) // End AD_MONITOR dynamic field statistics
(PID.TID 0000.0001) // =======================================================
(PID.TID 0000.0001) // =======================================================
(PID.TID 0000.0001) // Begin AD_MONITOR ptracer field statistics
(PID.TID 0000.0001) // =======================================================
(PID.TID 0000.0001) %MON ad_trcstat_adptracer01_max   =   7.4927260073476E-04
(PID.TID 0000.0001) %MON ad_trcstat_adptracer01_min   =  -9.2276291355584E+01
(PID.TID 0000.0001) %MON ad_trcstat_adptracer01_mean  =  -5.9368870021608E-03
(PID.TID 0000.0001) %MON ad_trcstat_adptracer01_sd    =   5.3866474017163E-01
(PID.TID 0000.0001) %MON ad_trcstat_adptracer01_del2  =   1.0514296044038E-02
(PID.TID 0000.0001) %MON ad_trcstat_adptracer02_max   =   9.0458067219395E+01
(PID.TID 0000.0001) %MON ad_trcstat_adptracer02_min   =  -7.3450885499494E-04
(PID.TID 0000.0001) %MON ad_trcstat_adptracer02_mean  =   5.8055071269230E-03
(PID.TID 0000.0001) %MON ad_trcstat_adptracer02_sd    =   5.2710386182927E-01
(PID.TID 0000.0001) %MON ad_trcstat_adptracer02_del2  =   1.0242374511081E-02
(PID.TID 0000.0001) %MON ad_trcstat_adptracer03_max   =   1.7351921359821E-10
(PID.TID 0000.0001) %MON ad_trcstat_adptracer03_min   =  -1.6083110919663E-07
(PID.TID 0000.0001) %MON ad_trcstat_adptracer03_mean  =  -3.2208378473348E-12
(PID.TID 0000.0001) %MON ad_trcstat_adptracer03_sd    =   4.2439043936729E-10
(PID.TID 0000.0001) %MON ad_trcstat_adptracer03_del2  =   1.3757704234655E-11
(PID.TID 0000.0001) %MON ad_trcstat_adptracer04_max   =   0.0000000000000E+00
(PID.TID 0000.0001) %MON ad_trcstat_adptracer04_min   =   0.0000000000000E+00
(PID.TID 0000.0001) %MON ad_trcstat_adptracer04_mean  =   0.0000000000000E+00
(PID.TID 0000.0001) %MON ad_trcstat_adptracer04_sd    =   0.0000000000000E+00
(PID.TID 0000.0001) %MON ad_trcstat_adptracer04_del2  =   0.0000000000000E+00
(PID.TID 0000.0001) %MON ad_trcstat_adptracer05_max   =   7.4330675655108E-04
(PID.TID 0000.0001) %MON ad_trcstat_adptracer05_min   =  -9.1541578982549E+01
(PID.TID 0000.0001) %MON ad_trcstat_adptracer05_mean  =  -5.8986592320097E-03
(PID.TID 0000.0001) %MON ad_trcstat_adptracer05_sd    =   5.3520278272367E-01
(PID.TID 0000.0001) %MON ad_trcstat_adptracer05_del2  =   1.0466447571300E-02
(PID.TID 0000.0001) %MON ad_trcstat_adptracer06_max   =   4.4670307099431E+02
(PID.TID 0000.0001) %MON ad_trcstat_adptracer06_min   =  -1.4964465524857E-03
(PID.TID 0000.0001) %MON ad_trcstat_adptracer06_mean  =   1.1003885147332E-03
(PID.TID 0000.0001) %MON ad_trcstat_adptracer06_sd    =   6.1372551168057E-01
(PID.TID 0000.0001) %MON ad_trcstat_adptracer06_del2  =   2.5277068170098E-02
(PID.TID 0000.0001) %MON ad_trcstat_adptracer07_max   =   4.7434723060358E-08
(PID.TID 0000.0001) %MON ad_trcstat_adptracer07_min   =  -8.1227425514297E-03
(PID.TID 0000.0001) %MON ad_trcstat_adptracer07_mean  =  -5.1641551897989E-07
(PID.TID 0000.0001) %MON ad_trcstat_adptracer07_sd    =   4.6638213816839E-05
(PID.TID 0000.0001) %MON ad_trcstat_adptracer07_del2  =   8.6474495354830E-07
(PID.TID 0000.0001) %MON ad_trcstat_adptracer08_max   =   1.2174704467389E-08
(PID.TID 0000.0001) %MON ad_trcstat_adptracer08_min   =  -2.0848013564986E-03
(PID.TID 0000.0001) %MON ad_trcstat_adptracer08_mean  =  -1.3276781319541E-07
(PID.TID 0000.0001) %MON ad_trcstat_adptracer08_sd    =   1.1987847106024E-05
(PID.TID 0000.0001) %MON ad_trcstat_adptracer08_del2  =   2.2264162946264E-07
(PID.TID 0000.0001) // =======================================================
(PID.TID 0000.0001) // End AD_MONITOR ptracer field statistics
(PID.TID 0000.0001) // =======================================================
 Calling cg2d from S/R CG2D_MAD
 cg2d: Sum(rhs),rhsMax =  -3.16179374348913E-14  1.47075735933530E-06
(PID.TID 0000.0001) // =======================================================
(PID.TID 0000.0001) // Begin AD_MONITOR EXF statistics for iwhen =  3
(PID.TID 0000.0001) // =======================================================
(PID.TID 0000.0001) %MON ad_exf_tsnumber              =                     0
(PID.TID 0000.0001) %MON ad_exf_time_sec              =   0.0000000000000E+00
(PID.TID 0000.0001) %MON ad_exf_adfu_max              =   2.6618948688178E-04
(PID.TID 0000.0001) %MON ad_exf_adfu_min              =  -3.4870179107075E-04
(PID.TID 0000.0001) %MON ad_exf_adfu_mean             =  -9.8485678227488E-10
(PID.TID 0000.0001) %MON ad_exf_adfu_sd               =   5.2299846632316E-06
(PID.TID 0000.0001) %MON ad_exf_adfu_del2             =   3.7141937464110E-07
(PID.TID 0000.0001) %MON ad_exf_adfv_max              =   1.2152309932921E-04
(PID.TID 0000.0001) %MON ad_exf_adfv_min              =  -1.7710277397156E-04
(PID.TID 0000.0001) %MON ad_exf_adfv_mean             =  -1.0863951328926E-08
(PID.TID 0000.0001) %MON ad_exf_adfv_sd               =   2.7144446210152E-06
(PID.TID 0000.0001) %MON ad_exf_adfv_del2             =   1.8396294035979E-07
(PID.TID 0000.0001) %MON ad_exf_adqnet_max            =   2.0184640642439E-06
(PID.TID 0000.0001) %MON ad_exf_adqnet_min            =  -2.8118382739480E-09
(PID.TID 0000.0001) %MON ad_exf_adqnet_mean           =   3.7803939557890E-10
(PID.TID 0000.0001) %MON ad_exf_adqnet_sd             =   2.4301283227166E-08
(PID.TID 0000.0001) %MON ad_exf_adqnet_del2           =   1.4185566820750E-09
(PID.TID 0000.0001) %MON ad_exf_adempmr_max           =   1.4341551574908E-06
(PID.TID 0000.0001) %MON ad_exf_adempmr_min           =  -2.1001673178566E-01
(PID.TID 0000.0001) %MON ad_exf_adempmr_mean          =  -4.0937037112132E-05
(PID.TID 0000.0001) %MON ad_exf_adempmr_sd            =   2.5310007042256E-03
(PID.TID 0000.0001) %MON ad_exf_adempmr_del2          =   1.4725273637065E-04
(PID.TID 0000.0001) %MON ad_exf_adqsw_max             =   8.7791871654869E-11
(PID.TID 0000.0001) %MON ad_exf_adqsw_min             =  -1.5694872508831E-08
(PID.TID 0000.0001) %MON ad_exf_adqsw_mean            =  -2.6741567930422E-12
(PID.TID 0000.0001) %MON ad_exf_adqsw_sd              =   1.8907928367370E-10
(PID.TID 0000.0001) %MON ad_exf_adqsw_del2            =   1.1043034650076E-11
(PID.TID 0000.0001) // =======================================================
(PID.TID 0000.0001) // End AD_MONITOR EXF statistics for iwhen =  3
(PID.TID 0000.0001) // =======================================================
(PID.TID 0000.0001) // =======================================================
(PID.TID 0000.0001) // Begin AD_MONITOR dynamic field statistics
(PID.TID 0000.0001) // =======================================================
(PID.TID 0000.0001) %MON ad_time_tsnumber             =                     0
(PID.TID 0000.0001) %MON ad_time_secondsf             =   0.0000000000000E+00
(PID.TID 0000.0001) %MON ad_dynstat_adeta_max         =   4.2644917232926E-02
(PID.TID 0000.0001) %MON ad_dynstat_adeta_min         =  -2.5260693872765E-03
(PID.TID 0000.0001) %MON ad_dynstat_adeta_mean        =  -1.9511456221339E-07
(PID.TID 0000.0001) %MON ad_dynstat_adeta_sd          =   5.1965449201029E-04
(PID.TID 0000.0001) %MON ad_dynstat_adeta_del2        =   3.1011147604507E-05
(PID.TID 0000.0001) %MON ad_dynstat_aduvel_max        =   2.0264150498152E-02
(PID.TID 0000.0001) %MON ad_dynstat_aduvel_min        =  -2.5944768801112E-02
(PID.TID 0000.0001) %MON ad_dynstat_aduvel_mean       =  -3.8730444505110E-06
(PID.TID 0000.0001) %MON ad_dynstat_aduvel_sd         =   2.9528061324594E-04
(PID.TID 0000.0001) %MON ad_dynstat_aduvel_del2       =   4.1064190843808E-06
(PID.TID 0000.0001) %MON ad_dynstat_advvel_max        =   1.0235604071557E-02
(PID.TID 0000.0001) %MON ad_dynstat_advvel_min        =  -1.3556176436127E-02
(PID.TID 0000.0001) %MON ad_dynstat_advvel_mean       =   8.0787753398131E-06
(PID.TID 0000.0001) %MON ad_dynstat_advvel_sd         =   2.6749600544831E-04
(PID.TID 0000.0001) %MON ad_dynstat_advvel_del2       =   2.6964438357757E-06
(PID.TID 0000.0001) %MON ad_dynstat_adwvel_max        =   1.2890359459423E+00
(PID.TID 0000.0001) %MON ad_dynstat_adwvel_min        =  -1.7477866137161E+01
(PID.TID 0000.0001) %MON ad_dynstat_adwvel_mean       =  -1.7589484149910E-04
(PID.TID 0000.0001) %MON ad_dynstat_adwvel_sd         =   4.2173316608062E-02
(PID.TID 0000.0001) %MON ad_dynstat_adwvel_del2       =   1.3266843358134E-03
(PID.TID 0000.0001) %MON ad_dynstat_adtheta_max       =   9.6842845055554E-04
(PID.TID 0000.0001) %MON ad_dynstat_adtheta_min       =  -5.7450567692550E-01
(PID.TID 0000.0001) %MON ad_dynstat_adtheta_mean      =  -3.7758571958098E-05
(PID.TID 0000.0001) %MON ad_dynstat_adtheta_sd        =   3.4054007047584E-03
(PID.TID 0000.0001) %MON ad_dynstat_adtheta_del2      =   6.8528560665660E-05
(PID.TID 0000.0001) %MON ad_dynstat_adsalt_max        =   7.8670192427144E-03
(PID.TID 0000.0001) %MON ad_dynstat_adsalt_min        =  -4.0318100218714E-01
(PID.TID 0000.0001) %MON ad_dynstat_adsalt_mean       =  -2.6946720586693E-05
(PID.TID 0000.0001) %MON ad_dynstat_adsalt_sd         =   2.3407208173335E-03
(PID.TID 0000.0001) %MON ad_dynstat_adsalt_del2       =   4.7880538864268E-05
(PID.TID 0000.0001) // =======================================================
(PID.TID 0000.0001) // End AD_MONITOR dynamic field statistics
(PID.TID 0000.0001) // =======================================================
(PID.TID 0000.0001) // =======================================================
(PID.TID 0000.0001) // Begin AD_MONITOR ptracer field statistics
(PID.TID 0000.0001) // =======================================================
(PID.TID 0000.0001) %MON ad_trcstat_adptracer01_max   =   7.4858951312113E-04
(PID.TID 0000.0001) %MON ad_trcstat_adptracer01_min   =  -1.1286325788413E+02
(PID.TID 0000.0001) %MON ad_trcstat_adptracer01_mean  =  -7.2496785148860E-03
(PID.TID 0000.0001) %MON ad_trcstat_adptracer01_sd    =   6.5435632294177E-01
(PID.TID 0000.0001) %MON ad_trcstat_adptracer01_del2  =   1.2544248648846E-02
(PID.TID 0000.0001) %MON ad_trcstat_adptracer02_max   =   1.1063938559302E+02
(PID.TID 0000.0001) %MON ad_trcstat_adptracer02_min   =  -7.3383942022631E-04
(PID.TID 0000.0001) %MON ad_trcstat_adptracer02_mean  =   7.0896673686082E-03
(PID.TID 0000.0001) %MON ad_trcstat_adptracer02_sd    =   6.4042778348142E-01
(PID.TID 0000.0001) %MON ad_trcstat_adptracer02_del2  =   1.2229410865224E-02
(PID.TID 0000.0001) %MON ad_trcstat_adptracer03_max   =   4.2162810995481E-09
(PID.TID 0000.0001) %MON ad_trcstat_adptracer03_min   =  -1.5949582737442E-06
(PID.TID 0000.0001) %MON ad_trcstat_adptracer03_mean  =  -3.5762159483077E-11
(PID.TID 0000.0001) %MON ad_trcstat_adptracer03_sd    =   4.3047329888792E-09
(PID.TID 0000.0001) %MON ad_trcstat_adptracer03_del2  =   1.3182298506430E-10
(PID.TID 0000.0001) %MON ad_trcstat_adptracer04_max   =   0.0000000000000E+00
(PID.TID 0000.0001) %MON ad_trcstat_adptracer04_min   =   0.0000000000000E+00
(PID.TID 0000.0001) %MON ad_trcstat_adptracer04_mean  =   0.0000000000000E+00
(PID.TID 0000.0001) %MON ad_trcstat_adptracer04_sd    =   0.0000000000000E+00
(PID.TID 0000.0001) %MON ad_trcstat_adptracer04_del2  =   0.0000000000000E+00
(PID.TID 0000.0001) %MON ad_trcstat_adptracer05_max   =   7.4262935805022E-04
(PID.TID 0000.0001) %MON ad_trcstat_adptracer05_min   =  -1.1196464446658E+02
(PID.TID 0000.0001) %MON ad_trcstat_adptracer05_mean  =  -7.2026852956465E-03
(PID.TID 0000.0001) %MON ad_trcstat_adptracer05_sd    =   6.5009062623686E-01
(PID.TID 0000.0001) %MON ad_trcstat_adptracer05_del2  =   1.2483479421505E-02
(PID.TID 0000.0001) %MON ad_trcstat_adptracer06_max   =   5.4748057847573E+03
(PID.TID 0000.0001) %MON ad_trcstat_adptracer06_min   =  -1.1650764273125E-02
(PID.TID 0000.0001) %MON ad_trcstat_adptracer06_mean  =   1.5673720188004E-02
(PID.TID 0000.0001) %MON ad_trcstat_adptracer06_sd    =   7.5903564425850E+00
(PID.TID 0000.0001) %MON ad_trcstat_adptracer06_del2  =   3.0973258986300E-01
(PID.TID 0000.0001) %MON ad_trcstat_adptracer07_max   =   7.3761401308015E-08
(PID.TID 0000.0001) %MON ad_trcstat_adptracer07_min   =  -8.2413274288097E-03
(PID.TID 0000.0001) %MON ad_trcstat_adptracer07_mean  =  -2.2871699728523E-07
(PID.TID 0000.0001) %MON ad_trcstat_adptracer07_sd    =   3.0554230046310E-05
(PID.TID 0000.0001) %MON ad_trcstat_adptracer07_del2  =   8.8147060531702E-07
(PID.TID 0000.0001) %MON ad_trcstat_adptracer08_max   =   1.9012284896233E-08
(PID.TID 0000.0001) %MON ad_trcstat_adptracer08_min   =  -2.1409867780401E-03
(PID.TID 0000.0001) %MON ad_trcstat_adptracer08_mean  =  -5.9065727128576E-08
(PID.TID 0000.0001) %MON ad_trcstat_adptracer08_sd    =   7.8960914754333E-06
(PID.TID 0000.0001) %MON ad_trcstat_adptracer08_del2  =   2.2808510904259E-07
(PID.TID 0000.0001) // =======================================================
(PID.TID 0000.0001) // End AD_MONITOR ptracer field statistics
(PID.TID 0000.0001) // =======================================================
(PID.TID 0000.0001) // =======================================================
(PID.TID 0000.0001) // Gradient-check starts (grdchk_main)
(PID.TID 0000.0001) // =======================================================
(PID.TID 0000.0001) grdchk reference fc: fcref       =  9.95783718341505E+02
grad-res -------------------------------
 grad-res  proc    #    i    j    k   bi   bj iobc       fc ref            fc + eps           fc - eps
 grad-res  proc    #    i    j    k   bi   bj iobc      adj grad            fd grad          1 - fd/adj
 grad-res exact position met: 
 grad-res     0  257   34   10    1    2    1
(PID.TID 0000.0001) ====== Starts gradient-check number   1 (=ichknum) =======
 ph-test icomp, ncvarcomp, ichknum          257       55673           1
 ph-grd _loc: bi, bj, icomptest, ichknum            2           1           0           1
 ph-grd -->hit<--           34          10           1           1
(PID.TID 0000.0001) grdchk pos: i,j,k=   34   10    1 ; bi,bj=   2   1 ; iobc=  1 ; rec=   1
(PID.TID 0000.0001) Start initial hydrostatic pressure computation
(PID.TID 0000.0001) Pressure is predetermined for buoyancyRelation OCEANIC
(PID.TID 0000.0001) 
(PID.TID 0000.0001) // =======================================================
(PID.TID 0000.0001) // Model current state
(PID.TID 0000.0001) // =======================================================
(PID.TID 0000.0001) 
(PID.TID 0000.0001) SOLVE_FOR_PRESSURE: putPmEinXvector =    F
 cg2d: Sum(rhs),rhsMax =  -8.88178419700125E-16  1.12611745267849E+00
 cg2d: Sum(rhs),rhsMax =  -5.50670620214078E-14  2.39596792572070E+00
 cg2d: Sum(rhs),rhsMax =  -1.36779476633819E-13  3.40223488218936E+00
 cg2d: Sum(rhs),rhsMax =  -1.03139718987677E-13  4.12548679737729E+00
(PID.TID 0000.0001) Did not write pickup because writePickupAtEnd = FALSE
(PID.TID 0000.0001) 
(PID.TID 0000.0001) == profiles_cost: begin ==
(PID.TID 0000.0001)  profiles_cost( 1, 1) =  0.157617558591043D+05 0.240000000000000D+02
(PID.TID 0000.0001)  profiles_cost( 1, 2) =  0.173246554803070D+06 0.190000000000000D+02
(PID.TID 0000.0001)  profiles_cost( 1,14) =  0.995783587810864D+03 0.240000000000000D+02
(PID.TID 0000.0001) == profiles_cost: end   ==
(PID.TID 0000.0001) 
(PID.TID 0000.0001)  --> f_profiles = 0.157617558591043D+05 1 1
(PID.TID 0000.0001)  --> f_profiles = 0.173246554803070D+06 1 2
(PID.TID 0000.0001)  --> f_profiles = 0.995783587810864D+03 114
(PID.TID 0000.0001)  --> f_gencost = 0.130557044252138D-02 1
(PID.TID 0000.0001)  --> f_genarr3d = 0.000000000000000D+00 1
(PID.TID 0000.0001)  --> f_genarr3d = 0.000000000000000D+00 2
(PID.TID 0000.0001)  --> f_genarr3d = 0.000000000000000D+00 3
(PID.TID 0000.0001)  --> f_genarr3d = 0.999999949475751D-10 4
(PID.TID 0000.0001)  --> f_genarr3d = 0.000000000000000D+00 5
(PID.TID 0000.0001)  --> f_genarr3d = 0.000000000000000D+00 6
(PID.TID 0000.0001)  --> f_genarr3d = 0.000000000000000D+00 7
(PID.TID 0000.0001)  --> f_genarr3d = 0.000000000000000D+00 8
(PID.TID 0000.0001)  --> fc               = 0.995783718368008D+03
(PID.TID 0000.0001) Not writing cost function info to costfunction0000
(PID.TID 0000.0001)   early fc =  0.000000000000000D+00
(PID.TID 0000.0001)   local fc =  0.995783718368008D+03
(PID.TID 0000.0001)  global fc =  0.995783718368008D+03
(PID.TID 0000.0001) grdchk perturb(+)fc: fcpertplus  =  9.95783718368008E+02
(PID.TID 0000.0001) Start initial hydrostatic pressure computation
(PID.TID 0000.0001) Pressure is predetermined for buoyancyRelation OCEANIC
(PID.TID 0000.0001) 
(PID.TID 0000.0001) // =======================================================
(PID.TID 0000.0001) // Model current state
(PID.TID 0000.0001) // =======================================================
(PID.TID 0000.0001) 
(PID.TID 0000.0001) SOLVE_FOR_PRESSURE: putPmEinXvector =    F
 cg2d: Sum(rhs),rhsMax =  -8.88178419700125E-16  1.12611745267849E+00
 cg2d: Sum(rhs),rhsMax =  -5.50670620214078E-14  2.39596792572070E+00
 cg2d: Sum(rhs),rhsMax =  -1.36779476633819E-13  3.40223488218936E+00
 cg2d: Sum(rhs),rhsMax =  -1.03139718987677E-13  4.12548679737729E+00
(PID.TID 0000.0001) Did not write pickup because writePickupAtEnd = FALSE
(PID.TID 0000.0001) 
(PID.TID 0000.0001) == profiles_cost: begin ==
(PID.TID 0000.0001)  profiles_cost( 1, 1) =  0.157617558591043D+05 0.240000000000000D+02
(PID.TID 0000.0001)  profiles_cost( 1, 2) =  0.173246554803070D+06 0.190000000000000D+02
(PID.TID 0000.0001)  profiles_cost( 1,14) =  0.995783587758057D+03 0.240000000000000D+02
(PID.TID 0000.0001) == profiles_cost: end   ==
(PID.TID 0000.0001) 
(PID.TID 0000.0001)  --> f_profiles = 0.157617558591043D+05 1 1
(PID.TID 0000.0001)  --> f_profiles = 0.173246554803070D+06 1 2
(PID.TID 0000.0001)  --> f_profiles = 0.995783587758057D+03 114
(PID.TID 0000.0001)  --> f_gencost = 0.130557044252138D-02 1
(PID.TID 0000.0001)  --> f_genarr3d = 0.000000000000000D+00 1
(PID.TID 0000.0001)  --> f_genarr3d = 0.000000000000000D+00 2
(PID.TID 0000.0001)  --> f_genarr3d = 0.000000000000000D+00 3
(PID.TID 0000.0001)  --> f_genarr3d = 0.999999949475751D-10 4
(PID.TID 0000.0001)  --> f_genarr3d = 0.000000000000000D+00 5
(PID.TID 0000.0001)  --> f_genarr3d = 0.000000000000000D+00 6
(PID.TID 0000.0001)  --> f_genarr3d = 0.000000000000000D+00 7
(PID.TID 0000.0001)  --> f_genarr3d = 0.000000000000000D+00 8
(PID.TID 0000.0001)  --> fc               = 0.995783718315201D+03
(PID.TID 0000.0001) Not writing cost function info to costfunction0000
(PID.TID 0000.0001)   early fc =  0.000000000000000D+00
(PID.TID 0000.0001)   local fc =  0.995783718315201D+03
(PID.TID 0000.0001)  global fc =  0.995783718315201D+03
(PID.TID 0000.0001) grdchk perturb(-)fc: fcpertminus =  9.95783718315201E+02
grad-res -------------------------------
 grad-res     0    1   34   10    1    2    1    1   9.95783718342E+02  9.95783718368E+02  9.95783718315E+02
 grad-res     0    1    1  257    0    2    1    1   2.64034210704E-03  2.64034270003E-03 -2.24588527331E-07
(PID.TID 0000.0001)  ADM  ref_cost_function      =  9.95783718341505E+02
(PID.TID 0000.0001)  ADM  adjoint_gradient       =  2.64034210704267E-03
(PID.TID 0000.0001)  ADM  finite-diff_grad       =  2.64034270003322E-03
(PID.TID 0000.0001) ====== End of gradient-check number   1 (ierr=  0) =======
(PID.TID 0000.0001) ====== Starts gradient-check number   2 (=ichknum) =======
 ph-test icomp, ncvarcomp, ichknum          258       55673           2
 ph-grd _loc: bi, bj, icomptest, ichknum            2           1         257           2
 ph-grd -->hit<--           35          10           1           1
(PID.TID 0000.0001) grdchk pos: i,j,k=   35   10    1 ; bi,bj=   2   1 ; iobc=  1 ; rec=   1
(PID.TID 0000.0001) Start initial hydrostatic pressure computation
(PID.TID 0000.0001) Pressure is predetermined for buoyancyRelation OCEANIC
(PID.TID 0000.0001) 
(PID.TID 0000.0001) // =======================================================
(PID.TID 0000.0001) // Model current state
(PID.TID 0000.0001) // =======================================================
(PID.TID 0000.0001) 
(PID.TID 0000.0001) SOLVE_FOR_PRESSURE: putPmEinXvector =    F
 cg2d: Sum(rhs),rhsMax =  -8.88178419700125E-16  1.12611745267849E+00
 cg2d: Sum(rhs),rhsMax =  -5.50670620214078E-14  2.39596792572070E+00
 cg2d: Sum(rhs),rhsMax =  -1.36779476633819E-13  3.40223488218936E+00
 cg2d: Sum(rhs),rhsMax =  -1.03139718987677E-13  4.12548679737729E+00
(PID.TID 0000.0001) Did not write pickup because writePickupAtEnd = FALSE
(PID.TID 0000.0001) 
(PID.TID 0000.0001) == profiles_cost: begin ==
(PID.TID 0000.0001)  profiles_cost( 1, 1) =  0.157617558591043D+05 0.240000000000000D+02
(PID.TID 0000.0001)  profiles_cost( 1, 2) =  0.173246554803070D+06 0.190000000000000D+02
(PID.TID 0000.0001)  profiles_cost( 1,14) =  0.995783794190288D+03 0.240000000000000D+02
(PID.TID 0000.0001) == profiles_cost: end   ==
(PID.TID 0000.0001) 
(PID.TID 0000.0001)  --> f_profiles = 0.157617558591043D+05 1 1
(PID.TID 0000.0001)  --> f_profiles = 0.173246554803070D+06 1 2
(PID.TID 0000.0001)  --> f_profiles = 0.995783794190288D+03 114
(PID.TID 0000.0001)  --> f_gencost = 0.130557044252138D-02 1
(PID.TID 0000.0001)  --> f_genarr3d = 0.000000000000000D+00 1
(PID.TID 0000.0001)  --> f_genarr3d = 0.000000000000000D+00 2
(PID.TID 0000.0001)  --> f_genarr3d = 0.000000000000000D+00 3
(PID.TID 0000.0001)  --> f_genarr3d = 0.999999949475751D-10 4
(PID.TID 0000.0001)  --> f_genarr3d = 0.000000000000000D+00 5
(PID.TID 0000.0001)  --> f_genarr3d = 0.000000000000000D+00 6
(PID.TID 0000.0001)  --> f_genarr3d = 0.000000000000000D+00 7
(PID.TID 0000.0001)  --> f_genarr3d = 0.000000000000000D+00 8
(PID.TID 0000.0001)  --> fc               = 0.995783924747432D+03
(PID.TID 0000.0001) Not writing cost function info to costfunction0000
(PID.TID 0000.0001)   early fc =  0.000000000000000D+00
(PID.TID 0000.0001)   local fc =  0.995783924747432D+03
(PID.TID 0000.0001)  global fc =  0.995783924747432D+03
(PID.TID 0000.0001) grdchk perturb(+)fc: fcpertplus  =  9.95783924747432E+02
(PID.TID 0000.0001) Start initial hydrostatic pressure computation
(PID.TID 0000.0001) Pressure is predetermined for buoyancyRelation OCEANIC
(PID.TID 0000.0001) 
(PID.TID 0000.0001) // =======================================================
(PID.TID 0000.0001) // Model current state
(PID.TID 0000.0001) // =======================================================
(PID.TID 0000.0001) 
(PID.TID 0000.0001) SOLVE_FOR_PRESSURE: putPmEinXvector =    F
 cg2d: Sum(rhs),rhsMax =  -8.88178419700125E-16  1.12611745267849E+00
 cg2d: Sum(rhs),rhsMax =  -5.50670620214078E-14  2.39596792572070E+00
 cg2d: Sum(rhs),rhsMax =  -1.36779476633819E-13  3.40223488218936E+00
 cg2d: Sum(rhs),rhsMax =  -1.03139718987677E-13  4.12548679737729E+00
(PID.TID 0000.0001) Did not write pickup because writePickupAtEnd = FALSE
(PID.TID 0000.0001) 
(PID.TID 0000.0001) == profiles_cost: begin ==
(PID.TID 0000.0001)  profiles_cost( 1, 1) =  0.157617558591043D+05 0.240000000000000D+02
(PID.TID 0000.0001)  profiles_cost( 1, 2) =  0.173246554803070D+06 0.190000000000000D+02
(PID.TID 0000.0001)  profiles_cost( 1,14) =  0.995783381371289D+03 0.240000000000000D+02
(PID.TID 0000.0001) == profiles_cost: end   ==
(PID.TID 0000.0001) 
(PID.TID 0000.0001)  --> f_profiles = 0.157617558591043D+05 1 1
(PID.TID 0000.0001)  --> f_profiles = 0.173246554803070D+06 1 2
(PID.TID 0000.0001)  --> f_profiles = 0.995783381371289D+03 114
(PID.TID 0000.0001)  --> f_gencost = 0.130557044252138D-02 1
(PID.TID 0000.0001)  --> f_genarr3d = 0.000000000000000D+00 1
(PID.TID 0000.0001)  --> f_genarr3d = 0.000000000000000D+00 2
(PID.TID 0000.0001)  --> f_genarr3d = 0.000000000000000D+00 3
(PID.TID 0000.0001)  --> f_genarr3d = 0.999999949475751D-10 4
(PID.TID 0000.0001)  --> f_genarr3d = 0.000000000000000D+00 5
(PID.TID 0000.0001)  --> f_genarr3d = 0.000000000000000D+00 6
(PID.TID 0000.0001)  --> f_genarr3d = 0.000000000000000D+00 7
(PID.TID 0000.0001)  --> f_genarr3d = 0.000000000000000D+00 8
(PID.TID 0000.0001)  --> fc               = 0.995783511928433D+03
(PID.TID 0000.0001) Not writing cost function info to costfunction0000
(PID.TID 0000.0001)   early fc =  0.000000000000000D+00
(PID.TID 0000.0001)   local fc =  0.995783511928433D+03
(PID.TID 0000.0001)  global fc =  0.995783511928433D+03
(PID.TID 0000.0001) grdchk perturb(-)fc: fcpertminus =  9.95783511928433E+02
grad-res -------------------------------
 grad-res     0    2   35   10    1    2    1    1   9.95783718342E+02  9.95783924747E+02  9.95783511928E+02
 grad-res     0    2    2  258    0    2    1    1   2.06409530640E+01  2.06409499413E+01  1.51287193439E-07
(PID.TID 0000.0001)  ADM  ref_cost_function      =  9.95783718341505E+02
(PID.TID 0000.0001)  ADM  adjoint_gradient       =  2.06409530639648E+01
(PID.TID 0000.0001)  ADM  finite-diff_grad       =  2.06409499412530E+01
(PID.TID 0000.0001) ====== End of gradient-check number   2 (ierr=  0) =======
(PID.TID 0000.0001) ====== Starts gradient-check number   3 (=ichknum) =======
 ph-test icomp, ncvarcomp, ichknum          259       55673           3
 ph-grd _loc: bi, bj, icomptest, ichknum            2           1         258           3
 ph-grd -->hit<--           36          10           1           1
(PID.TID 0000.0001) grdchk pos: i,j,k=   36   10    1 ; bi,bj=   2   1 ; iobc=  1 ; rec=   1
(PID.TID 0000.0001) Start initial hydrostatic pressure computation
(PID.TID 0000.0001) Pressure is predetermined for buoyancyRelation OCEANIC
(PID.TID 0000.0001) 
(PID.TID 0000.0001) // =======================================================
(PID.TID 0000.0001) // Model current state
(PID.TID 0000.0001) // =======================================================
(PID.TID 0000.0001) 
(PID.TID 0000.0001) SOLVE_FOR_PRESSURE: putPmEinXvector =    F
 cg2d: Sum(rhs),rhsMax =  -8.88178419700125E-16  1.12611745267849E+00
 cg2d: Sum(rhs),rhsMax =  -5.50670620214078E-14  2.39596792572070E+00
 cg2d: Sum(rhs),rhsMax =  -1.36779476633819E-13  3.40223488218936E+00
 cg2d: Sum(rhs),rhsMax =  -1.03139718987677E-13  4.12548679737729E+00
(PID.TID 0000.0001) Did not write pickup because writePickupAtEnd = FALSE
(PID.TID 0000.0001) 
(PID.TID 0000.0001) == profiles_cost: begin ==
(PID.TID 0000.0001)  profiles_cost( 1, 1) =  0.157617558591043D+05 0.240000000000000D+02
(PID.TID 0000.0001)  profiles_cost( 1, 2) =  0.173246554803070D+06 0.190000000000000D+02
(PID.TID 0000.0001)  profiles_cost( 1,14) =  0.995784384259652D+03 0.240000000000000D+02
(PID.TID 0000.0001) == profiles_cost: end   ==
(PID.TID 0000.0001) 
(PID.TID 0000.0001)  --> f_profiles = 0.157617558591043D+05 1 1
(PID.TID 0000.0001)  --> f_profiles = 0.173246554803070D+06 1 2
(PID.TID 0000.0001)  --> f_profiles = 0.995784384259652D+03 114
(PID.TID 0000.0001)  --> f_gencost = 0.130557044252138D-02 1
(PID.TID 0000.0001)  --> f_genarr3d = 0.000000000000000D+00 1
(PID.TID 0000.0001)  --> f_genarr3d = 0.000000000000000D+00 2
(PID.TID 0000.0001)  --> f_genarr3d = 0.000000000000000D+00 3
(PID.TID 0000.0001)  --> f_genarr3d = 0.999999949475751D-10 4
(PID.TID 0000.0001)  --> f_genarr3d = 0.000000000000000D+00 5
(PID.TID 0000.0001)  --> f_genarr3d = 0.000000000000000D+00 6
(PID.TID 0000.0001)  --> f_genarr3d = 0.000000000000000D+00 7
(PID.TID 0000.0001)  --> f_genarr3d = 0.000000000000000D+00 8
(PID.TID 0000.0001)  --> fc               = 0.995784514816796D+03
(PID.TID 0000.0001) Not writing cost function info to costfunction0000
(PID.TID 0000.0001)   early fc =  0.000000000000000D+00
(PID.TID 0000.0001)   local fc =  0.995784514816796D+03
(PID.TID 0000.0001)  global fc =  0.995784514816796D+03
(PID.TID 0000.0001) grdchk perturb(+)fc: fcpertplus  =  9.95784514816796E+02
(PID.TID 0000.0001) Start initial hydrostatic pressure computation
(PID.TID 0000.0001) Pressure is predetermined for buoyancyRelation OCEANIC
(PID.TID 0000.0001) 
(PID.TID 0000.0001) // =======================================================
(PID.TID 0000.0001) // Model current state
(PID.TID 0000.0001) // =======================================================
(PID.TID 0000.0001) 
(PID.TID 0000.0001) SOLVE_FOR_PRESSURE: putPmEinXvector =    F
 cg2d: Sum(rhs),rhsMax =  -8.88178419700125E-16  1.12611745267849E+00
 cg2d: Sum(rhs),rhsMax =  -5.50670620214078E-14  2.39596792572070E+00
 cg2d: Sum(rhs),rhsMax =  -1.36779476633819E-13  3.40223488218936E+00
 cg2d: Sum(rhs),rhsMax =  -1.03139718987677E-13  4.12548679737729E+00
(PID.TID 0000.0001) Did not write pickup because writePickupAtEnd = FALSE
(PID.TID 0000.0001) 
(PID.TID 0000.0001) == profiles_cost: begin ==
(PID.TID 0000.0001)  profiles_cost( 1, 1) =  0.157617558591043D+05 0.240000000000000D+02
(PID.TID 0000.0001)  profiles_cost( 1, 2) =  0.173246554803070D+06 0.190000000000000D+02
(PID.TID 0000.0001)  profiles_cost( 1,14) =  0.995782791282217D+03 0.240000000000000D+02
(PID.TID 0000.0001) == profiles_cost: end   ==
(PID.TID 0000.0001) 
(PID.TID 0000.0001)  --> f_profiles = 0.157617558591043D+05 1 1
(PID.TID 0000.0001)  --> f_profiles = 0.173246554803070D+06 1 2
(PID.TID 0000.0001)  --> f_profiles = 0.995782791282217D+03 114
(PID.TID 0000.0001)  --> f_gencost = 0.130557044252138D-02 1
(PID.TID 0000.0001)  --> f_genarr3d = 0.000000000000000D+00 1
(PID.TID 0000.0001)  --> f_genarr3d = 0.000000000000000D+00 2
(PID.TID 0000.0001)  --> f_genarr3d = 0.000000000000000D+00 3
(PID.TID 0000.0001)  --> f_genarr3d = 0.999999949475751D-10 4
(PID.TID 0000.0001)  --> f_genarr3d = 0.000000000000000D+00 5
(PID.TID 0000.0001)  --> f_genarr3d = 0.000000000000000D+00 6
(PID.TID 0000.0001)  --> f_genarr3d = 0.000000000000000D+00 7
(PID.TID 0000.0001)  --> f_genarr3d = 0.000000000000000D+00 8
(PID.TID 0000.0001)  --> fc               = 0.995782921839362D+03
(PID.TID 0000.0001) Not writing cost function info to costfunction0000
(PID.TID 0000.0001)   early fc =  0.000000000000000D+00
(PID.TID 0000.0001)   local fc =  0.995782921839362D+03
(PID.TID 0000.0001)  global fc =  0.995782921839362D+03
(PID.TID 0000.0001) grdchk perturb(-)fc: fcpertminus =  9.95782921839362E+02
grad-res -------------------------------
 grad-res     0    3   36   10    1    2    1    1   9.95783718342E+02  9.95784514817E+02  9.95782921839E+02
 grad-res     0    3    3  259    0    2    1    1   7.96488952637E+01  7.96488717242E+01  2.95540434458E-07
(PID.TID 0000.0001)  ADM  ref_cost_function      =  9.95783718341505E+02
(PID.TID 0000.0001)  ADM  adjoint_gradient       =  7.96488952636719E+01
(PID.TID 0000.0001)  ADM  finite-diff_grad       =  7.96488717242028E+01
(PID.TID 0000.0001) ====== End of gradient-check number   3 (ierr=  0) =======
(PID.TID 0000.0001) ====== Starts gradient-check number   4 (=ichknum) =======
 ph-test icomp, ncvarcomp, ichknum          260       55673           4
 ph-grd _loc: bi, bj, icomptest, ichknum            2           1         259           4
 ph-grd -->hit<--           37          10           1           1
(PID.TID 0000.0001) grdchk pos: i,j,k=   37   10    1 ; bi,bj=   2   1 ; iobc=  1 ; rec=   1
(PID.TID 0000.0001) Start initial hydrostatic pressure computation
(PID.TID 0000.0001) Pressure is predetermined for buoyancyRelation OCEANIC
(PID.TID 0000.0001) 
(PID.TID 0000.0001) // =======================================================
(PID.TID 0000.0001) // Model current state
(PID.TID 0000.0001) // =======================================================
(PID.TID 0000.0001) 
(PID.TID 0000.0001) SOLVE_FOR_PRESSURE: putPmEinXvector =    F
 cg2d: Sum(rhs),rhsMax =  -8.88178419700125E-16  1.12611745267849E+00
 cg2d: Sum(rhs),rhsMax =  -5.50670620214078E-14  2.39596792572070E+00
 cg2d: Sum(rhs),rhsMax =  -1.36779476633819E-13  3.40223488218936E+00
 cg2d: Sum(rhs),rhsMax =  -1.03139718987677E-13  4.12548679737729E+00
(PID.TID 0000.0001) Did not write pickup because writePickupAtEnd = FALSE
(PID.TID 0000.0001) 
(PID.TID 0000.0001) == profiles_cost: begin ==
(PID.TID 0000.0001)  profiles_cost( 1, 1) =  0.157617558591043D+05 0.240000000000000D+02
(PID.TID 0000.0001)  profiles_cost( 1, 2) =  0.173246554803070D+06 0.190000000000000D+02
(PID.TID 0000.0001)  profiles_cost( 1,14) =  0.995783587883828D+03 0.240000000000000D+02
(PID.TID 0000.0001) == profiles_cost: end   ==
(PID.TID 0000.0001) 
(PID.TID 0000.0001)  --> f_profiles = 0.157617558591043D+05 1 1
(PID.TID 0000.0001)  --> f_profiles = 0.173246554803070D+06 1 2
(PID.TID 0000.0001)  --> f_profiles = 0.995783587883828D+03 114
(PID.TID 0000.0001)  --> f_gencost = 0.130557044252138D-02 1
(PID.TID 0000.0001)  --> f_genarr3d = 0.000000000000000D+00 1
(PID.TID 0000.0001)  --> f_genarr3d = 0.000000000000000D+00 2
(PID.TID 0000.0001)  --> f_genarr3d = 0.000000000000000D+00 3
(PID.TID 0000.0001)  --> f_genarr3d = 0.999999949475751D-10 4
(PID.TID 0000.0001)  --> f_genarr3d = 0.000000000000000D+00 5
(PID.TID 0000.0001)  --> f_genarr3d = 0.000000000000000D+00 6
(PID.TID 0000.0001)  --> f_genarr3d = 0.000000000000000D+00 7
(PID.TID 0000.0001)  --> f_genarr3d = 0.000000000000000D+00 8
(PID.TID 0000.0001)  --> fc               = 0.995783718440972D+03
(PID.TID 0000.0001) Not writing cost function info to costfunction0000
(PID.TID 0000.0001)   early fc =  0.000000000000000D+00
(PID.TID 0000.0001)   local fc =  0.995783718440972D+03
(PID.TID 0000.0001)  global fc =  0.995783718440972D+03
(PID.TID 0000.0001) grdchk perturb(+)fc: fcpertplus  =  9.95783718440972E+02
(PID.TID 0000.0001) Start initial hydrostatic pressure computation
(PID.TID 0000.0001) Pressure is predetermined for buoyancyRelation OCEANIC
(PID.TID 0000.0001) 
(PID.TID 0000.0001) // =======================================================
(PID.TID 0000.0001) // Model current state
(PID.TID 0000.0001) // =======================================================
(PID.TID 0000.0001) 
(PID.TID 0000.0001) SOLVE_FOR_PRESSURE: putPmEinXvector =    F
 cg2d: Sum(rhs),rhsMax =  -8.88178419700125E-16  1.12611745267849E+00
 cg2d: Sum(rhs),rhsMax =  -5.50670620214078E-14  2.39596792572070E+00
 cg2d: Sum(rhs),rhsMax =  -1.36779476633819E-13  3.40223488218936E+00
 cg2d: Sum(rhs),rhsMax =  -1.03139718987677E-13  4.12548679737729E+00
(PID.TID 0000.0001) Did not write pickup because writePickupAtEnd = FALSE
(PID.TID 0000.0001) 
(PID.TID 0000.0001) == profiles_cost: begin ==
(PID.TID 0000.0001)  profiles_cost( 1, 1) =  0.157617558591043D+05 0.240000000000000D+02
(PID.TID 0000.0001)  profiles_cost( 1, 2) =  0.173246554803070D+06 0.190000000000000D+02
(PID.TID 0000.0001)  profiles_cost( 1,14) =  0.995783587685093D+03 0.240000000000000D+02
(PID.TID 0000.0001) == profiles_cost: end   ==
(PID.TID 0000.0001) 
(PID.TID 0000.0001)  --> f_profiles = 0.157617558591043D+05 1 1
(PID.TID 0000.0001)  --> f_profiles = 0.173246554803070D+06 1 2
(PID.TID 0000.0001)  --> f_profiles = 0.995783587685093D+03 114
(PID.TID 0000.0001)  --> f_gencost = 0.130557044252138D-02 1
(PID.TID 0000.0001)  --> f_genarr3d = 0.000000000000000D+00 1
(PID.TID 0000.0001)  --> f_genarr3d = 0.000000000000000D+00 2
(PID.TID 0000.0001)  --> f_genarr3d = 0.000000000000000D+00 3
(PID.TID 0000.0001)  --> f_genarr3d = 0.999999949475751D-10 4
(PID.TID 0000.0001)  --> f_genarr3d = 0.000000000000000D+00 5
(PID.TID 0000.0001)  --> f_genarr3d = 0.000000000000000D+00 6
(PID.TID 0000.0001)  --> f_genarr3d = 0.000000000000000D+00 7
(PID.TID 0000.0001)  --> f_genarr3d = 0.000000000000000D+00 8
(PID.TID 0000.0001)  --> fc               = 0.995783718242237D+03
(PID.TID 0000.0001) Not writing cost function info to costfunction0000
(PID.TID 0000.0001)   early fc =  0.000000000000000D+00
(PID.TID 0000.0001)   local fc =  0.995783718242237D+03
(PID.TID 0000.0001)  global fc =  0.995783718242237D+03
(PID.TID 0000.0001) grdchk perturb(-)fc: fcpertminus =  9.95783718242237E+02
grad-res -------------------------------
 grad-res     0    4   37   10    1    2    1    1   9.95783718342E+02  9.95783718441E+02  9.95783718242E+02
 grad-res     0    4    4  260    0    2    1    1   9.93674155325E-03  9.93675257632E-03 -1.10932499608E-06
(PID.TID 0000.0001)  ADM  ref_cost_function      =  9.95783718341505E+02
(PID.TID 0000.0001)  ADM  adjoint_gradient       =  9.93674155324697E-03
(PID.TID 0000.0001)  ADM  finite-diff_grad       =  9.93675257632276E-03
(PID.TID 0000.0001) ====== End of gradient-check number   4 (ierr=  0) =======
(PID.TID 0000.0001) 
(PID.TID 0000.0001) // =======================================================
(PID.TID 0000.0001) // Gradient check results  >>> START <<<
(PID.TID 0000.0001) // =======================================================
(PID.TID 0000.0001) 
(PID.TID 0000.0001)  EPS = 1.000000E-05 ; grdchk CTRL var/file name: "xx_ptr2"
(PID.TID 0000.0001) 
(PID.TID 0000.0001) grdchk output h.p:  Id Itile Jtile LAYER   bi   bj   X(Id)           X(Id)+/-EPS
(PID.TID 0000.0001) grdchk output h.c:  Id  FC                   FC1                  FC2
(PID.TID 0000.0001) grdchk output h.g:  Id     FC1-FC2/(2*EPS)      ADJ GRAD(FC)         1-FDGRD/ADGRD
(PID.TID 0000.0001) 
(PID.TID 0000.0001) grdchk output (p):   1    34    10     1    2    1   0.000000000E+00 -1.000000000E-05
(PID.TID 0000.0001) grdchk output (c):   1  9.9578371834150E+02  9.9578371836801E+02  9.9578371831520E+02
(PID.TID 0000.0001) grdchk output (g):   1     2.6403427000332E-03  2.6403421070427E-03 -2.2458852733109E-07
(PID.TID 0000.0001) 
(PID.TID 0000.0001) grdchk output (p):   2    35    10     1    2    1   0.000000000E+00 -1.000000000E-05
(PID.TID 0000.0001) grdchk output (c):   2  9.9578371834150E+02  9.9578392474743E+02  9.9578351192843E+02
(PID.TID 0000.0001) grdchk output (g):   2     2.0640949941253E+01  2.0640953063965E+01  1.5128719343949E-07
(PID.TID 0000.0001) 
(PID.TID 0000.0001) grdchk output (p):   3    36    10     1    2    1   0.000000000E+00 -1.000000000E-05
(PID.TID 0000.0001) grdchk output (c):   3  9.9578371834150E+02  9.9578451481680E+02  9.9578292183936E+02
(PID.TID 0000.0001) grdchk output (g):   3     7.9648871724203E+01  7.9648895263672E+01  2.9554043445845E-07
(PID.TID 0000.0001) 
(PID.TID 0000.0001) grdchk output (p):   4    37    10     1    2    1   0.000000000E+00 -1.000000000E-05
(PID.TID 0000.0001) grdchk output (c):   4  9.9578371834150E+02  9.9578371844097E+02  9.9578371824224E+02
(PID.TID 0000.0001) grdchk output (g):   4     9.9367525763228E-03  9.9367415532470E-03 -1.1093249960847E-06
(PID.TID 0000.0001) 
(PID.TID 0000.0001) grdchk  summary  :  RMS of    4 ratios =  5.8976137480464E-07
(PID.TID 0000.0001) 
(PID.TID 0000.0001) // =======================================================
(PID.TID 0000.0001) // Gradient check results  >>> END <<<
(PID.TID 0000.0001) // =======================================================
(PID.TID 0000.0001) 
(PID.TID 0000.0001) S/R PROFILES_NC_CLOSE: Closing sample_prof        1    65536        0        0        0
(PID.TID 0000.0001) S/R PROFILES_NC_CLOSE: Closing sample_prof        1   131072   196608   262144        0
(PID.TID 0000.0001) S/R PROFILES_NC_CLOSE: Closing sample_prof        1   327680        0        0        0
(PID.TID 0000.0001) S/R PROFILES_NC_CLOSE: Closing sample_prof        1   393216        0        0        0
(PID.TID 0000.0001)   Seconds in section "ALL                    [THE_MODEL_MAIN]":
(PID.TID 0000.0001)           User time:   60.543991706101224
(PID.TID 0000.0001)         System time:  0.81354098767042160
(PID.TID 0000.0001)     Wall clock time:   66.838634014129639
(PID.TID 0000.0001)          No. starts:           1
(PID.TID 0000.0001)           No. stops:           1
(PID.TID 0000.0001)   Seconds in section "INITIALISE_FIXED       [THE_MODEL_MAIN]":
(PID.TID 0000.0001)           User time:  0.14514900231733918
(PID.TID 0000.0001)         System time:   6.3679003156721592E-002
(PID.TID 0000.0001)     Wall clock time:   1.6221218109130859
(PID.TID 0000.0001)          No. starts:           1
(PID.TID 0000.0001)           No. stops:           1
(PID.TID 0000.0001)   Seconds in section "ADTHE_MAIN_LOOP          [ADJOINT RUN]":
(PID.TID 0000.0001)           User time:   23.434464797377586
(PID.TID 0000.0001)         System time:  0.53607302904129028
(PID.TID 0000.0001)     Wall clock time:   27.690704107284546
(PID.TID 0000.0001)          No. starts:           1
(PID.TID 0000.0001)           No. stops:           1
(PID.TID 0000.0001)   Seconds in section "FORWARD_STEP        [MAIN_DO_LOOP]":
(PID.TID 0000.0001)           User time:   35.409511446952820
(PID.TID 0000.0001)         System time:  0.10229690372943878
(PID.TID 0000.0001)     Wall clock time:   38.353052377700806
(PID.TID 0000.0001)          No. starts:          40
(PID.TID 0000.0001)           No. stops:          40
(PID.TID 0000.0001)   Seconds in section "DO_STATEVARS_DIAGS  [FORWARD_STEP]":
(PID.TID 0000.0001)           User time:   1.1872470378875732E-002
(PID.TID 0000.0001)         System time:   3.5986304283142090E-005
(PID.TID 0000.0001)     Wall clock time:   1.1972665786743164E-002
(PID.TID 0000.0001)          No. starts:           8
(PID.TID 0000.0001)           No. stops:           8
(PID.TID 0000.0001)   Seconds in section "LOAD_FIELDS_DRIVER  [FORWARD_STEP]":
(PID.TID 0000.0001)           User time:  0.18568903207778931
(PID.TID 0000.0001)         System time:   1.2865915894508362E-002
(PID.TID 0000.0001)     Wall clock time:  0.19971227645874023
(PID.TID 0000.0001)          No. starts:          40
(PID.TID 0000.0001)           No. stops:          40
(PID.TID 0000.0001)   Seconds in section "EXF_GETFORCING     [LOAD_FLDS_DRIVER]":
(PID.TID 0000.0001)           User time:  0.16016680002212524
(PID.TID 0000.0001)         System time:   3.7997961044311523E-005
(PID.TID 0000.0001)     Wall clock time:  0.16109085083007812
(PID.TID 0000.0001)          No. starts:          40
(PID.TID 0000.0001)           No. stops:          40
(PID.TID 0000.0001)   Seconds in section "EXTERNAL_FLDS_LOAD [LOAD_FLDS_DRIVER]":
(PID.TID 0000.0001)           User time:   3.4248828887939453E-004
(PID.TID 0000.0001)         System time:   0.0000000000000000
(PID.TID 0000.0001)     Wall clock time:   3.3235549926757812E-004
(PID.TID 0000.0001)          No. starts:          40
(PID.TID 0000.0001)           No. stops:          40
(PID.TID 0000.0001)   Seconds in section "CTRL_MAP_FORCING  [FORWARD_STEP]":
(PID.TID 0000.0001)           User time:   4.9438774585723877E-002
(PID.TID 0000.0001)         System time:   1.4607608318328857E-004
(PID.TID 0000.0001)     Wall clock time:   4.9870491027832031E-002
(PID.TID 0000.0001)          No. starts:          40
(PID.TID 0000.0001)           No. stops:          40
(PID.TID 0000.0001)   Seconds in section "DO_ATMOSPHERIC_PHYS [FORWARD_STEP]":
(PID.TID 0000.0001)           User time:   1.1713624000549316E-002
(PID.TID 0000.0001)         System time:   2.7000904083251953E-005
(PID.TID 0000.0001)     Wall clock time:   1.2074947357177734E-002
(PID.TID 0000.0001)          No. starts:          40
(PID.TID 0000.0001)           No. stops:          40
(PID.TID 0000.0001)   Seconds in section "DO_OCEANIC_PHYS     [FORWARD_STEP]":
(PID.TID 0000.0001)           User time:   1.5969936251640320
(PID.TID 0000.0001)         System time:   2.9900074005126953E-003
(PID.TID 0000.0001)     Wall clock time:   1.6093487739562988
(PID.TID 0000.0001)          No. starts:          40
(PID.TID 0000.0001)           No. stops:          40
(PID.TID 0000.0001)   Seconds in section "THERMODYNAMICS      [FORWARD_STEP]":
(PID.TID 0000.0001)           User time:   18.775266766548157
(PID.TID 0000.0001)         System time:   9.6249729394912720E-003
(PID.TID 0000.0001)     Wall clock time:   18.891743421554565
(PID.TID 0000.0001)          No. starts:          40
(PID.TID 0000.0001)           No. stops:          40
(PID.TID 0000.0001)   Seconds in section "DYNAMICS            [FORWARD_STEP]":
(PID.TID 0000.0001)           User time:   4.1640293598175049
(PID.TID 0000.0001)         System time:   1.0694563388824463E-004
(PID.TID 0000.0001)     Wall clock time:   4.1883375644683838
(PID.TID 0000.0001)          No. starts:          40
(PID.TID 0000.0001)           No. stops:          40
(PID.TID 0000.0001)   Seconds in section "SOLVE_FOR_PRESSURE  [FORWARD_STEP]":
(PID.TID 0000.0001)           User time:  0.52709460258483887
(PID.TID 0000.0001)         System time:   8.2001090049743652E-005
(PID.TID 0000.0001)     Wall clock time:  0.53003454208374023
(PID.TID 0000.0001)          No. starts:          40
(PID.TID 0000.0001)           No. stops:          40
(PID.TID 0000.0001)   Seconds in section "MOM_CORRECTION_STEP [FORWARD_STEP]":
(PID.TID 0000.0001)           User time:  0.11534583568572998
(PID.TID 0000.0001)         System time:   1.5035271644592285E-005
(PID.TID 0000.0001)     Wall clock time:  0.11600112915039062
(PID.TID 0000.0001)          No. starts:          40
(PID.TID 0000.0001)           No. stops:          40
(PID.TID 0000.0001)   Seconds in section "INTEGR_CONTINUITY   [FORWARD_STEP]":
(PID.TID 0000.0001)           User time:  0.11688530445098877
(PID.TID 0000.0001)         System time:   3.9935111999511719E-006
(PID.TID 0000.0001)     Wall clock time:  0.11771631240844727
(PID.TID 0000.0001)          No. starts:          40
(PID.TID 0000.0001)           No. stops:          40
(PID.TID 0000.0001)   Seconds in section "TRC_CORRECTION_STEP [FORWARD_STEP]":
(PID.TID 0000.0001)           User time:   1.5389919281005859E-004
(PID.TID 0000.0001)         System time:   9.9837779998779297E-007
(PID.TID 0000.0001)     Wall clock time:   1.4877319335937500E-004
(PID.TID 0000.0001)          No. starts:          40
(PID.TID 0000.0001)           No. stops:          40
(PID.TID 0000.0001)   Seconds in section "GCHEM_FORCING_SEP  [FORWARD_STEP]":
(PID.TID 0000.0001)           User time:   3.7611602544784546
(PID.TID 0000.0001)         System time:   6.0399621725082397E-003
(PID.TID 0000.0001)     Wall clock time:   3.7919280529022217
(PID.TID 0000.0001)          No. starts:          40
(PID.TID 0000.0001)           No. stops:          40
(PID.TID 0000.0001)   Seconds in section "BLOCKING_EXCHANGES  [FORWARD_STEP]":
(PID.TID 0000.0001)           User time:  0.53547608852386475
(PID.TID 0000.0001)         System time:   9.5599889755249023E-004
(PID.TID 0000.0001)     Wall clock time:  0.53947854042053223
(PID.TID 0000.0001)          No. starts:          40
(PID.TID 0000.0001)           No. stops:          40
(PID.TID 0000.0001)   Seconds in section "MONITOR             [FORWARD_STEP]":
(PID.TID 0000.0001)           User time:   9.4450235366821289E-002
(PID.TID 0000.0001)         System time:   8.8006258010864258E-005
(PID.TID 0000.0001)     Wall clock time:   9.5062971115112305E-002
(PID.TID 0000.0001)          No. starts:          40
(PID.TID 0000.0001)           No. stops:          40
(PID.TID 0000.0001)   Seconds in section "COST_TILE           [FORWARD_STEP]":
(PID.TID 0000.0001)           User time:   1.2576580047607422E-004
(PID.TID 0000.0001)         System time:   3.9786100387573242E-006
(PID.TID 0000.0001)     Wall clock time:   1.2135505676269531E-004
(PID.TID 0000.0001)          No. starts:          40
(PID.TID 0000.0001)           No. stops:          40
(PID.TID 0000.0001)   Seconds in section "DO_THE_MODEL_IO     [FORWARD_STEP]":
(PID.TID 0000.0001)           User time:  0.10641229152679443
(PID.TID 0000.0001)         System time:   7.9300105571746826E-003
(PID.TID 0000.0001)     Wall clock time:  0.65315794944763184
(PID.TID 0000.0001)          No. starts:          40
(PID.TID 0000.0001)           No. stops:          40
(PID.TID 0000.0001)   Seconds in section "PTRACERS_RESET      [FORWARD_STEP]":
(PID.TID 0000.0001)           User time:   2.1064281463623047E-004
(PID.TID 0000.0001)         System time:   9.9837779998779297E-007
(PID.TID 0000.0001)     Wall clock time:   2.1147727966308594E-004
(PID.TID 0000.0001)          No. starts:          40
(PID.TID 0000.0001)           No. stops:          40
(PID.TID 0000.0001)   Seconds in section "DO_WRITE_PICKUP     [FORWARD_STEP]":
(PID.TID 0000.0001)           User time:   5.8411002159118652E-002
(PID.TID 0000.0001)         System time:   6.0375005006790161E-002
(PID.TID 0000.0001)     Wall clock time:   2.2166931629180908
(PID.TID 0000.0001)          No. starts:          40
(PID.TID 0000.0001)           No. stops:          40
(PID.TID 0000.0001)   Seconds in section "COST_GENCOST_ALL    [ECCO SPIN-DOWN]":
(PID.TID 0000.0001)           User time:   5.6524276733398438E-002
(PID.TID 0000.0001)         System time:   1.2764036655426025E-002
(PID.TID 0000.0001)     Wall clock time:  0.12503576278686523
(PID.TID 0000.0001)          No. starts:           9
(PID.TID 0000.0001)           No. stops:           9
(PID.TID 0000.0001)   Seconds in section "CTRL_COST_DRIVER [ECCO SPIN-DOWN]":
(PID.TID 0000.0001)           User time:  0.22055959701538086
(PID.TID 0000.0001)         System time:   4.9669146537780762E-003
(PID.TID 0000.0001)     Wall clock time:  0.22673034667968750
(PID.TID 0000.0001)          No. starts:           9
(PID.TID 0000.0001)           No. stops:           9
(PID.TID 0000.0001)   Seconds in section "I/O (WRITE)        [ADJOINT LOOP]":
(PID.TID 0000.0001)           User time:   2.0247459411621094E-002
(PID.TID 0000.0001)         System time:   3.0009746551513672E-003
(PID.TID 0000.0001)     Wall clock time:  0.16250514984130859
(PID.TID 0000.0001)          No. starts:           4
(PID.TID 0000.0001)           No. stops:           4
(PID.TID 0000.0001)   Seconds in section "GRDCHK_MAIN         [THE_MODEL_MAIN]":
(PID.TID 0000.0001)           User time:   36.964155197143555
(PID.TID 0000.0001)         System time:  0.21375799179077148
(PID.TID 0000.0001)     Wall clock time:   37.525592803955078
(PID.TID 0000.0001)          No. starts:           1
(PID.TID 0000.0001)           No. stops:           1
(PID.TID 0000.0001)   Seconds in section "INITIALISE_VARIA    [THE_MAIN_LOOP]":
(PID.TID 0000.0001)           User time:   2.8195724487304688
(PID.TID 0000.0001)         System time:  0.18105709552764893
(PID.TID 0000.0001)     Wall clock time:   3.0162358283996582
(PID.TID 0000.0001)          No. starts:           8
(PID.TID 0000.0001)           No. stops:           8
(PID.TID 0000.0001)   Seconds in section "MAIN LOOP           [THE_MAIN_LOOP]":
(PID.TID 0000.0001)           User time:   34.074665069580078
(PID.TID 0000.0001)         System time:   2.0159900188446045E-002
(PID.TID 0000.0001)     Wall clock time:   34.287372112274170
(PID.TID 0000.0001)          No. starts:           8
(PID.TID 0000.0001)           No. stops:           8
(PID.TID 0000.0001)   Seconds in section "COST_AVERAGESFIELDS [MAIN_DO_LOOP]":
(PID.TID 0000.0001)           User time:  0.56534194946289062
(PID.TID 0000.0001)         System time:   3.6954879760742188E-005
(PID.TID 0000.0001)     Wall clock time:  0.56827759742736816
(PID.TID 0000.0001)          No. starts:          32
(PID.TID 0000.0001)           No. stops:          32
(PID.TID 0000.0001)   Seconds in section "PROFILES_INLOOP    [MAIN_DO_LOOP]":
(PID.TID 0000.0001)           User time:   2.5215148925781250E-003
(PID.TID 0000.0001)         System time:   1.0132789611816406E-006
(PID.TID 0000.0001)     Wall clock time:   2.5358200073242188E-003
(PID.TID 0000.0001)          No. starts:          32
(PID.TID 0000.0001)           No. stops:          32
(PID.TID 0000.0001)   Seconds in section "MAIN_DO_LOOP        [THE_MAIN_LOOP]":
(PID.TID 0000.0001)           User time:   28.081865310668945
(PID.TID 0000.0001)         System time:   9.9658966064453125E-003
(PID.TID 0000.0001)     Wall clock time:   28.252618074417114
(PID.TID 0000.0001)          No. starts:          32
(PID.TID 0000.0001)           No. stops:          32
(PID.TID 0000.0001)   Seconds in section "COST_AVERAGESFIELDS [THE_MAIN_LOOP]":
(PID.TID 0000.0001)           User time:  0.14460182189941406
(PID.TID 0000.0001)         System time:   0.0000000000000000
(PID.TID 0000.0001)     Wall clock time:  0.14528727531433105
(PID.TID 0000.0001)          No. starts:           8
(PID.TID 0000.0001)           No. stops:           8
(PID.TID 0000.0001)   Seconds in section "PROFILES_INLOOP    [THE_MAIN_LOOP]":
(PID.TID 0000.0001)           User time:   4.5776367187500000E-004
(PID.TID 0000.0001)         System time:   0.0000000000000000
(PID.TID 0000.0001)     Wall clock time:   4.6324729919433594E-004
(PID.TID 0000.0001)          No. starts:           8
(PID.TID 0000.0001)           No. stops:           8
(PID.TID 0000.0001)   Seconds in section "ECCO_COST_DRIVER   [THE_MAIN_LOOP]":
(PID.TID 0000.0001)           User time:  0.24733734130859375
(PID.TID 0000.0001)         System time:   8.9119672775268555E-003
(PID.TID 0000.0001)     Wall clock time:  0.25759959220886230
(PID.TID 0000.0001)          No. starts:           8
(PID.TID 0000.0001)           No. stops:           8
(PID.TID 0000.0001)   Seconds in section "COST_FINAL         [ADJOINT SPIN-DOWN]":
(PID.TID 0000.0001)           User time:   6.7329406738281250E-004
(PID.TID 0000.0001)         System time:   2.5308132171630859E-004
(PID.TID 0000.0001)     Wall clock time:   9.3507766723632812E-004
(PID.TID 0000.0001)          No. starts:           8
(PID.TID 0000.0001)           No. stops:           8
(PID.TID 0000.0001) // ======================================================
(PID.TID 0000.0001) // Tile <-> Tile communication statistics
(PID.TID 0000.0001) // ======================================================
(PID.TID 0000.0001) // o Tile number: 000001
(PID.TID 0000.0001) //         No. X exchanges =              0
(PID.TID 0000.0001) //            Max. X spins =              0
(PID.TID 0000.0001) //            Min. X spins =     1000000000
(PID.TID 0000.0001) //          Total. X spins =              0
(PID.TID 0000.0001) //            Avg. X spins =       0.00E+00
(PID.TID 0000.0001) //         No. Y exchanges =              0
(PID.TID 0000.0001) //            Max. Y spins =              0
(PID.TID 0000.0001) //            Min. Y spins =     1000000000
(PID.TID 0000.0001) //          Total. Y spins =              0
(PID.TID 0000.0001) //            Avg. Y spins =       0.00E+00
(PID.TID 0000.0001) // o Tile number: 000002
(PID.TID 0000.0001) //         No. X exchanges =              0
(PID.TID 0000.0001) //            Max. X spins =              0
(PID.TID 0000.0001) //            Min. X spins =     1000000000
(PID.TID 0000.0001) //          Total. X spins =              0
(PID.TID 0000.0001) //            Avg. X spins =       0.00E+00
(PID.TID 0000.0001) //         No. Y exchanges =              0
(PID.TID 0000.0001) //            Max. Y spins =              0
(PID.TID 0000.0001) //            Min. Y spins =     1000000000
(PID.TID 0000.0001) //          Total. Y spins =              0
(PID.TID 0000.0001) //            Avg. Y spins =       0.00E+00
(PID.TID 0000.0001) // o Tile number: 000003
(PID.TID 0000.0001) //         No. X exchanges =              0
(PID.TID 0000.0001) //            Max. X spins =              0
(PID.TID 0000.0001) //            Min. X spins =     1000000000
(PID.TID 0000.0001) //          Total. X spins =              0
(PID.TID 0000.0001) //            Avg. X spins =       0.00E+00
(PID.TID 0000.0001) //         No. Y exchanges =              0
(PID.TID 0000.0001) //            Max. Y spins =              0
(PID.TID 0000.0001) //            Min. Y spins =     1000000000
(PID.TID 0000.0001) //          Total. Y spins =              0
(PID.TID 0000.0001) //            Avg. Y spins =       0.00E+00
(PID.TID 0000.0001) // o Tile number: 000004
(PID.TID 0000.0001) //         No. X exchanges =              0
(PID.TID 0000.0001) //            Max. X spins =              0
(PID.TID 0000.0001) //            Min. X spins =     1000000000
(PID.TID 0000.0001) //          Total. X spins =              0
(PID.TID 0000.0001) //            Avg. X spins =       0.00E+00
(PID.TID 0000.0001) //         No. Y exchanges =              0
(PID.TID 0000.0001) //            Max. Y spins =              0
(PID.TID 0000.0001) //            Min. Y spins =     1000000000
(PID.TID 0000.0001) //          Total. Y spins =              0
(PID.TID 0000.0001) //            Avg. Y spins =       0.00E+00
(PID.TID 0000.0001) // o Thread number: 000001
(PID.TID 0000.0001) //            No. barriers =      633654768
(PID.TID 0000.0001) //      Max. barrier spins =              1
(PID.TID 0000.0001) //      Min. barrier spins =              1
(PID.TID 0000.0001) //     Total barrier spins =      633654768
(PID.TID 0000.0001) //      Avg. barrier spins =       1.00E+00
PROGRAM MAIN: Execution ended Normally
