(PID.TID 0000.0001) 
(PID.TID 0000.0001) // ======================================================
(PID.TID 0000.0001) //                      MITgcm UV
(PID.TID 0000.0001) //                      =========
(PID.TID 0000.0001) // ======================================================
(PID.TID 0000.0001) // execution environment starting up...
(PID.TID 0000.0001) 
(PID.TID 0000.0001) // MITgcmUV version:  checkpoint68j
(PID.TID 0000.0001) // Build user:        jm_c
(PID.TID 0000.0001) // Build host:        villon
(PID.TID 0000.0001) // Build date:        Mon Aug  8 10:22:13 EDT 2022
(PID.TID 0000.0001) 
(PID.TID 0000.0001) // =======================================================
(PID.TID 0000.0001) // Execution Environment parameter file "eedata"
(PID.TID 0000.0001) // =======================================================
(PID.TID 0000.0001) ># Example "eedata" file
(PID.TID 0000.0001) ># Lines beginning "#" are comments
(PID.TID 0000.0001) >#  nTx      :: No. threads per process in X
(PID.TID 0000.0001) >#  nTy      :: No. threads per process in Y
(PID.TID 0000.0001) ># debugMode :: print debug msg (sequence of S/R calls)
(PID.TID 0000.0001) > &EEPARMS
(PID.TID 0000.0001) ># debugMode=.TRUE.,
(PID.TID 0000.0001) > /
(PID.TID 0000.0001) ># Note: Some systems use & as the namelist terminator (as shown here).
(PID.TID 0000.0001) >#       Other systems use a / character.
(PID.TID 0000.0001) 
(PID.TID 0000.0001) // =======================================================
(PID.TID 0000.0001) // Computational Grid Specification ( see files "SIZE.h" )
(PID.TID 0000.0001) //                                  ( and "eedata"       )
(PID.TID 0000.0001) // =======================================================
(PID.TID 0000.0001)      nPx =    1 ; /* No. processes in X */
(PID.TID 0000.0001)      nPy =    1 ; /* No. processes in Y */
(PID.TID 0000.0001)      nSx =    1 ; /* No. tiles in X per process */
(PID.TID 0000.0001)      nSy =    2 ; /* No. tiles in Y per process */
(PID.TID 0000.0001)      sNx =    1 ; /* Tile size in X */
(PID.TID 0000.0001)      sNy =   16 ; /* Tile size in Y */
(PID.TID 0000.0001)      OLx =    3 ; /* Tile overlap distance in X */
(PID.TID 0000.0001)      OLy =    3 ; /* Tile overlap distance in Y */
(PID.TID 0000.0001)      nTx =    1 ; /* No. threads in X per process */
(PID.TID 0000.0001)      nTy =    1 ; /* No. threads in Y per process */
(PID.TID 0000.0001)       Nr =   25 ; /* No. levels in the vertical   */
(PID.TID 0000.0001)       Nx =    1 ; /* Total domain size in X ( = nPx*nSx*sNx ) */
(PID.TID 0000.0001)       Ny =   32 ; /* Total domain size in Y ( = nPy*nSy*sNy ) */
(PID.TID 0000.0001)   nTiles =    2 ; /* Total no. tiles per process ( = nSx*nSy ) */
(PID.TID 0000.0001)   nProcs =    1 ; /* Total no. processes ( = nPx*nPy ) */
(PID.TID 0000.0001) nThreads =    1 ; /* Total no. threads per process ( = nTx*nTy ) */
(PID.TID 0000.0001) usingMPI =    F ; /* Flag used to control whether MPI is in use */
(PID.TID 0000.0001)                   /*  note: To execute a program with MPI calls */
(PID.TID 0000.0001)                   /*  it must be launched appropriately e.g     */
(PID.TID 0000.0001)                   /*  "mpirun -np 64 ......"                    */
(PID.TID 0000.0001) useCoupler=   F ; /* Flag used to control communications with   */
(PID.TID 0000.0001)                   /*  other model components, through a coupler */
(PID.TID 0000.0001) useNest2W_parent =    F ;/* Control 2-W Nesting comm */
(PID.TID 0000.0001) useNest2W_child  =    F ;/* Control 2-W Nesting comm */
(PID.TID 0000.0001) debugMode =    F ; /* print debug msg. (sequence of S/R calls)  */
(PID.TID 0000.0001) printMapIncludesZeros=    F ; /* print zeros in Std.Output maps */
(PID.TID 0000.0001) maxLengthPrt1D=   65 /* maxLength of 1D array printed to StdOut */
(PID.TID 0000.0001) 
(PID.TID 0000.0001) // ======================================================
(PID.TID 0000.0001) // Mapping of tiles to threads
(PID.TID 0000.0001) // ======================================================
(PID.TID 0000.0001) // -o- Thread   1, tiles (   1:   1,   1:   2)
(PID.TID 0000.0001) 
(PID.TID 0000.0001) // ======================================================
(PID.TID 0000.0001) // Tile <-> Tile connectvity table
(PID.TID 0000.0001) // ======================================================
(PID.TID 0000.0001) // Tile number: 000001 (process no. = 000000)
(PID.TID 0000.0001) //        WEST: Tile = 000001, Process = 000000, Comm = put
(PID.TID 0000.0001) //                bi = 000001, bj = 000001
(PID.TID 0000.0001) //        EAST: Tile = 000001, Process = 000000, Comm = put
(PID.TID 0000.0001) //                bi = 000001, bj = 000001
(PID.TID 0000.0001) //       SOUTH: Tile = 000002, Process = 000000, Comm = put
(PID.TID 0000.0001) //                bi = 000001, bj = 000002
(PID.TID 0000.0001) //       NORTH: Tile = 000002, Process = 000000, Comm = put
(PID.TID 0000.0001) //                bi = 000001, bj = 000002
(PID.TID 0000.0001) // Tile number: 000002 (process no. = 000000)
(PID.TID 0000.0001) //        WEST: Tile = 000002, Process = 000000, Comm = put
(PID.TID 0000.0001) //                bi = 000001, bj = 000002
(PID.TID 0000.0001) //        EAST: Tile = 000002, Process = 000000, Comm = put
(PID.TID 0000.0001) //                bi = 000001, bj = 000002
(PID.TID 0000.0001) //       SOUTH: Tile = 000001, Process = 000000, Comm = put
(PID.TID 0000.0001) //                bi = 000001, bj = 000001
(PID.TID 0000.0001) //       NORTH: Tile = 000001, Process = 000000, Comm = put
(PID.TID 0000.0001) //                bi = 000001, bj = 000001
(PID.TID 0000.0001) 
(PID.TID 0000.0001)  INI_PARMS: opening model parameter file "data"
(PID.TID 0000.0001)  OPEN_COPY_DATA_FILE: opening file data
(PID.TID 0000.0001) // =======================================================
(PID.TID 0000.0001) // Parameter file "data"
(PID.TID 0000.0001) // =======================================================
(PID.TID 0000.0001) ># ====================
(PID.TID 0000.0001) ># | Model parameters |
(PID.TID 0000.0001) ># ====================
(PID.TID 0000.0001) >#
(PID.TID 0000.0001) ># Continuous equation parameters
(PID.TID 0000.0001) > &PARM01
(PID.TID 0000.0001) > tRef= 10*0., 15., 16., 17., 18., 19., 20., 21., 22., 23., 24., 25., 26., 27., 28., 29.,
(PID.TID 0000.0001) > viscAr=2.E+4,
(PID.TID 0000.0001) > viscAh=3.E+2,
(PID.TID 0000.0001) > no_slip_sides=.FALSE.,
(PID.TID 0000.0001) > no_slip_bottom=.FALSE.,
(PID.TID 0000.0001) > diffKrT=3.E+3,
(PID.TID 0000.0001) > diffKrS=3.E+3,
(PID.TID 0000.0001) > diffKhT=0.E3,
(PID.TID 0000.0001) > diffKhS=0.E3,
(PID.TID 0000.0001) >#ivdc_kappa=1.E+8,
(PID.TID 0000.0001) > beta=0.E-11,
(PID.TID 0000.0001) > f0  =1.E-4,
(PID.TID 0000.0001) > selectCoriScheme=1,
(PID.TID 0000.0001) > gravity= 10.,
(PID.TID 0000.0001) > buoyancyRelation='OCEANICP',
(PID.TID 0000.0001) > eosType='LINEAR',
(PID.TID 0000.0001) > tAlpha=2.E-4,
(PID.TID 0000.0001) > sBeta =0.E-4,
(PID.TID 0000.0001) > rhoConst=1000.,
(PID.TID 0000.0001) > rhoNil=1000.,
(PID.TID 0000.0001) > rigidLid=.FALSE.,
(PID.TID 0000.0001) > implicitFreeSurface=.TRUE.,
(PID.TID 0000.0001) > exactConserv=.TRUE.,
(PID.TID 0000.0001) > implicitDiffusion=.TRUE.,
(PID.TID 0000.0001) > staggerTimeStep=.TRUE.
(PID.TID 0000.0001) > tempAdvScheme=20,
(PID.TID 0000.0001) > saltAdvScheme=20,
(PID.TID 0000.0001) > readBinaryPrec=64,
(PID.TID 0000.0001) > writeBinaryPrec=64,
(PID.TID 0000.0001) > globalFiles=.TRUE.,
(PID.TID 0000.0001) > debugLevel=2,
(PID.TID 0000.0001) > plotLevel=0,
(PID.TID 0000.0001) > /
(PID.TID 0000.0001) >
(PID.TID 0000.0001) ># Elliptic solver parameters
(PID.TID 0000.0001) > &PARM02
(PID.TID 0000.0001) > cg2dMaxIters=1000,
(PID.TID 0000.0001) > cg2dTargetResidual=1.E-13,
(PID.TID 0000.0001) > /
(PID.TID 0000.0001) >
(PID.TID 0000.0001) ># Time stepping parameters
(PID.TID 0000.0001) > &PARM03
(PID.TID 0000.0001) > startTime=0.,
(PID.TID 0000.0001) > deltaT=1800.,
(PID.TID 0000.0001) > abEps=0.1,
(PID.TID 0000.0001) > momDissip_In_AB=.FALSE.,
(PID.TID 0000.0001) > pChkptFreq=0.,
(PID.TID 0000.0001) > chkptFreq =0.,
(PID.TID 0000.0001) > dumpFreq=864000.,
(PID.TID 0000.0001) > monitorSelect=1,
(PID.TID 0000.0001) >#- very short run:
(PID.TID 0000.0001) > nTimeSteps=20,
(PID.TID 0000.0001) > monitorFreq=1.,
(PID.TID 0000.0001) >#- longer run:
(PID.TID 0000.0001) >#nTimeSteps=4321,
(PID.TID 0000.0001) >#monitorFreq=86400.,
(PID.TID 0000.0001) > /
(PID.TID 0000.0001) >
(PID.TID 0000.0001) ># Gridding parameters
(PID.TID 0000.0001) > &PARM04
(PID.TID 0000.0001) > usingCartesianGrid=.TRUE.,
(PID.TID 0000.0001) >#delR= 10*1.E4, 480.E4, 400.E4, 320.E4, 260.E4, 200.E4, 155.E4, 120.E4,
(PID.TID 0000.0001) >#                95.E4, 80.E4, 70.E4, 65.E4, 60.E4, 55.E4, 50.E4, 50.E4,
(PID.TID 0000.0001) > delRc= 10*400.E4, 480.E4, 440.E4, 360.E4, 290.E4, 230.E4, 177.5E4, 137.5E4,
(PID.TID 0000.0001) >       107.5E4, 87.5E4, 75.E4, 67.5E4, 62.5E4, 57.5E4, 52.5E4, 50.E4, 25.E4,
(PID.TID 0000.0001) > delX=1*10.E3,
(PID.TID 0000.0001) >#delY=32*10.E3,
(PID.TID 0000.0001) > delYfile='dy.bin',
(PID.TID 0000.0001) > /
(PID.TID 0000.0001) >
(PID.TID 0000.0001) ># Input datasets
(PID.TID 0000.0001) > &PARM05
(PID.TID 0000.0001) > bathyFile      ='bathy_inP.bin',
(PID.TID 0000.0001) > hydrogThetaFile='Tini_flip.bin',
(PID.TID 0000.0001) > hydrogSaltFile ='Sini_Ydir.bin',
(PID.TID 0000.0001) >#hydrogSaltFile ='Sini_Patch.bin',
(PID.TID 0000.0001) > /
(PID.TID 0000.0001) 
(PID.TID 0000.0001)  INI_PARMS ; starts to read PARM01
(PID.TID 0000.0001)  INI_PARMS ; read PARM01 : OK
(PID.TID 0000.0001)  INI_PARMS ; starts to read PARM02
(PID.TID 0000.0001)  INI_PARMS ; read PARM02 : OK
(PID.TID 0000.0001)  INI_PARMS ; starts to read PARM03
(PID.TID 0000.0001)  INI_PARMS ; read PARM03 : OK
(PID.TID 0000.0001)  INI_PARMS ; starts to read PARM04
(PID.TID 0000.0001)  INI_PARMS ; read PARM04 : OK
(PID.TID 0000.0001)  INI_PARMS ; starts to read PARM05
(PID.TID 0000.0001)  INI_PARMS ; read PARM05 : OK
(PID.TID 0000.0001)  INI_PARMS: finished reading file "data"
(PID.TID 0000.0001)  PACKAGES_BOOT: opening data.pkg
(PID.TID 0000.0001)  OPEN_COPY_DATA_FILE: opening file data.pkg
(PID.TID 0000.0001) // =======================================================
(PID.TID 0000.0001) // Parameter file "data.pkg"
(PID.TID 0000.0001) // =======================================================
(PID.TID 0000.0001) ># Packages (lines beginning "#" are comments)
(PID.TID 0000.0001) > &PACKAGES
(PID.TID 0000.0001) >  useGMRedi=.TRUE.,
(PID.TID 0000.0001) >  useDiagnostics=.TRUE.,
(PID.TID 0000.0001) > /
(PID.TID 0000.0001) 
(PID.TID 0000.0001)  PACKAGES_BOOT: finished reading data.pkg
(PID.TID 0000.0001)  PACKAGES_BOOT: On/Off package Summary
 --------  pkgs with a standard "usePKG" On/Off switch in "data.pkg":  --------
 pkg/gmredi               compiled   and   used ( useGMRedi                = T )
 pkg/diagnostics          compiled   and   used ( useDiagnostics           = T )
 -------- pkgs without standard "usePKG" On/Off switch in "data.pkg":  --------
 pkg/generic_advdiff      compiled   and   used ( useGAD                   = T )
 pkg/mom_common           compiled   and   used ( momStepping              = T )
 pkg/mom_vecinv           compiled but not used ( +vectorInvariantMomentum = F )
 pkg/mom_fluxform         compiled   and   used ( & not vectorInvariantMom = T )
 pkg/monitor              compiled   and   used ( monitorFreq > 0.         = T )
 pkg/debug                compiled but not used ( debugMode                = F )
 pkg/rw                   compiled   and   used
 pkg/mdsio                compiled   and   used
(PID.TID 0000.0001)  PACKAGES_BOOT: End of package Summary
(PID.TID 0000.0001) 
(PID.TID 0000.0001)  GM_READPARMS: opening data.gmredi
(PID.TID 0000.0001)  OPEN_COPY_DATA_FILE: opening file data.gmredi
(PID.TID 0000.0001) // =======================================================
(PID.TID 0000.0001) // Parameter file "data.gmredi"
(PID.TID 0000.0001) // =======================================================
(PID.TID 0000.0001) ># GM-Redi parameters
(PID.TID 0000.0001) > &GM_PARM01
(PID.TID 0000.0001) >  GM_AdvForm=.TRUE.,
(PID.TID 0000.0001) >  GM_background_K=1000.,
(PID.TID 0000.0001) >  GM_isopycK    = 0.,
(PID.TID 0000.0001) ># GM_taper_scheme='orig',
(PID.TID 0000.0001) ># GM_taper_scheme='linear',
(PID.TID 0000.0001) >  GM_maxSlope    =1.E-02,
(PID.TID 0000.0001) > /
(PID.TID 0000.0001) 
(PID.TID 0000.0001)  GM_READPARMS: finished reading data.gmredi
(PID.TID 0000.0001)  DIAGNOSTICS_READPARMS: opening data.diagnostics
(PID.TID 0000.0001)  OPEN_COPY_DATA_FILE: opening file data.diagnostics
(PID.TID 0000.0001) // =======================================================
(PID.TID 0000.0001) // Parameter file "data.diagnostics"
(PID.TID 0000.0001) // =======================================================
(PID.TID 0000.0001) ># Diagnostic Package Choices
(PID.TID 0000.0001) >#--------------------
(PID.TID 0000.0001) >#  dumpAtLast (logical): always write output at the end of simulation (default=F)
(PID.TID 0000.0001) >#  diag_mnc   (logical): write to NetCDF files (default=useMNC)
(PID.TID 0000.0001) >#--for each output-stream:
(PID.TID 0000.0001) >#  fileName(n) : prefix of the output file name (max 80c long) for outp.stream n
(PID.TID 0000.0001) >#  frequency(n):< 0 : write snap-shot output every |frequency| seconds
(PID.TID 0000.0001) >#               > 0 : write time-average output every frequency seconds
(PID.TID 0000.0001) >#  timePhase(n)     : write at time = timePhase + multiple of |frequency|
(PID.TID 0000.0001) >#    averagingFreq  : frequency (in s) for periodic averaging interval
(PID.TID 0000.0001) >#    averagingPhase : phase     (in s) for periodic averaging interval
(PID.TID 0000.0001) >#    repeatCycle    : number of averaging intervals in 1 cycle
(PID.TID 0000.0001) >#  levels(:,n) : list of levels to write to file (Notes: declared as REAL)
(PID.TID 0000.0001) >#                when this entry is missing, select all common levels of this list
(PID.TID 0000.0001) >#  fields(:,n) : list of selected diagnostics fields (8.c) in outp.stream n
(PID.TID 0000.0001) >#                (see "available_diagnostics.log" file for the full list of diags)
(PID.TID 0000.0001) >#  missing_value(n) : missing value for real-type fields in output file "n"
(PID.TID 0000.0001) >#  fileFlags(n)     : specific code (8c string) for output file "n"
(PID.TID 0000.0001) >#--------------------
(PID.TID 0000.0001) > &DIAGNOSTICS_LIST
(PID.TID 0000.0001) ># diag_mnc     = .FALSE.,
(PID.TID 0000.0001) >  fields(1:4,1) = 'ETAN    ','DETADT2 ','PHIBOT  ',
(PID.TID 0000.0001) >                  'MXLDEPTH',
(PID.TID 0000.0001) >#                 'GM_BVPcW','GM_BVPcS',
(PID.TID 0000.0001) >#                 'SubMesLf','SubMpsiY',
(PID.TID 0000.0001) >#                 'GM_hTrsL','GM_baseS','GM_rLamb',
(PID.TID 0000.0001) >#                 'GM_VisbK',
(PID.TID 0000.0001) >   levels(1,1) = 1.,
(PID.TID 0000.0001) >  fileName(1) = 'surfDiag',
(PID.TID 0000.0001) >  frequency(1) = -86400.,
(PID.TID 0000.0001) >  frequency(1) = -864000.,
(PID.TID 0000.0001) >  timePhase(1) = 0.,
(PID.TID 0000.0001) >
(PID.TID 0000.0001) >  fields(1:7,2)  = 'UVEL    ','VVEL    ','WVEL    ','PHIHYD  ',
(PID.TID 0000.0001) >                   'THETA   ','THETASQ ','UVELSQ  ',
(PID.TID 0000.0001) ># do not specify levels => all levels are selected
(PID.TID 0000.0001) ># fileName(2) = 'dynDiag',
(PID.TID 0000.0001) >  frequency(2) = -864000.,
(PID.TID 0000.0001) >  timePhase(2) = 0.,
(PID.TID 0000.0001) >
(PID.TID 0000.0001) ># fields(1:3,3)  = 'DRHODR  ','RHOAnoma','THETA   ',
(PID.TID 0000.0001) >  fields(1:4,3)  = 'DRHODR  ','RHOAnoma',
(PID.TID 0000.0001) >#                  'GM_Kwy  ','GM_Kwz  ',
(PID.TID 0000.0001) >#                  'GM_Kvy  ','GM_Kvz  ',
(PID.TID 0000.0001) >                   'GM_PsiY ','THETA   ',
(PID.TID 0000.0001) >  fileName(3) = 'oceDiag',
(PID.TID 0000.0001) >  frequency(3) = -86400.,
(PID.TID 0000.0001) >  frequency(3) = -864000.,
(PID.TID 0000.0001) >  timePhase(3) = 0.,
(PID.TID 0000.0001) >
(PID.TID 0000.0001) >  fields(1:3,4)  = 'DFyE_TH ','DFrE_TH ','DFrI_TH ',
(PID.TID 0000.0001) >#                  'ADVy_TH ','ADVr_TH ',
(PID.TID 0000.0001) >#                  'ADVy_SLT','ADVr_SLT',
(PID.TID 0000.0001) >#  fileName(4) = 'flxDiag',
(PID.TID 0000.0001) >  frequency(4) = -86400.,
(PID.TID 0000.0001) >  timePhase(4) = 0.,
(PID.TID 0000.0001) > /
(PID.TID 0000.0001) >
(PID.TID 0000.0001) >#--------------------
(PID.TID 0000.0001) ># Parameter for Diagnostics of per level statistics:
(PID.TID 0000.0001) >#--------------------
(PID.TID 0000.0001) >#  diagSt_mnc (logical): write stat-diags to NetCDF files (default=diag_mnc)
(PID.TID 0000.0001) >#  diagSt_regMaskFile : file containing the region-mask to read-in
(PID.TID 0000.0001) >#  nSetRegMskFile   : number of region-mask sets within the region-mask file
(PID.TID 0000.0001) >#  set_regMask(i)   : region-mask set-index that identifies the region "i"
(PID.TID 0000.0001) >#  val_regMask(i)   : region "i" identifier value in the region mask
(PID.TID 0000.0001) >#--for each output-stream:
(PID.TID 0000.0001) >#  stat_fName(n) : prefix of the output file name (max 80c long) for outp.stream n
(PID.TID 0000.0001) >#  stat_freq(n):< 0 : write snap-shot output every |stat_freq| seconds
(PID.TID 0000.0001) >#               > 0 : write time-average output every stat_freq seconds
(PID.TID 0000.0001) >#  stat_phase(n)    : write at time = stat_phase + multiple of |stat_freq|
(PID.TID 0000.0001) >#  stat_region(:,n) : list of "regions" (default: 1 region only=global)
(PID.TID 0000.0001) >#  stat_fields(:,n) : list of selected diagnostics fields (8.c) in outp.stream n
(PID.TID 0000.0001) >#                (see "available_diagnostics.log" file for the full list of diags)
(PID.TID 0000.0001) >#--------------------
(PID.TID 0000.0001) > &DIAG_STATIS_PARMS
(PID.TID 0000.0001) >  stat_fields(1:9,1)  = 'ETAN    ','DETADT2 ','MXLDEPTH',
(PID.TID 0000.0001) ># stat_fields(1:12,1) = 'ETAN    ','DETADT2 ','MXLDEPTH',
(PID.TID 0000.0001) >#                       'SubMesLf','SubMpsiY',
(PID.TID 0000.0001) >                        'UVEL    ','VVEL    ','WVEL    ',
(PID.TID 0000.0001) >                        'THETA   ','SALT    ','GM_PsiY ',
(PID.TID 0000.0001) >#                       'THETA   ','SALT    ',
(PID.TID 0000.0001) >#                       'GM_Kvy  ','GM_Kvz  ','GM_Kwy  ','GM_Kwz  ',
(PID.TID 0000.0001) >#                       'GM_hTrsL','GM_baseS','GM_rLamb',
(PID.TID 0000.0001) >  stat_fName(1) = 'dynStDiag',
(PID.TID 0000.0001) >    stat_freq(1) = 18000.,
(PID.TID 0000.0001) >    stat_freq(1) = 86400.,
(PID.TID 0000.0001) >## stat_phase(1) = 0.,
(PID.TID 0000.0001) > /
(PID.TID 0000.0001) 
(PID.TID 0000.0001) S/R DIAGNOSTICS_READPARMS, read namelist "diagnostics_list": start
(PID.TID 0000.0001) S/R DIAGNOSTICS_READPARMS, read namelist "diagnostics_list": OK
(PID.TID 0000.0001) S/R DIAGNOSTICS_READPARMS, read namelist "DIAG_STATIS_PARMS": start
(PID.TID 0000.0001) S/R DIAGNOSTICS_READPARMS, read namelist "DIAG_STATIS_PARMS": OK
(PID.TID 0000.0001)  DIAGNOSTICS_READPARMS: global parameter summary:
(PID.TID 0000.0001)  dumpAtLast = /* always write time-ave diags at the end */
(PID.TID 0000.0001)                   F
(PID.TID 0000.0001)     ;
(PID.TID 0000.0001)  diag_mnc =   /* write NetCDF output files */
(PID.TID 0000.0001)                   F
(PID.TID 0000.0001)     ;
(PID.TID 0000.0001)  useMissingValue = /* put MissingValue where mask = 0 */
(PID.TID 0000.0001)                   F
(PID.TID 0000.0001)     ;
(PID.TID 0000.0001)  diagCG_maxIters = /* max number of iters in diag_cg2d */
(PID.TID 0000.0001)                    1000
(PID.TID 0000.0001)     ;
(PID.TID 0000.0001)  diagCG_resTarget = /* residual target for diag_cg2d */
(PID.TID 0000.0001)                 1.000000000000000E-13
(PID.TID 0000.0001)     ;
(PID.TID 0000.0001)  diagCG_pcOffDFac = /* preconditioner off-diagonal factor */
(PID.TID 0000.0001)                 9.611687812379854E-01
(PID.TID 0000.0001)     ;
(PID.TID 0000.0001) -----------------------------------------------------
(PID.TID 0000.0001)  DIAGNOSTICS_READPARMS: active diagnostics summary:
(PID.TID 0000.0001) -----------------------------------------------------
(PID.TID 0000.0001) Creating Output Stream: surfDiag
(PID.TID 0000.0001) Output Frequency:    -864000.000000 ; Phase:           0.000000
(PID.TID 0000.0001)  Averaging Freq.:          0.000000 , Phase:           0.000000 , Cycle:   1
(PID.TID 0000.0001)  missing value: -9.990000000000E+02
(PID.TID 0000.0001)  Levels:       1.
(PID.TID 0000.0001)  Fields:    ETAN     DETADT2  PHIBOT   MXLDEPTH
(PID.TID 0000.0001) Creating Output Stream: oceDiag
(PID.TID 0000.0001) Output Frequency:    -864000.000000 ; Phase:           0.000000
(PID.TID 0000.0001)  Averaging Freq.:          0.000000 , Phase:           0.000000 , Cycle:   1
(PID.TID 0000.0001)  missing value: -9.990000000000E+02
(PID.TID 0000.0001)  Levels:    will be set later
(PID.TID 0000.0001)  Fields:    DRHODR   RHOAnoma GM_PsiY  THETA
(PID.TID 0000.0001) -----------------------------------------------------
(PID.TID 0000.0001)  DIAGNOSTICS_READPARMS: statistics diags. summary:
(PID.TID 0000.0001) Creating Stats. Output Stream: dynStDiag
(PID.TID 0000.0001) Output Frequency:      86400.000000 ; Phase:           0.000000
(PID.TID 0000.0001)  Regions:   0
(PID.TID 0000.0001)  Fields:    ETAN     DETADT2  MXLDEPTH UVEL     VVEL     WVEL     THETA    SALT     GM_PsiY
(PID.TID 0000.0001) -----------------------------------------------------
(PID.TID 0000.0001) 
(PID.TID 0000.0001) SET_PARMS: done
(PID.TID 0000.0001)  MDS_READVEC_LOC: open file: dy.bin
(PID.TID 0000.0001) S/R LOAD_GRID_SPACING: delY loaded from file: dy.bin
(PID.TID 0000.0001) Enter INI_VERTICAL_GRID: setInterFDr=    F ; setCenterDr=    T
(PID.TID 0000.0001) %MON XC_max                       =   5.0000000000000E+03
(PID.TID 0000.0001) %MON XC_min                       =   5.0000000000000E+03
(PID.TID 0000.0001) %MON XC_mean                      =   5.0000000000000E+03
(PID.TID 0000.0001) %MON XC_sd                        =   0.0000000000000E+00
(PID.TID 0000.0001) %MON XG_max                       =   0.0000000000000E+00
(PID.TID 0000.0001) %MON XG_min                       =   0.0000000000000E+00
(PID.TID 0000.0001) %MON XG_mean                      =   0.0000000000000E+00
(PID.TID 0000.0001) %MON XG_sd                        =   0.0000000000000E+00
(PID.TID 0000.0001) %MON DXC_max                      =   1.0000000000000E+04
(PID.TID 0000.0001) %MON DXC_min                      =   1.0000000000000E+04
(PID.TID 0000.0001) %MON DXC_mean                     =   1.0000000000000E+04
(PID.TID 0000.0001) %MON DXC_sd                       =   0.0000000000000E+00
(PID.TID 0000.0001) %MON DXF_max                      =   1.0000000000000E+04
(PID.TID 0000.0001) %MON DXF_min                      =   1.0000000000000E+04
(PID.TID 0000.0001) %MON DXF_mean                     =   1.0000000000000E+04
(PID.TID 0000.0001) %MON DXF_sd                       =   0.0000000000000E+00
(PID.TID 0000.0001) %MON DXG_max                      =   1.0000000000000E+04
(PID.TID 0000.0001) %MON DXG_min                      =   1.0000000000000E+04
(PID.TID 0000.0001) %MON DXG_mean                     =   1.0000000000000E+04
(PID.TID 0000.0001) %MON DXG_sd                       =   0.0000000000000E+00
(PID.TID 0000.0001) %MON DXV_max                      =   1.0000000000000E+04
(PID.TID 0000.0001) %MON DXV_min                      =   1.0000000000000E+04
(PID.TID 0000.0001) %MON DXV_mean                     =   1.0000000000000E+04
(PID.TID 0000.0001) %MON DXV_sd                       =   0.0000000000000E+00
(PID.TID 0000.0001) %MON YC_max                       =   3.1561290774894E+05
(PID.TID 0000.0001) %MON YC_min                       =   5.6092274511694E+03
(PID.TID 0000.0001) %MON YC_mean                      =   1.6001915336715E+05
(PID.TID 0000.0001) %MON YC_sd                        =   8.8599616236208E+04
(PID.TID 0000.0001) %MON YG_max                       =   3.1000000000000E+05
(PID.TID 0000.0001) %MON YG_min                       =  -1.8189894035459E-12
(PID.TID 0000.0001) %MON YG_mean                      =   1.5500000000000E+05
(PID.TID 0000.0001) %MON YG_sd                        =   8.8567978698292E+04
(PID.TID 0000.0001) %MON DYC_max                      =   1.1222135200113E+04
(PID.TID 0000.0001) %MON DYC_min                      =   7.9032603032250E+03
(PID.TID 0000.0001) %MON DYC_mean                     =   1.0038306734309E+04
(PID.TID 0000.0001) %MON DYC_sd                       =   1.1846105766688E+03
(PID.TID 0000.0001) %MON DYF_max                      =   1.1225815497888E+04
(PID.TID 0000.0001) %MON DYF_min                      =   7.8626243792479E+03
(PID.TID 0000.0001) %MON DYF_mean                     =   1.0038306734309E+04
(PID.TID 0000.0001) %MON DYF_sd                       =   1.1918760120598E+03
(PID.TID 0000.0001) %MON DYG_max                      =   1.1225815497888E+04
(PID.TID 0000.0001) %MON DYG_min                      =   7.8626243792479E+03
(PID.TID 0000.0001) %MON DYG_mean                     =   1.0038306734309E+04
(PID.TID 0000.0001) %MON DYG_sd                       =   1.1918760120598E+03
(PID.TID 0000.0001) %MON DYU_max                      =   1.1222135200113E+04
(PID.TID 0000.0001) %MON DYU_min                      =   7.9032603032250E+03
(PID.TID 0000.0001) %MON DYU_mean                     =   1.0038306734309E+04
(PID.TID 0000.0001) %MON DYU_sd                       =   1.1846105766688E+03
(PID.TID 0000.0001) %MON RA_max                       =   1.1225815497888E+08
(PID.TID 0000.0001) %MON RA_min                       =   7.8626243792479E+07
(PID.TID 0000.0001) %MON RA_mean                      =   1.0038306734309E+08
(PID.TID 0000.0001) %MON RA_sd                        =   1.1918760120598E+07
(PID.TID 0000.0001) %MON RAW_max                      =   1.1225815497888E+08
(PID.TID 0000.0001) %MON RAW_min                      =   7.8626243792479E+07
(PID.TID 0000.0001) %MON RAW_mean                     =   1.0038306734309E+08
(PID.TID 0000.0001) %MON RAW_sd                       =   1.1918760120598E+07
(PID.TID 0000.0001) %MON RAS_max                      =   1.1222135200113E+08
(PID.TID 0000.0001) %MON RAS_min                      =   7.9032603032250E+07
(PID.TID 0000.0001) %MON RAS_mean                     =   1.0038306734309E+08
(PID.TID 0000.0001) %MON RAS_sd                       =   1.1846105766688E+07
(PID.TID 0000.0001) %MON RAZ_max                      =   1.1222135200113E+08
(PID.TID 0000.0001) %MON RAZ_min                      =   7.9032603032250E+07
(PID.TID 0000.0001) %MON RAZ_mean                     =   1.0038306734309E+08
(PID.TID 0000.0001) %MON RAZ_sd                       =   1.1846105766688E+07
(PID.TID 0000.0001) %MON AngleCS_max                  =   1.0000000000000E+00
(PID.TID 0000.0001) %MON AngleCS_min                  =   1.0000000000000E+00
(PID.TID 0000.0001) %MON AngleCS_mean                 =   1.0000000000000E+00
(PID.TID 0000.0001) %MON AngleCS_sd                   =   0.0000000000000E+00
(PID.TID 0000.0001) %MON AngleSN_max                  =   0.0000000000000E+00
(PID.TID 0000.0001) %MON AngleSN_min                  =   0.0000000000000E+00
(PID.TID 0000.0001) %MON AngleSN_mean                 =   0.0000000000000E+00
(PID.TID 0000.0001) %MON AngleSN_sd                   =   0.0000000000000E+00
(PID.TID 0000.0001)  MDS_READ_FIELD: opening global file: bathy_inP.bin
(PID.TID 0000.0001) GAD_INIT_FIXED: GAD_OlMinSize=  1  0  1
(PID.TID 0000.0001) 
(PID.TID 0000.0001) // ===================================
(PID.TID 0000.0001) // GAD parameters :
(PID.TID 0000.0001) // ===================================
(PID.TID 0000.0001) tempAdvScheme =   /* Temp. Horiz.Advection scheme selector */
(PID.TID 0000.0001)                      20
(PID.TID 0000.0001)     ;
(PID.TID 0000.0001) tempVertAdvScheme =   /* Temp. Vert. Advection scheme selector */
(PID.TID 0000.0001)                      20
(PID.TID 0000.0001)     ;
(PID.TID 0000.0001) tempMultiDimAdvec =   /* use Muti-Dim Advec method for Temp */
(PID.TID 0000.0001)                   T
(PID.TID 0000.0001)     ;
(PID.TID 0000.0001) tempSOM_Advection = /* use 2nd Order Moment Advection for Temp */
(PID.TID 0000.0001)                   F
(PID.TID 0000.0001)     ;
(PID.TID 0000.0001) AdamsBashforthGt = /* apply Adams-Bashforth extrapolation on Gt */
(PID.TID 0000.0001)                   F
(PID.TID 0000.0001)     ;
(PID.TID 0000.0001) AdamsBashforth_T = /* apply Adams-Bashforth extrapolation on Temp */
(PID.TID 0000.0001)                   F
(PID.TID 0000.0001)     ;
(PID.TID 0000.0001) saltAdvScheme =   /* Salt. Horiz.advection scheme selector */
(PID.TID 0000.0001)                      20
(PID.TID 0000.0001)     ;
(PID.TID 0000.0001) saltVertAdvScheme =   /* Salt. Vert. Advection scheme selector */
(PID.TID 0000.0001)                      20
(PID.TID 0000.0001)     ;
(PID.TID 0000.0001) saltMultiDimAdvec =   /* use Muti-Dim Advec method for Salt */
(PID.TID 0000.0001)                   T
(PID.TID 0000.0001)     ;
(PID.TID 0000.0001) saltSOM_Advection = /* use 2nd Order Moment Advection for Salt */
(PID.TID 0000.0001)                   F
(PID.TID 0000.0001)     ;
(PID.TID 0000.0001) AdamsBashforthGs = /* apply Adams-Bashforth extrapolation on Gs */
(PID.TID 0000.0001)                   F
(PID.TID 0000.0001)     ;
(PID.TID 0000.0001) AdamsBashforth_S = /* apply Adams-Bashforth extrapolation on Salt */
(PID.TID 0000.0001)                   F
(PID.TID 0000.0001)     ;
(PID.TID 0000.0001) // ===================================
(PID.TID 0000.0001) ------------------------------------------------------------
(PID.TID 0000.0001) DIAGNOSTICS_SET_LEVELS: done
(PID.TID 0000.0001)  Total Nb of available Diagnostics: ndiagt=   212
(PID.TID 0000.0001)  write list of available Diagnostics to file: available_diagnostics.log
(PID.TID 0000.0001) SETDIAG: Allocate  1 x  1 Levels for Diagnostic #    23 ETAN
(PID.TID 0000.0001) SETDIAG: Allocate  1 x  1 Levels for Diagnostic #    25 DETADT2
(PID.TID 0000.0001) SETDIAG: Allocate  1 x  1 Levels for Diagnostic #    73 PHIBOT
(PID.TID 0000.0001) SETDIAG: Allocate  1 x  1 Levels for Diagnostic #    76 MXLDEPTH
(PID.TID 0000.0001) SETDIAG: Allocate 25 x  1 Levels for Diagnostic #    77 DRHODR
(PID.TID 0000.0001) SETDIAG: Allocate 25 x  1 Levels for Diagnostic #    64 RHOAnoma
(PID.TID 0000.0001) SETDIAG: Allocate 25 x  1 Levels for Diagnostic #   205 GM_PsiY
(PID.TID 0000.0001) SETDIAG: Allocate 25 x  1 Levels for Diagnostic #    26 THETA
(PID.TID 0000.0001)   space allocated for all diagnostics:     104 levels
(PID.TID 0000.0001) DIAGNOSTICS_SET_POINTERS: Set levels for Outp.Stream: oceDiag
(PID.TID 0000.0001)  Levels:       1.   2.   3.   4.   5.   6.   7.   8.   9.  10.  11.  12.  13.  14.  15.  16.  17.  18.  19.  20.
(PID.TID 0000.0001)  Levels:      21.  22.  23.  24.  25.
(PID.TID 0000.0001) DIAGNOSTICS_SET_POINTERS: done
(PID.TID 0000.0001) ------------------------------------------------------------
(PID.TID 0000.0001) DIAGSTATS_SET_REGIONS: define no region
(PID.TID 0000.0001) ------------------------------------------------------------
(PID.TID 0000.0001) SETDIAG: Allocate  1 Levels for Stats-Diag #    23 ETAN
(PID.TID 0000.0001) SETDIAG: Allocate  1 Levels for Stats-Diag #    25 DETADT2
(PID.TID 0000.0001) SETDIAG: Allocate  1 Levels for Stats-Diag #    76 MXLDEPTH
(PID.TID 0000.0001) SETDIAG: Allocate 25 Levels for Stats-Diag #    30 UVEL
(PID.TID 0000.0001) SETDIAG: Allocate 25 Levels for Stats-Diag #    31 VVEL
(PID.TID 0000.0001) SETDIAG: Allocate 25 Levels for Stats-Diag #    32 WVEL
(PID.TID 0000.0001) SETDIAG: Allocate 25 Levels for Stats-Diag #    26 THETA
(PID.TID 0000.0001) SETDIAG: Allocate 25 Levels for Stats-Diag #    27 SALT
(PID.TID 0000.0001) SETDIAG: Allocate 25 Levels for Stats-Diag #   205 GM_PsiY
(PID.TID 0000.0001)   space allocated for all stats-diags:     153 levels
(PID.TID 0000.0001) DIAGSTATS_SET_POINTERS: done
(PID.TID 0000.0001) ------------------------------------------------------------
(PID.TID 0000.0001) DIAGSTATS_INI_IO: open file: dynStDiag.0000000000.txt , unit=     9
(PID.TID 0000.0001) %MON fCori_max                    =   1.0000000000000E-04
(PID.TID 0000.0001) %MON fCori_min                    =   1.0000000000000E-04
(PID.TID 0000.0001) %MON fCori_mean                   =   1.0000000000000E-04
(PID.TID 0000.0001) %MON fCori_sd                     =   2.7105054312138E-20
(PID.TID 0000.0001) %MON fCoriG_max                   =   1.0000000000000E-04
(PID.TID 0000.0001) %MON fCoriG_min                   =   1.0000000000000E-04
(PID.TID 0000.0001) %MON fCoriG_mean                  =   1.0000000000000E-04
(PID.TID 0000.0001) %MON fCoriG_sd                    =   2.7105054312138E-20
(PID.TID 0000.0001) %MON fCoriCos_max                 =   0.0000000000000E+00
(PID.TID 0000.0001) %MON fCoriCos_min                 =   0.0000000000000E+00
(PID.TID 0000.0001) %MON fCoriCos_mean                =   0.0000000000000E+00
(PID.TID 0000.0001) %MON fCoriCos_sd                  =   0.0000000000000E+00
(PID.TID 0000.0001) INI_CG2D: CG2D normalisation factor =  3.2127074403353547E-08
(PID.TID 0000.0001) 
(PID.TID 0000.0001) // =======================================================
(PID.TID 0000.0001) // Model configuration
(PID.TID 0000.0001) // =======================================================
(PID.TID 0000.0001) //
(PID.TID 0000.0001) // "Physical" paramters ( PARM01 in namelist )
(PID.TID 0000.0001) //
(PID.TID 0000.0001) buoyancyRelation = /* Type of relation to get Buoyancy */
(PID.TID 0000.0001)               'OCEANICP'
(PID.TID 0000.0001)     ;
(PID.TID 0000.0001) fluidIsAir   =  /* fluid major constituent is Air */
(PID.TID 0000.0001)                   F
(PID.TID 0000.0001)     ;
(PID.TID 0000.0001) fluidIsWater =  /* fluid major constituent is Water */
(PID.TID 0000.0001)                   T
(PID.TID 0000.0001)     ;
(PID.TID 0000.0001) usingPCoords =  /* use p (or p*) vertical coordinate */
(PID.TID 0000.0001)                   T
(PID.TID 0000.0001)     ;
(PID.TID 0000.0001) usingZCoords =  /* use z (or z*) vertical coordinate */
(PID.TID 0000.0001)                   F
(PID.TID 0000.0001)     ;
(PID.TID 0000.0001) tRef =   /* Reference temperature profile ( oC or K ) */
(PID.TID 0000.0001)    10 @  0.000000000000000E+00,             /* K =  1: 10 */
(PID.TID 0000.0001)                 1.500000000000000E+01,      /* K = 11 */
(PID.TID 0000.0001)                 1.600000000000000E+01,      /* K = 12 */
(PID.TID 0000.0001)                 1.700000000000000E+01,      /* K = 13 */
(PID.TID 0000.0001)                 1.800000000000000E+01,      /* K = 14 */
(PID.TID 0000.0001)                 1.900000000000000E+01,      /* K = 15 */
(PID.TID 0000.0001)                 2.000000000000000E+01,      /* K = 16 */
(PID.TID 0000.0001)                 2.100000000000000E+01,      /* K = 17 */
(PID.TID 0000.0001)                 2.200000000000000E+01,      /* K = 18 */
(PID.TID 0000.0001)                 2.300000000000000E+01,      /* K = 19 */
(PID.TID 0000.0001)                 2.400000000000000E+01,      /* K = 20 */
(PID.TID 0000.0001)                 2.500000000000000E+01,      /* K = 21 */
(PID.TID 0000.0001)                 2.600000000000000E+01,      /* K = 22 */
(PID.TID 0000.0001)                 2.700000000000000E+01,      /* K = 23 */
(PID.TID 0000.0001)                 2.800000000000000E+01,      /* K = 24 */
(PID.TID 0000.0001)                 2.900000000000000E+01       /* K = 25 */
(PID.TID 0000.0001)     ;
(PID.TID 0000.0001) sRef =   /* Reference salinity profile ( g/kg ) */
(PID.TID 0000.0001)    25 @  3.000000000000000E+01              /* K =  1: 25 */
(PID.TID 0000.0001)     ;
(PID.TID 0000.0001) useStrainTensionVisc= /* Use StrainTension Form of Viscous Operator */
(PID.TID 0000.0001)                   F
(PID.TID 0000.0001)     ;
(PID.TID 0000.0001) useVariableVisc = /* Use variable horizontal viscosity */
(PID.TID 0000.0001)                   F
(PID.TID 0000.0001)     ;
(PID.TID 0000.0001) useHarmonicVisc = /* Use harmonic horizontal viscosity */
(PID.TID 0000.0001)                   T
(PID.TID 0000.0001)     ;
(PID.TID 0000.0001) useBiharmonicVisc= /* Use biharmonic horiz.  viscosity */
(PID.TID 0000.0001)                   F
(PID.TID 0000.0001)     ;
(PID.TID 0000.0001) useSmag3D = /* Use isotropic 3-D Smagorinsky viscosity */
(PID.TID 0000.0001)                   F
(PID.TID 0000.0001)     ;
(PID.TID 0000.0001) viscAh  =   /* Lateral harmonic viscosity ( m^2/s ) */
(PID.TID 0000.0001)                 3.000000000000000E+02
(PID.TID 0000.0001)     ;
(PID.TID 0000.0001) viscA4  =   /* Lateral biharmonic viscosity ( m^4/s ) */
(PID.TID 0000.0001)                 0.000000000000000E+00
(PID.TID 0000.0001)     ;
(PID.TID 0000.0001) no_slip_sides =  /* Viscous BCs: No-slip sides */
(PID.TID 0000.0001)                   F
(PID.TID 0000.0001)     ;
(PID.TID 0000.0001) sideDragFactor = /* side-drag scaling factor (non-dim) */
(PID.TID 0000.0001)                 2.000000000000000E+00
(PID.TID 0000.0001)     ;
(PID.TID 0000.0001) viscArNr = /* vertical profile of vertical viscosity (Pa^2/s )*/
(PID.TID 0000.0001)    25 @  2.000000000000000E+04              /* K =  1: 25 */
(PID.TID 0000.0001)     ;
(PID.TID 0000.0001) no_slip_bottom =  /* Viscous BCs: No-slip bottom */
(PID.TID 0000.0001)                   F
(PID.TID 0000.0001)     ;
(PID.TID 0000.0001) bottomVisc_pCell = /* Partial-cell in bottom Visc. BC */
(PID.TID 0000.0001)                   F
(PID.TID 0000.0001)     ;
(PID.TID 0000.0001) bottomDragLinear = /* linear bottom-drag coefficient ( m/s ) */
(PID.TID 0000.0001)                 0.000000000000000E+00
(PID.TID 0000.0001)     ;
(PID.TID 0000.0001) bottomDragQuadratic = /* quadratic bottom-drag coefficient (-) */
(PID.TID 0000.0001)                 0.000000000000000E+00
(PID.TID 0000.0001)     ;
(PID.TID 0000.0001) selectBotDragQuadr = /* select quadratic bottom drag options */
(PID.TID 0000.0001)                      -1
(PID.TID 0000.0001)     ;
(PID.TID 0000.0001) diffKhT =   /* Laplacian diffusion of heat laterally ( m^2/s ) */
(PID.TID 0000.0001)                 0.000000000000000E+00
(PID.TID 0000.0001)     ;
(PID.TID 0000.0001) diffK4T =   /* Biharmonic diffusion of heat laterally ( m^4/s ) */
(PID.TID 0000.0001)                 0.000000000000000E+00
(PID.TID 0000.0001)     ;
(PID.TID 0000.0001) diffKhS =   /* Laplacian diffusion of salt laterally ( m^2/s ) */
(PID.TID 0000.0001)                 0.000000000000000E+00
(PID.TID 0000.0001)     ;
(PID.TID 0000.0001) diffK4S =   /* Biharmonic diffusion of salt laterally ( m^4/s ) */
(PID.TID 0000.0001)                 0.000000000000000E+00
(PID.TID 0000.0001)     ;
(PID.TID 0000.0001) diffKrNrT = /* vertical profile of vertical diffusion of Temp (Pa^2/s )*/
(PID.TID 0000.0001)    25 @  3.000000000000000E+03              /* K =  1: 25 */
(PID.TID 0000.0001)     ;
(PID.TID 0000.0001) diffKrNrS = /* vertical profile of vertical diffusion of Salt (Pa^2/s )*/
(PID.TID 0000.0001)    25 @  3.000000000000000E+03              /* K =  1: 25 */
(PID.TID 0000.0001)     ;
(PID.TID 0000.0001) diffKrBL79surf = /* Surface diffusion for Bryan and Lewis 79 ( m^2/s ) */
(PID.TID 0000.0001)                 0.000000000000000E+00
(PID.TID 0000.0001)     ;
(PID.TID 0000.0001) diffKrBL79deep = /* Deep diffusion for Bryan and Lewis 1979 ( m^2/s ) */
(PID.TID 0000.0001)                 0.000000000000000E+00
(PID.TID 0000.0001)     ;
(PID.TID 0000.0001) diffKrBL79scl = /* Depth scale for Bryan and Lewis 1979 ( m ) */
(PID.TID 0000.0001)                 2.000000000000000E+02
(PID.TID 0000.0001)     ;
(PID.TID 0000.0001) diffKrBL79Ho = /* Turning depth for Bryan and Lewis 1979 ( m ) */
(PID.TID 0000.0001)                -2.000000000000000E+03
(PID.TID 0000.0001)     ;
(PID.TID 0000.0001) ivdc_kappa = /* Implicit Vertical Diffusivity for Convection (Pa^2/s) */
(PID.TID 0000.0001)                 0.000000000000000E+00
(PID.TID 0000.0001)     ;
(PID.TID 0000.0001) hMixCriteria=  /* Criteria for mixed-layer diagnostic */
(PID.TID 0000.0001)                -8.000000000000000E-01
(PID.TID 0000.0001)     ;
(PID.TID 0000.0001) dRhoSmall =  /* Parameter for mixed-layer diagnostic */
(PID.TID 0000.0001)                 1.000000000000000E-06
(PID.TID 0000.0001)     ;
(PID.TID 0000.0001) hMixSmooth=  /* Smoothing parameter for mixed-layer diagnostic */
(PID.TID 0000.0001)                 0.000000000000000E+00
(PID.TID 0000.0001)     ;
(PID.TID 0000.0001) eosType =  /* Type of Equation of State */
(PID.TID 0000.0001)               'LINEAR'
(PID.TID 0000.0001)     ;
(PID.TID 0000.0001) tAlpha = /* Linear EOS thermal expansion coefficient ( 1/oC ) */
(PID.TID 0000.0001)                 2.000000000000000E-04
(PID.TID 0000.0001)     ;
(PID.TID 0000.0001) sBeta  = /* Linear EOS haline contraction coefficient ( 1/(g/kg) ) */
(PID.TID 0000.0001)                 0.000000000000000E+00
(PID.TID 0000.0001)     ;
(PID.TID 0000.0001) rhoNil    = /* Reference density for Linear EOS ( kg/m^3 ) */
(PID.TID 0000.0001)                 1.000000000000000E+03
(PID.TID 0000.0001)     ;
(PID.TID 0000.0001) surf_pRef = /* Surface reference pressure ( Pa ) */
(PID.TID 0000.0001)                 1.013250000000000E+05
(PID.TID 0000.0001)     ;
(PID.TID 0000.0001) HeatCapacity_Cp =  /* Specific heat capacity ( J/kg/K ) */
(PID.TID 0000.0001)                 3.994000000000000E+03
(PID.TID 0000.0001)     ;
(PID.TID 0000.0001) celsius2K = /* 0 degree Celsius converted to Kelvin ( K ) */
(PID.TID 0000.0001)                 2.731500000000000E+02
(PID.TID 0000.0001)     ;
(PID.TID 0000.0001) rhoConst  = /* Reference density (Boussinesq)  ( kg/m^3 ) */
(PID.TID 0000.0001)                 1.000000000000000E+03
(PID.TID 0000.0001)     ;
(PID.TID 0000.0001) rhoFacC = /* normalized Reference density @ cell-Center (-) */
(PID.TID 0000.0001)    25 @  1.000000000000000E+00              /* K =  1: 25 */
(PID.TID 0000.0001)     ;
(PID.TID 0000.0001) rhoFacF = /* normalized Reference density @ W-Interface (-) */
(PID.TID 0000.0001)    26 @  1.000000000000000E+00              /* K =  1: 26 */
(PID.TID 0000.0001)     ;
(PID.TID 0000.0001) rhoConstFresh = /* Fresh-water reference density ( kg/m^3 ) */
(PID.TID 0000.0001)                 1.000000000000000E+03
(PID.TID 0000.0001)     ;
(PID.TID 0000.0001) gravity =   /* Gravitational acceleration ( m/s^2 ) */
(PID.TID 0000.0001)                 1.000000000000000E+01
(PID.TID 0000.0001)     ;
(PID.TID 0000.0001) gBaro =   /* Barotropic gravity ( m/s^2 ) */
(PID.TID 0000.0001)                 1.000000000000000E+01
(PID.TID 0000.0001)     ;
(PID.TID 0000.0001) gravFacC = /* gravity factor (vs surf.) @ cell-Center (-) */
(PID.TID 0000.0001)    25 @  1.000000000000000E+00              /* K =  1: 25 */
(PID.TID 0000.0001)     ;
(PID.TID 0000.0001) gravFacF = /* gravity factor (vs surf.) @ W-Interface (-) */
(PID.TID 0000.0001)    26 @  1.000000000000000E+00              /* K =  1: 26 */
(PID.TID 0000.0001)     ;
(PID.TID 0000.0001) rotationPeriod =   /* Rotation Period ( s ) */
(PID.TID 0000.0001)                 8.616400000000000E+04
(PID.TID 0000.0001)     ;
(PID.TID 0000.0001) omega =   /* Angular velocity ( rad/s ) */
(PID.TID 0000.0001)                 7.292123516990375E-05
(PID.TID 0000.0001)     ;
(PID.TID 0000.0001) f0 =   /* Reference coriolis parameter ( 1/s ) */
(PID.TID 0000.0001)                 1.000000000000000E-04
(PID.TID 0000.0001)     ;
(PID.TID 0000.0001) beta =   /* Beta ( 1/(m.s) ) */
(PID.TID 0000.0001)                 0.000000000000000E+00
(PID.TID 0000.0001)     ;
(PID.TID 0000.0001) fPrime =   /* Second coriolis parameter ( 1/s ) */
(PID.TID 0000.0001)                 0.000000000000000E+00
(PID.TID 0000.0001)     ;
(PID.TID 0000.0001) rigidLid =   /* Rigid lid on/off flag */
(PID.TID 0000.0001)                   F
(PID.TID 0000.0001)     ;
(PID.TID 0000.0001) implicitFreeSurface =   /* Implicit free surface on/off flag */
(PID.TID 0000.0001)                   T
(PID.TID 0000.0001)     ;
(PID.TID 0000.0001) freeSurfFac =   /* Implicit free surface factor */
(PID.TID 0000.0001)                 1.000000000000000E+00
(PID.TID 0000.0001)     ;
(PID.TID 0000.0001) implicSurfPress =  /* Surface Pressure implicit factor (0-1) */
(PID.TID 0000.0001)                 1.000000000000000E+00
(PID.TID 0000.0001)     ;
(PID.TID 0000.0001) implicDiv2DFlow =  /* Barot. Flow Div. implicit factor (0-1) */
(PID.TID 0000.0001)                 1.000000000000000E+00
(PID.TID 0000.0001)     ;
(PID.TID 0000.0001) uniformLin_PhiSurf = /* use uniform Bo_surf on/off flag */
(PID.TID 0000.0001)                   T
(PID.TID 0000.0001)     ;
(PID.TID 0000.0001) uniformFreeSurfLev = /* free-surface level-index is uniform */
(PID.TID 0000.0001)                   F
(PID.TID 0000.0001)     ;
(PID.TID 0000.0001) sIceLoadFac =  /* scale factor for sIceLoad (0-1) */
(PID.TID 0000.0001)                 1.000000000000000E+00
(PID.TID 0000.0001)     ;
(PID.TID 0000.0001) hFacMin =   /* minimum partial cell factor (hFac) */
(PID.TID 0000.0001)                 1.000000000000000E+00
(PID.TID 0000.0001)     ;
(PID.TID 0000.0001) hFacMinDr = /* minimum partial cell thickness (Pa) */
(PID.TID 0000.0001)                 0.000000000000000E+00
(PID.TID 0000.0001)     ;
(PID.TID 0000.0001) exactConserv =  /* Exact Volume Conservation on/off flag */
(PID.TID 0000.0001)                   T
(PID.TID 0000.0001)     ;
(PID.TID 0000.0001) linFSConserveTr = /* Tracer correction for Lin Free Surface on/off flag */
(PID.TID 0000.0001)                   F
(PID.TID 0000.0001)     ;
(PID.TID 0000.0001) nonlinFreeSurf = /* Non-linear Free Surf. options (-1,0,1,2,3)*/
(PID.TID 0000.0001)                       0
(PID.TID 0000.0001)      -1,0= Off ; 1,2,3= On, 2=+rescale gU,gV, 3=+update cg2d solv.
(PID.TID 0000.0001)     ;
(PID.TID 0000.0001) hFacInf =   /* lower threshold for hFac (nonlinFreeSurf only)*/
(PID.TID 0000.0001)                 2.000000000000000E-01
(PID.TID 0000.0001)     ;
(PID.TID 0000.0001) hFacSup =   /* upper threshold for hFac (nonlinFreeSurf only)*/
(PID.TID 0000.0001)                 2.000000000000000E+00
(PID.TID 0000.0001)     ;
(PID.TID 0000.0001) select_rStar = /* r* Vertical coord. options (=0 r coord.; >0 uses r*)*/
(PID.TID 0000.0001)                       0
(PID.TID 0000.0001)     ;
(PID.TID 0000.0001) useRealFreshWaterFlux = /* Real Fresh Water Flux on/off flag*/
(PID.TID 0000.0001)                   F
(PID.TID 0000.0001)     ;
(PID.TID 0000.0001) temp_EvPrRn = /* Temp. of Evap/Prec/R (UNSET=use local T)(oC)*/
(PID.TID 0000.0001)                 1.234567000000000E+05
(PID.TID 0000.0001)     ;
(PID.TID 0000.0001) salt_EvPrRn = /* Salin. of Evap/Prec/R (UNSET=use local S)(g/kg)*/
(PID.TID 0000.0001)                 0.000000000000000E+00
(PID.TID 0000.0001)     ;
(PID.TID 0000.0001) selectAddFluid = /* option for mass source/sink of fluid (=0: off) */
(PID.TID 0000.0001)                       0
(PID.TID 0000.0001)     ;
(PID.TID 0000.0001) temp_addMass = /* Temp. of addMass array (UNSET=use local T)(oC)*/
(PID.TID 0000.0001)                 1.234567000000000E+05
(PID.TID 0000.0001)     ;
(PID.TID 0000.0001) salt_addMass = /* Salin. of addMass array (UNSET=use local S)(g/kg)*/
(PID.TID 0000.0001)                 0.000000000000000E+00
(PID.TID 0000.0001)     ;
(PID.TID 0000.0001) convertFW2Salt = /* convert F.W. Flux to Salt Flux (-1=use local S)(g/kg)*/
(PID.TID 0000.0001)                 3.500000000000000E+01
(PID.TID 0000.0001)     ;
(PID.TID 0000.0001) use3Dsolver = /* use 3-D pressure solver on/off flag */
(PID.TID 0000.0001)                   F
(PID.TID 0000.0001)     ;
(PID.TID 0000.0001) nonHydrostatic =  /* Non-Hydrostatic on/off flag */
(PID.TID 0000.0001)                   F
(PID.TID 0000.0001)     ;
(PID.TID 0000.0001) nh_Am2 = /* Non-Hydrostatic terms scaling factor */
(PID.TID 0000.0001)                 1.000000000000000E+00
(PID.TID 0000.0001)     ;
(PID.TID 0000.0001) implicitNHPress = /* Non-Hyd Pressure implicit factor (0-1)*/
(PID.TID 0000.0001)                 1.000000000000000E+00
(PID.TID 0000.0001)     ;
(PID.TID 0000.0001) selectNHfreeSurf = /* Non-Hyd (free-)Surface option */
(PID.TID 0000.0001)                       0
(PID.TID 0000.0001)     ;
(PID.TID 0000.0001) quasiHydrostatic = /* Quasi-Hydrostatic on/off flag */
(PID.TID 0000.0001)                   F
(PID.TID 0000.0001)     ;
(PID.TID 0000.0001) calc_wVelocity = /* vertical velocity calculation on/off flag */
(PID.TID 0000.0001)                   T
(PID.TID 0000.0001)     ;
(PID.TID 0000.0001) momStepping =  /* Momentum equation on/off flag */
(PID.TID 0000.0001)                   T
(PID.TID 0000.0001)     ;
(PID.TID 0000.0001) vectorInvariantMomentum= /* Vector-Invariant Momentum on/off */
(PID.TID 0000.0001)                   F
(PID.TID 0000.0001)     ;
(PID.TID 0000.0001) momAdvection =  /* Momentum advection on/off flag */
(PID.TID 0000.0001)                   T
(PID.TID 0000.0001)     ;
(PID.TID 0000.0001) momViscosity =  /* Momentum viscosity on/off flag */
(PID.TID 0000.0001)                   T
(PID.TID 0000.0001)     ;
(PID.TID 0000.0001) momImplVertAdv= /* Momentum implicit vert. advection on/off*/
(PID.TID 0000.0001)                   F
(PID.TID 0000.0001)     ;
(PID.TID 0000.0001) implicitViscosity = /* Implicit viscosity on/off flag */
(PID.TID 0000.0001)                   F
(PID.TID 0000.0001)     ;
(PID.TID 0000.0001) selectImplicitDrag= /* Implicit bot Drag options (0,1,2)*/
(PID.TID 0000.0001)                       0
(PID.TID 0000.0001)     0= Expl. ; 1= Impl. on provis. Vel ; 2= Fully Impl (with surf.P)
(PID.TID 0000.0001)     ;
(PID.TID 0000.0001) metricTerms =  /* metric-Terms on/off flag */
(PID.TID 0000.0001)                   F
(PID.TID 0000.0001)     ;
(PID.TID 0000.0001) useNHMTerms = /* Non-Hydrostatic Metric-Terms on/off */
(PID.TID 0000.0001)                   F
(PID.TID 0000.0001)     ;
(PID.TID 0000.0001) selectCoriMap = /* Coriolis Map options (0,1,2,3)*/
(PID.TID 0000.0001)                       1
(PID.TID 0000.0001)     0= f-Plane ; 1= Beta-Plane ; 2= Spherical ; 3= read from file
(PID.TID 0000.0001)     ;
(PID.TID 0000.0001) use3dCoriolis = /* 3-D Coriolis on/off flag */
(PID.TID 0000.0001)                   F
(PID.TID 0000.0001)     ;
(PID.TID 0000.0001) useCoriolis =  /* Coriolis on/off flag */
(PID.TID 0000.0001)                   T
(PID.TID 0000.0001)     ;
(PID.TID 0000.0001) useCDscheme =  /* CD scheme on/off flag */
(PID.TID 0000.0001)                   F
(PID.TID 0000.0001)     ;
(PID.TID 0000.0001) selectCoriScheme= /* Scheme selector for Coriolis-Term */
(PID.TID 0000.0001)                       1
(PID.TID 0000.0001)    = 0 : original discretization (simple averaging, no hFac)
(PID.TID 0000.0001)    = 1 : Wet-point averaging (Jamar & Ozer 1986)
(PID.TID 0000.0001)    = 2 : energy conserving scheme (no hFac weight)
(PID.TID 0000.0001)    = 3 : energy conserving scheme using Wet-point averaging
(PID.TID 0000.0001)     ;
(PID.TID 0000.0001) momForcing =  /* Momentum forcing on/off flag */
(PID.TID 0000.0001)                   T
(PID.TID 0000.0001)     ;
(PID.TID 0000.0001) momTidalForcing = /* Momentum Tidal forcing on/off flag */
(PID.TID 0000.0001)                   T
(PID.TID 0000.0001)     ;
(PID.TID 0000.0001) momPressureForcing =  /* Momentum pressure term on/off flag */
(PID.TID 0000.0001)                   T
(PID.TID 0000.0001)     ;
(PID.TID 0000.0001) implicitIntGravWave= /* Implicit Internal Gravity Wave flag */
(PID.TID 0000.0001)                   F
(PID.TID 0000.0001)     ;
(PID.TID 0000.0001) staggerTimeStep =    /* Stagger time stepping on/off flag */
(PID.TID 0000.0001)                   T
(PID.TID 0000.0001)     ;
(PID.TID 0000.0001) doResetHFactors = /* reset thickness factors @ each time-step */
(PID.TID 0000.0001)                   F
(PID.TID 0000.0001)     ;
(PID.TID 0000.0001) multiDimAdvection =  /* enable/disable Multi-Dim Advection */
(PID.TID 0000.0001)                   T
(PID.TID 0000.0001)     ;
(PID.TID 0000.0001) useMultiDimAdvec =   /* Multi-Dim Advection is/is-not used */
(PID.TID 0000.0001)                   T
(PID.TID 0000.0001)     ;
(PID.TID 0000.0001) implicitDiffusion = /* Implicit Diffusion on/off flag */
(PID.TID 0000.0001)                   T
(PID.TID 0000.0001)     ;
(PID.TID 0000.0001) tempStepping =  /* Temperature equation on/off flag */
(PID.TID 0000.0001)                   T
(PID.TID 0000.0001)     ;
(PID.TID 0000.0001) tempAdvection = /* Temperature advection on/off flag */
(PID.TID 0000.0001)                   T
(PID.TID 0000.0001)     ;
(PID.TID 0000.0001) tempImplVertAdv = /* Temp. implicit vert. advection on/off */
(PID.TID 0000.0001)                   F
(PID.TID 0000.0001)     ;
(PID.TID 0000.0001) tempForcing  =  /* Temperature forcing on/off flag */
(PID.TID 0000.0001)                   T
(PID.TID 0000.0001)     ;
(PID.TID 0000.0001) doThetaClimRelax = /* apply SST relaxation on/off flag */
(PID.TID 0000.0001)                   F
(PID.TID 0000.0001)     ;
(PID.TID 0000.0001) tempIsActiveTr = /* Temp. is a dynamically Active Tracer */
(PID.TID 0000.0001)                   T
(PID.TID 0000.0001)     ;
(PID.TID 0000.0001) saltStepping =  /* Salinity equation on/off flag */
(PID.TID 0000.0001)                   T
(PID.TID 0000.0001)     ;
(PID.TID 0000.0001) saltAdvection = /* Salinity advection on/off flag */
(PID.TID 0000.0001)                   T
(PID.TID 0000.0001)     ;
(PID.TID 0000.0001) saltImplVertAdv = /* Sali. implicit vert. advection on/off */
(PID.TID 0000.0001)                   F
(PID.TID 0000.0001)     ;
(PID.TID 0000.0001) saltForcing  =  /* Salinity forcing on/off flag */
(PID.TID 0000.0001)                   T
(PID.TID 0000.0001)     ;
(PID.TID 0000.0001) doSaltClimRelax = /* apply SSS relaxation on/off flag */
(PID.TID 0000.0001)                   F
(PID.TID 0000.0001)     ;
(PID.TID 0000.0001) saltIsActiveTr = /* Salt  is a dynamically Active Tracer */
(PID.TID 0000.0001)                   F
(PID.TID 0000.0001)     ;
(PID.TID 0000.0001)  readBinaryPrec = /* Precision used for reading binary files */
(PID.TID 0000.0001)                      64
(PID.TID 0000.0001)     ;
(PID.TID 0000.0001) writeBinaryPrec = /* Precision used for writing binary files */
(PID.TID 0000.0001)                      64
(PID.TID 0000.0001)     ;
(PID.TID 0000.0001)  rwSuffixType =   /* select format of mds file suffix */
(PID.TID 0000.0001)                       0
(PID.TID 0000.0001)    = 0 : myIter (I10.10) ;   = 1 : 100*myTime (100th sec) ;
(PID.TID 0000.0001)    = 2 : myTime (seconds);   = 3 : myTime/360 (10th of hr);
(PID.TID 0000.0001)    = 4 : myTime/3600 (hours)
(PID.TID 0000.0001)     ;
(PID.TID 0000.0001)  globalFiles = /* write "global" (=not per tile) files */
(PID.TID 0000.0001)                   T
(PID.TID 0000.0001)     ;
(PID.TID 0000.0001)  useSingleCpuIO = /* only master MPI process does I/O */
(PID.TID 0000.0001)                   F
(PID.TID 0000.0001)     ;
(PID.TID 0000.0001)  useSingleCpuInput = /* only master process reads input */
(PID.TID 0000.0001)                   F
(PID.TID 0000.0001)     ;
(PID.TID 0000.0001) /* debLev[*]  : level of debug & auxiliary message printing */
(PID.TID 0000.0001) debLevZero =  0 ; /* level of disabled aux. msg printing */
(PID.TID 0000.0001)    debLevA =  1 ; /* level of minimum  aux. msg printing */
(PID.TID 0000.0001)    debLevB =  2 ; /* level of low aux. print (report read-file opening)*/
(PID.TID 0000.0001)    debLevC =  3 ; /* level of moderate debug prt (most pkgs debug msg) */
(PID.TID 0000.0001)    debLevD =  4 ; /* level of enhanced debug prt (add DEBUG_STATS prt) */
(PID.TID 0000.0001)    debLevE =  5 ; /* level of extensive debug printing */
(PID.TID 0000.0001) debugLevel =  /* select debug printing level */
(PID.TID 0000.0001)                       2
(PID.TID 0000.0001)     ;
(PID.TID 0000.0001)  plotLevel =  /* select PLOT_FIELD printing level */
(PID.TID 0000.0001)                       0
(PID.TID 0000.0001)     ;
(PID.TID 0000.0001) //
(PID.TID 0000.0001) // Elliptic solver(s) paramters ( PARM02 in namelist )
(PID.TID 0000.0001) //
(PID.TID 0000.0001) cg2dMaxIters =   /* Upper limit on 2d con. grad iterations  */
(PID.TID 0000.0001)                    1000
(PID.TID 0000.0001)     ;
(PID.TID 0000.0001) cg2dMinItersNSA =   /* Minimum number of iterations of 2d con. grad solver  */
(PID.TID 0000.0001)                       0
(PID.TID 0000.0001)     ;
(PID.TID 0000.0001) cg2dUseMinResSol= /* use cg2d last-iter(=0) / min-resid.(=1) solution */
(PID.TID 0000.0001)                       0
(PID.TID 0000.0001)     ;
(PID.TID 0000.0001) cg2dTargetResidual =   /* 2d con. grad target residual  */
(PID.TID 0000.0001)                 1.000000000000000E-13
(PID.TID 0000.0001)     ;
(PID.TID 0000.0001) cg2dTargetResWunit =   /* CG2d target residual [W units] */
(PID.TID 0000.0001)                -1.000000000000000E+00
(PID.TID 0000.0001)     ;
(PID.TID 0000.0001) cg2dPreCondFreq =   /* Freq. for updating cg2d preconditioner */
(PID.TID 0000.0001)                       1
(PID.TID 0000.0001)     ;
(PID.TID 0000.0001) useSRCGSolver =  /* use single reduction CG solver(s) */
(PID.TID 0000.0001)                   F
(PID.TID 0000.0001)     ;
(PID.TID 0000.0001) useNSACGSolver =  /* use not-self-adjoint CG solver */
(PID.TID 0000.0001)                   F
(PID.TID 0000.0001)     ;
(PID.TID 0000.0001) printResidualFreq = /* Freq. for printing CG residual */
(PID.TID 0000.0001)                       0
(PID.TID 0000.0001)     ;
(PID.TID 0000.0001) //
(PID.TID 0000.0001) // Time stepping paramters ( PARM03 in namelist )
(PID.TID 0000.0001) //
(PID.TID 0000.0001) deltaTMom =   /* Momentum equation timestep ( s ) */
(PID.TID 0000.0001)                 1.800000000000000E+03
(PID.TID 0000.0001)     ;
(PID.TID 0000.0001) deltaTFreeSurf = /* FreeSurface equation timestep ( s ) */
(PID.TID 0000.0001)                 1.800000000000000E+03
(PID.TID 0000.0001)     ;
(PID.TID 0000.0001) dTtracerLev =  /* Tracer equation timestep ( s ) */
(PID.TID 0000.0001)    25 @  1.800000000000000E+03              /* K =  1: 25 */
(PID.TID 0000.0001)     ;
(PID.TID 0000.0001) deltaTClock  =   /* Model clock timestep ( s ) */
(PID.TID 0000.0001)                 1.800000000000000E+03
(PID.TID 0000.0001)     ;
(PID.TID 0000.0001) cAdjFreq =   /* Convective adjustment interval ( s ) */
(PID.TID 0000.0001)                 0.000000000000000E+00
(PID.TID 0000.0001)     ;
(PID.TID 0000.0001) momForcingOutAB = /* =1: take Momentum Forcing out of Adams-Bash. stepping */
(PID.TID 0000.0001)                       0
(PID.TID 0000.0001)     ;
(PID.TID 0000.0001) tracForcingOutAB = /* =1: take T,S,pTr Forcing out of Adams-Bash. stepping */
(PID.TID 0000.0001)                       0
(PID.TID 0000.0001)     ;
(PID.TID 0000.0001) momDissip_In_AB = /* put Dissipation Tendency in Adams-Bash. stepping */
(PID.TID 0000.0001)                   F
(PID.TID 0000.0001)     ;
(PID.TID 0000.0001) doAB_onGtGs = /* apply AB on Tendencies (rather than on T,S)*/
(PID.TID 0000.0001)                   T
(PID.TID 0000.0001)     ;
(PID.TID 0000.0001) abEps =   /* Adams-Bashforth-2 stabilizing weight */
(PID.TID 0000.0001)                 1.000000000000000E-01
(PID.TID 0000.0001)     ;
(PID.TID 0000.0001) applyExchUV_early = /* Apply EXCH to U,V earlier in time-step */
(PID.TID 0000.0001)                   F
(PID.TID 0000.0001)     ;
(PID.TID 0000.0001) pickupStrictlyMatch= /* stop if pickup do not strictly match */
(PID.TID 0000.0001)                   T
(PID.TID 0000.0001)     ;
(PID.TID 0000.0001) nIter0   =   /* Run starting timestep number */
(PID.TID 0000.0001)                       0
(PID.TID 0000.0001)     ;
(PID.TID 0000.0001) nTimeSteps = /* Number of timesteps */
(PID.TID 0000.0001)                      20
(PID.TID 0000.0001)     ;
(PID.TID 0000.0001) nEndIter =   /* Run ending timestep number */
(PID.TID 0000.0001)                      20
(PID.TID 0000.0001)     ;
(PID.TID 0000.0001) baseTime =   /* Model base time ( s ) */
(PID.TID 0000.0001)                 0.000000000000000E+00
(PID.TID 0000.0001)     ;
(PID.TID 0000.0001) startTime =  /* Run start time ( s ) */
(PID.TID 0000.0001)                 0.000000000000000E+00
(PID.TID 0000.0001)     ;
(PID.TID 0000.0001) endTime  =   /* Integration ending time ( s ) */
(PID.TID 0000.0001)                 3.600000000000000E+04
(PID.TID 0000.0001)     ;
(PID.TID 0000.0001) pChkPtFreq = /* Permanent restart/pickup file interval ( s ) */
(PID.TID 0000.0001)                 0.000000000000000E+00
(PID.TID 0000.0001)     ;
(PID.TID 0000.0001) chkPtFreq  = /* Rolling restart/pickup file interval ( s ) */
(PID.TID 0000.0001)                 0.000000000000000E+00
(PID.TID 0000.0001)     ;
(PID.TID 0000.0001) pickup_write_mdsio =   /* Model IO flag. */
(PID.TID 0000.0001)                   T
(PID.TID 0000.0001)     ;
(PID.TID 0000.0001) pickup_read_mdsio =   /* Model IO flag. */
(PID.TID 0000.0001)                   T
(PID.TID 0000.0001)     ;
(PID.TID 0000.0001) writePickupAtEnd =   /* Model IO flag. */
(PID.TID 0000.0001)                   T
(PID.TID 0000.0001)     ;
(PID.TID 0000.0001) dumpFreq =   /* Model state write out interval ( s ). */
(PID.TID 0000.0001)                 8.640000000000000E+05
(PID.TID 0000.0001)     ;
(PID.TID 0000.0001) dumpInitAndLast= /* write out Initial & Last iter. model state */
(PID.TID 0000.0001)                   T
(PID.TID 0000.0001)     ;
(PID.TID 0000.0001) snapshot_mdsio =   /* Model IO flag. */
(PID.TID 0000.0001)                   T
(PID.TID 0000.0001)     ;
(PID.TID 0000.0001) monitorFreq =   /* Monitor output interval ( s ). */
(PID.TID 0000.0001)                 1.000000000000000E+00
(PID.TID 0000.0001)     ;
(PID.TID 0000.0001) monitorSelect = /* select group of variables to monitor */
(PID.TID 0000.0001)                       1
(PID.TID 0000.0001)     ;
(PID.TID 0000.0001) monitor_stdio =   /* Model IO flag. */
(PID.TID 0000.0001)                   T
(PID.TID 0000.0001)     ;
(PID.TID 0000.0001) externForcingPeriod =   /* forcing period (s) */
(PID.TID 0000.0001)                 0.000000000000000E+00
(PID.TID 0000.0001)     ;
(PID.TID 0000.0001) externForcingCycle =   /* period of the cyle (s). */
(PID.TID 0000.0001)                 0.000000000000000E+00
(PID.TID 0000.0001)     ;
(PID.TID 0000.0001) tauThetaClimRelax =   /* relaxation time scale (s) */
(PID.TID 0000.0001)                 0.000000000000000E+00
(PID.TID 0000.0001)     ;
(PID.TID 0000.0001) tauSaltClimRelax =   /* relaxation time scale (s) */
(PID.TID 0000.0001)                 0.000000000000000E+00
(PID.TID 0000.0001)     ;
(PID.TID 0000.0001) latBandClimRelax =   /* max. Lat. where relaxation */
(PID.TID 0000.0001)                 9.636774464936643E+05
(PID.TID 0000.0001)     ;
(PID.TID 0000.0001) //
(PID.TID 0000.0001) // Gridding paramters ( PARM04 in namelist )
(PID.TID 0000.0001) //
(PID.TID 0000.0001) usingCartesianGrid = /* Cartesian coordinates flag ( True/False ) */
(PID.TID 0000.0001)                   T
(PID.TID 0000.0001)     ;
(PID.TID 0000.0001) usingCylindricalGrid = /* Cylindrical coordinates flag ( True/False ) */
(PID.TID 0000.0001)                   F
(PID.TID 0000.0001)     ;
(PID.TID 0000.0001) usingSphericalPolarGrid = /* Spherical coordinates flag ( True/False ) */
(PID.TID 0000.0001)                   F
(PID.TID 0000.0001)     ;
(PID.TID 0000.0001) usingCurvilinearGrid = /* Curvilinear coordinates flag ( True/False ) */
(PID.TID 0000.0001)                   F
(PID.TID 0000.0001)     ;
(PID.TID 0000.0001) useMin4hFacEdges = /* set hFacW,S as minimum of adjacent hFacC factor */
(PID.TID 0000.0001)                   F
(PID.TID 0000.0001)     ;
(PID.TID 0000.0001) interViscAr_pCell = /* account for partial-cell in interior vert. viscosity */
(PID.TID 0000.0001)                   F
(PID.TID 0000.0001)     ;
(PID.TID 0000.0001) interDiffKr_pCell = /* account for partial-cell in interior vert. diffusion */
(PID.TID 0000.0001)                   F
(PID.TID 0000.0001)     ;
(PID.TID 0000.0001) pCellMix_select = /* option to enhance mixing near surface & bottom */
(PID.TID 0000.0001)                       0
(PID.TID 0000.0001)     ;
(PID.TID 0000.0001) selectSigmaCoord = /* Hybrid-Sigma Vert. Coordinate option */
(PID.TID 0000.0001)                       0
(PID.TID 0000.0001)     ;
(PID.TID 0000.0001) rSigmaBnd = /* r/sigma transition ( units of r == Pa ) */
(PID.TID 0000.0001)                 1.234567000000000E+05
(PID.TID 0000.0001)     ;
(PID.TID 0000.0001) rkSign =   /* index orientation relative to vertical coordinate */
(PID.TID 0000.0001)                -1.000000000000000E+00
(PID.TID 0000.0001)     ;
(PID.TID 0000.0001) gravitySign = /* gravity orientation relative to vertical coordinate */
(PID.TID 0000.0001)                 1.000000000000000E+00
(PID.TID 0000.0001)     ;
(PID.TID 0000.0001) seaLev_Z =  /* reference height of sea-level [m] */
(PID.TID 0000.0001)                 0.000000000000000E+00
(PID.TID 0000.0001)     ;
(PID.TID 0000.0001) top_Pres =  /* pressure at the top (r-axis origin) [Pa] */
(PID.TID 0000.0001)                 0.000000000000000E+00
(PID.TID 0000.0001)     ;
(PID.TID 0000.0001) mass2rUnit = /* convert mass per unit area [kg/m2] to r-units [Pa] */
(PID.TID 0000.0001)                 1.000000000000000E+01
(PID.TID 0000.0001)     ;
(PID.TID 0000.0001) rUnit2mass = /* convert r-units [Pa] to mass per unit area [kg/m2] */
(PID.TID 0000.0001)                 1.000000000000000E-01
(PID.TID 0000.0001)     ;
(PID.TID 0000.0001) drC =   /* C spacing ( units of r ) */
(PID.TID 0000.0001)    10 @  4.000000000000000E+06,             /* K =  1: 10 */
(PID.TID 0000.0001)                 4.800000000000000E+06,      /* K = 11 */
(PID.TID 0000.0001)                 4.400000000000000E+06,      /* K = 12 */
(PID.TID 0000.0001)                 3.600000000000000E+06,      /* K = 13 */
(PID.TID 0000.0001)                 2.900000000000000E+06,      /* K = 14 */
(PID.TID 0000.0001)                 2.300000000000000E+06,      /* K = 15 */
(PID.TID 0000.0001)                 1.775000000000000E+06,      /* K = 16 */
(PID.TID 0000.0001)                 1.375000000000000E+06,      /* K = 17 */
(PID.TID 0000.0001)                 1.075000000000000E+06,      /* K = 18 */
(PID.TID 0000.0001)                 8.750000000000000E+05,      /* K = 19 */
(PID.TID 0000.0001)                 7.500000000000000E+05,      /* K = 20 */
(PID.TID 0000.0001)                 6.750000000000000E+05,      /* K = 21 */
(PID.TID 0000.0001)                 6.250000000000000E+05,      /* K = 22 */
(PID.TID 0000.0001)                 5.750000000000000E+05,      /* K = 23 */
(PID.TID 0000.0001)                 5.250000000000000E+05,      /* K = 24 */
(PID.TID 0000.0001)                 5.000000000000000E+05,      /* K = 25 */
(PID.TID 0000.0001)                 2.500000000000000E+05       /* K = 26 */
(PID.TID 0000.0001)     ;
(PID.TID 0000.0001) drF =   /* W spacing ( units of r ) */
(PID.TID 0000.0001)                 6.000000000000000E+06,      /* K =  1 */
(PID.TID 0000.0001)     8 @  4.000000000000000E+06,             /* K =  2:  9 */
(PID.TID 0000.0001)                 4.400000000000000E+06,      /* K = 10 */
(PID.TID 0000.0001)                 4.600000000000000E+06,      /* K = 11 */
(PID.TID 0000.0001)                 4.000000000000000E+06,      /* K = 12 */
(PID.TID 0000.0001)                 3.250000000000000E+06,      /* K = 13 */
(PID.TID 0000.0001)                 2.600000000000000E+06,      /* K = 14 */
(PID.TID 0000.0001)                 2.037500000000000E+06,      /* K = 15 */
(PID.TID 0000.0001)                 1.575000000000000E+06,      /* K = 16 */
(PID.TID 0000.0001)                 1.225000000000000E+06,      /* K = 17 */
(PID.TID 0000.0001)                 9.750000000000000E+05,      /* K = 18 */
(PID.TID 0000.0001)                 8.125000000000000E+05,      /* K = 19 */
(PID.TID 0000.0001)                 7.125000000000000E+05,      /* K = 20 */
(PID.TID 0000.0001)                 6.500000000000000E+05,      /* K = 21 */
(PID.TID 0000.0001)                 6.000000000000000E+05,      /* K = 22 */
(PID.TID 0000.0001)                 5.500000000000000E+05,      /* K = 23 */
(PID.TID 0000.0001)                 5.125000000000000E+05,      /* K = 24 */
(PID.TID 0000.0001)                 5.000000000000000E+05       /* K = 25 */
(PID.TID 0000.0001)     ;
(PID.TID 0000.0001) delX = /* U spacing ( m - cartesian, degrees - spherical ) */
(PID.TID 0000.0001)                 1.000000000000000E+04       /* I =  1 */
(PID.TID 0000.0001)     ;
(PID.TID 0000.0001) delY = /* V spacing ( m - cartesian, degrees - spherical ) */
(PID.TID 0000.0001)                 1.121845490233872E+04,      /* J =  1 */
(PID.TID 0000.0001)                 1.120417408127598E+04,      /* J =  2 */
(PID.TID 0000.0001)                 1.117790763965009E+04,      /* J =  3 */
(PID.TID 0000.0001)                 1.113214211541110E+04,      /* J =  4 */
(PID.TID 0000.0001)                 1.105667354210767E+04,      /* J =  5 */
(PID.TID 0000.0001)                 1.093902768829823E+04,      /* J =  6 */
(PID.TID 0000.0001)                 1.076592279809904E+04,      /* J =  7 */
(PID.TID 0000.0001)                 1.052599385487605E+04,      /* J =  8 */
(PID.TID 0000.0001)                 1.021361421186628E+04,      /* J =  9 */
(PID.TID 0000.0001)                 9.833098593630379E+03,      /* J = 10 */
(PID.TID 0000.0001)                 9.402036775610259E+03,      /* J = 11 */
(PID.TID 0000.0001)                 8.952270066930356E+03,      /* J = 12 */
(PID.TID 0000.0001)                 8.527336484962452E+03,      /* J = 13 */
(PID.TID 0000.0001)                 8.176138828117387E+03,      /* J = 14 */
(PID.TID 0000.0001)                 7.943896227202051E+03,      /* J = 15 */
(PID.TID 0000.0001)                 7.862624379247893E+03,      /* J = 16 */
(PID.TID 0000.0001)                 7.943896227202051E+03,      /* J = 17 */
(PID.TID 0000.0001)                 8.176138828117387E+03,      /* J = 18 */
(PID.TID 0000.0001)                 8.527336484962452E+03,      /* J = 19 */
(PID.TID 0000.0001)                 8.952270066930356E+03,      /* J = 20 */
(PID.TID 0000.0001)                 9.402036775610259E+03,      /* J = 21 */
(PID.TID 0000.0001)                 9.833098593630379E+03,      /* J = 22 */
(PID.TID 0000.0001)                 1.021361421186628E+04,      /* J = 23 */
(PID.TID 0000.0001)                 1.052599385487605E+04,      /* J = 24 */
(PID.TID 0000.0001)                 1.076592279809904E+04,      /* J = 25 */
(PID.TID 0000.0001)                 1.093902768829823E+04,      /* J = 26 */
(PID.TID 0000.0001)                 1.105667354210767E+04,      /* J = 27 */
(PID.TID 0000.0001)                 1.113214211541110E+04,      /* J = 28 */
(PID.TID 0000.0001)                 1.117790763965009E+04,      /* J = 29 */
(PID.TID 0000.0001)                 1.120417408127598E+04,      /* J = 30 */
(PID.TID 0000.0001)                 1.121845490233872E+04,      /* J = 31 */
(PID.TID 0000.0001)                 1.122581549788791E+04       /* J = 32 */
(PID.TID 0000.0001)     ;
(PID.TID 0000.0001) xgOrigin = /* X-axis origin of West  edge (cartesian: m, lat-lon: deg) */
(PID.TID 0000.0001)                 0.000000000000000E+00
(PID.TID 0000.0001)     ;
(PID.TID 0000.0001) ygOrigin = /* Y-axis origin of South edge (cartesian: m, lat-lon: deg) */
(PID.TID 0000.0001)                 0.000000000000000E+00
(PID.TID 0000.0001)     ;
(PID.TID 0000.0001) rSphere =  /* Radius ( ignored - cartesian, m - spherical ) */
(PID.TID 0000.0001)                 6.370000000000000E+06
(PID.TID 0000.0001)     ;
(PID.TID 0000.0001) deepAtmosphere = /* Deep/Shallow Atmosphere flag (True/False) */
(PID.TID 0000.0001)                   F
(PID.TID 0000.0001)     ;
(PID.TID 0000.0001) xC =  /* xC(:,1,:,1) : P-point X coord ( deg. or m if cartesian) */
(PID.TID 0000.0001)                 5.000000000000000E+03       /* I =  1 */
(PID.TID 0000.0001)     ;
(PID.TID 0000.0001) yC =  /* yC(1,:,1,:) : P-point Y coord ( deg. or m if cartesian) */
(PID.TID 0000.0001)                 5.609227451169357E+03,      /* J =  1 */
(PID.TID 0000.0001)                 1.682054194297670E+04,      /* J =  2 */
(PID.TID 0000.0001)                 2.801158280343973E+04,      /* J =  3 */
(PID.TID 0000.0001)                 3.916660768097033E+04,      /* J =  4 */
(PID.TID 0000.0001)                 5.026101550972972E+04,      /* J =  5 */
(PID.TID 0000.0001)                 6.125886612493267E+04,      /* J =  6 */
(PID.TID 0000.0001)                 7.211134136813131E+04,      /* J =  7 */
(PID.TID 0000.0001)                 8.275729969461885E+04,      /* J =  8 */
(PID.TID 0000.0001)                 9.312710372799002E+04,      /* J =  9 */
(PID.TID 0000.0001)                 1.031504601307384E+05,      /* J = 10 */
(PID.TID 0000.0001)                 1.127680278153587E+05,      /* J = 11 */
(PID.TID 0000.0001)                 1.219451812366290E+05,      /* J = 12 */
(PID.TID 0000.0001)                 1.306849845125754E+05,      /* J = 13 */
(PID.TID 0000.0001)                 1.390367221691153E+05,      /* J = 14 */
(PID.TID 0000.0001)                 1.470967396967750E+05,      /* J = 15 */
(PID.TID 0000.0001)                 1.550000000000000E+05,      /* J = 16 */
(PID.TID 0000.0001)                 1.629032603032250E+05,      /* J = 17 */
(PID.TID 0000.0001)                 1.709632778308847E+05,      /* J = 18 */
(PID.TID 0000.0001)                 1.793150154874247E+05,      /* J = 19 */
(PID.TID 0000.0001)                 1.880548187633711E+05,      /* J = 20 */
(PID.TID 0000.0001)                 1.972319721846414E+05,      /* J = 21 */
(PID.TID 0000.0001)                 2.068495398692617E+05,      /* J = 22 */
(PID.TID 0000.0001)                 2.168728962720101E+05,      /* J = 23 */
(PID.TID 0000.0001)                 2.272427003053812E+05,      /* J = 24 */
(PID.TID 0000.0001)                 2.378886586318688E+05,      /* J = 25 */
(PID.TID 0000.0001)                 2.487411338750674E+05,      /* J = 26 */
(PID.TID 0000.0001)                 2.597389844902704E+05,      /* J = 27 */
(PID.TID 0000.0001)                 2.708333923190298E+05,      /* J = 28 */
(PID.TID 0000.0001)                 2.819884171965604E+05,      /* J = 29 */
(PID.TID 0000.0001)                 2.931794580570235E+05,      /* J = 30 */
(PID.TID 0000.0001)                 3.043907725488308E+05,      /* J = 31 */
(PID.TID 0000.0001)                 3.156129077489441E+05       /* J = 32 */
(PID.TID 0000.0001)     ;
(PID.TID 0000.0001) rcoord = /* P-point R coordinate (  units of r ) */
(PID.TID 0000.0001)                 6.300000000000000E+07,      /* K =  1 */
(PID.TID 0000.0001)                 5.900000000000000E+07,      /* K =  2 */
(PID.TID 0000.0001)                 5.500000000000000E+07,      /* K =  3 */
(PID.TID 0000.0001)                 5.100000000000000E+07,      /* K =  4 */
(PID.TID 0000.0001)                 4.700000000000000E+07,      /* K =  5 */
(PID.TID 0000.0001)                 4.300000000000000E+07,      /* K =  6 */
(PID.TID 0000.0001)                 3.900000000000000E+07,      /* K =  7 */
(PID.TID 0000.0001)                 3.500000000000000E+07,      /* K =  8 */
(PID.TID 0000.0001)                 3.100000000000000E+07,      /* K =  9 */
(PID.TID 0000.0001)                 2.700000000000000E+07,      /* K = 10 */
(PID.TID 0000.0001)                 2.220000000000000E+07,      /* K = 11 */
(PID.TID 0000.0001)                 1.780000000000000E+07,      /* K = 12 */
(PID.TID 0000.0001)                 1.420000000000000E+07,      /* K = 13 */
(PID.TID 0000.0001)                 1.130000000000000E+07,      /* K = 14 */
(PID.TID 0000.0001)                 9.000000000000000E+06,      /* K = 15 */
(PID.TID 0000.0001)                 7.225000000000000E+06,      /* K = 16 */
(PID.TID 0000.0001)                 5.850000000000000E+06,      /* K = 17 */
(PID.TID 0000.0001)                 4.775000000000000E+06,      /* K = 18 */
(PID.TID 0000.0001)                 3.900000000000000E+06,      /* K = 19 */
(PID.TID 0000.0001)                 3.150000000000000E+06,      /* K = 20 */
(PID.TID 0000.0001)                 2.475000000000000E+06,      /* K = 21 */
(PID.TID 0000.0001)                 1.850000000000000E+06,      /* K = 22 */
(PID.TID 0000.0001)                 1.275000000000000E+06,      /* K = 23 */
(PID.TID 0000.0001)                 7.500000000000000E+05,      /* K = 24 */
(PID.TID 0000.0001)                 2.500000000000000E+05       /* K = 25 */
(PID.TID 0000.0001)     ;
(PID.TID 0000.0001) rF =   /* W-Interf. R coordinate (  units of r ) */
(PID.TID 0000.0001)                 6.700000000000000E+07,      /* K =  1 */
(PID.TID 0000.0001)                 6.100000000000000E+07,      /* K =  2 */
(PID.TID 0000.0001)                 5.700000000000000E+07,      /* K =  3 */
(PID.TID 0000.0001)                 5.300000000000000E+07,      /* K =  4 */
(PID.TID 0000.0001)                 4.900000000000000E+07,      /* K =  5 */
(PID.TID 0000.0001)                 4.500000000000000E+07,      /* K =  6 */
(PID.TID 0000.0001)                 4.100000000000000E+07,      /* K =  7 */
(PID.TID 0000.0001)                 3.700000000000000E+07,      /* K =  8 */
(PID.TID 0000.0001)                 3.300000000000000E+07,      /* K =  9 */
(PID.TID 0000.0001)                 2.900000000000000E+07,      /* K = 10 */
(PID.TID 0000.0001)                 2.460000000000000E+07,      /* K = 11 */
(PID.TID 0000.0001)                 2.000000000000000E+07,      /* K = 12 */
(PID.TID 0000.0001)                 1.600000000000000E+07,      /* K = 13 */
(PID.TID 0000.0001)                 1.275000000000000E+07,      /* K = 14 */
(PID.TID 0000.0001)                 1.015000000000000E+07,      /* K = 15 */
(PID.TID 0000.0001)                 8.112500000000000E+06,      /* K = 16 */
(PID.TID 0000.0001)                 6.537500000000000E+06,      /* K = 17 */
(PID.TID 0000.0001)                 5.312500000000000E+06,      /* K = 18 */
(PID.TID 0000.0001)                 4.337500000000000E+06,      /* K = 19 */
(PID.TID 0000.0001)                 3.525000000000000E+06,      /* K = 20 */
(PID.TID 0000.0001)                 2.812500000000000E+06,      /* K = 21 */
(PID.TID 0000.0001)                 2.162500000000000E+06,      /* K = 22 */
(PID.TID 0000.0001)                 1.562500000000000E+06,      /* K = 23 */
(PID.TID 0000.0001)                 1.012500000000000E+06,      /* K = 24 */
(PID.TID 0000.0001)                 5.000000000000000E+05,      /* K = 25 */
(PID.TID 0000.0001)                 0.000000000000000E+00       /* K = 26 */
(PID.TID 0000.0001)     ;
(PID.TID 0000.0001) deepFacC = /* deep-model grid factor @ cell-Center (-) */
(PID.TID 0000.0001)    25 @  1.000000000000000E+00              /* K =  1: 25 */
(PID.TID 0000.0001)     ;
(PID.TID 0000.0001) deepFacF = /* deep-model grid factor @ W-Interface (-) */
(PID.TID 0000.0001)    26 @  1.000000000000000E+00              /* K =  1: 26 */
(PID.TID 0000.0001)     ;
(PID.TID 0000.0001) rVel2wUnit = /* convert units: rVel -> wSpeed (=1 if z-coord)*/
(PID.TID 0000.0001)    10 @  1.000000000000000E-04,             /* K =  1: 10 */
(PID.TID 0000.0001)                 1.001502253380070E-04,      /* K = 11 */
(PID.TID 0000.0001)                 1.003109639883639E-04,      /* K = 12 */
(PID.TID 0000.0001)                 1.003310926055985E-04,      /* K = 13 */
(PID.TID 0000.0001)                 1.003512293025590E-04,      /* K = 14 */
(PID.TID 0000.0001)                 1.003713740841112E-04,      /* K = 15 */
(PID.TID 0000.0001)                 1.003915269551250E-04,      /* K = 16 */
(PID.TID 0000.0001)                 1.004116879204739E-04,      /* K = 17 */
(PID.TID 0000.0001)                 1.004318569850357E-04,      /* K = 18 */
(PID.TID 0000.0001)                 1.004520341536916E-04,      /* K = 19 */
(PID.TID 0000.0001)                 1.004722194313272E-04,      /* K = 20 */
(PID.TID 0000.0001)                 1.004924128228319E-04,      /* K = 21 */
(PID.TID 0000.0001)                 1.005126143330988E-04,      /* K = 22 */
(PID.TID 0000.0001)                 1.005328239670252E-04,      /* K = 23 */
(PID.TID 0000.0001)                 1.005530417295123E-04,      /* K = 24 */
(PID.TID 0000.0001)                 1.005732676254652E-04,      /* K = 25 */
(PID.TID 0000.0001)                 1.005833836250251E-04       /* K = 26 */
(PID.TID 0000.0001)     ;
(PID.TID 0000.0001) wUnit2rVel = /* convert units: wSpeed -> rVel (=1 if z-coord)*/
(PID.TID 0000.0001)    10 @  1.000000000000000E+04,             /* K =  1: 10 */
(PID.TID 0000.0001)                 9.985000000000000E+03,      /* K = 11 */
(PID.TID 0000.0001)                 9.969000000000000E+03,      /* K = 12 */
(PID.TID 0000.0001)                 9.967000000000000E+03,      /* K = 13 */
(PID.TID 0000.0001)                 9.965000000000000E+03,      /* K = 14 */
(PID.TID 0000.0001)                 9.963000000000000E+03,      /* K = 15 */
(PID.TID 0000.0001)                 9.961000000000000E+03,      /* K = 16 */
(PID.TID 0000.0001)                 9.959000000000000E+03,      /* K = 17 */
(PID.TID 0000.0001)                 9.957000000000000E+03,      /* K = 18 */
(PID.TID 0000.0001)                 9.955000000000000E+03,      /* K = 19 */
(PID.TID 0000.0001)                 9.953000000000000E+03,      /* K = 20 */
(PID.TID 0000.0001)                 9.951000000000000E+03,      /* K = 21 */
(PID.TID 0000.0001)                 9.949000000000000E+03,      /* K = 22 */
(PID.TID 0000.0001)                 9.947000000000000E+03,      /* K = 23 */
(PID.TID 0000.0001)                 9.945000000000000E+03,      /* K = 24 */
(PID.TID 0000.0001)                 9.943000000000000E+03,      /* K = 25 */
(PID.TID 0000.0001)                 9.942000000000000E+03       /* K = 26 */
(PID.TID 0000.0001)     ;
(PID.TID 0000.0001) dBdrRef = /* Vertical grad. of reference buoyancy [(m/s/r)^2] */
(PID.TID 0000.0001)    10 @  0.000000000000000E+00,             /* K =  1: 10 */
(PID.TID 0000.0001)                 6.268806419257773E-13,      /* K = 11 */
(PID.TID 0000.0001)                 4.573767998875820E-14,      /* K = 12 */
(PID.TID 0000.0001)                 5.592404580422614E-14,      /* K = 13 */
(PID.TID 0000.0001)                 6.945082292378894E-14,      /* K = 14 */
(PID.TID 0000.0001)                 8.760358988715607E-14,      /* K = 15 */
(PID.TID 0000.0001)                 1.135600989967235E-13,      /* K = 16 */
(PID.TID 0000.0001)                 1.466546497846967E-13,      /* K = 17 */
(PID.TID 0000.0001)                 1.876568930083324E-13,      /* K = 18 */
(PID.TID 0000.0001)                 2.306425432557064E-13,      /* K = 19 */
(PID.TID 0000.0001)                 2.691911194494834E-13,      /* K = 20 */
(PID.TID 0000.0001)                 2.992214855389929E-13,      /* K = 21 */
(PID.TID 0000.0001)                 3.232891437485707E-13,      /* K = 22 */
(PID.TID 0000.0001)                 3.515425668497331E-13,      /* K = 23 */
(PID.TID 0000.0001)                 3.851776877443784E-13,      /* K = 24 */
(PID.TID 0000.0001)                 4.045992905269141E-13       /* K = 25 */
(PID.TID 0000.0001)     ;
(PID.TID 0000.0001) rotateGrid = /* use rotated grid ( True/False ) */
(PID.TID 0000.0001)                   F
(PID.TID 0000.0001)     ;
(PID.TID 0000.0001) phiEuler = /* Euler angle, rotation about original z-coordinate [rad] */
(PID.TID 0000.0001)                 0.000000000000000E+00
(PID.TID 0000.0001)     ;
(PID.TID 0000.0001) thetaEuler = /* Euler angle, rotation about new x-coordinate [rad] */
(PID.TID 0000.0001)                 0.000000000000000E+00
(PID.TID 0000.0001)     ;
(PID.TID 0000.0001) psiEuler = /* Euler angle, rotation about new z-coordinate [rad] */
(PID.TID 0000.0001)                 0.000000000000000E+00
(PID.TID 0000.0001)     ;
(PID.TID 0000.0001) dxF =  /* dxF(:,1,:,1) ( units: m ) */
(PID.TID 0000.0001)                 1.000000000000000E+04       /* I =  1 */
(PID.TID 0000.0001)     ;
(PID.TID 0000.0001) dxF =  /* dxF(1,:,1,:) ( units: m ) */
(PID.TID 0000.0001)    32 @  1.000000000000000E+04              /* J =  1: 32 */
(PID.TID 0000.0001)     ;
(PID.TID 0000.0001) dyF =  /* dyF(:,1,:,1) ( units: m ) */
(PID.TID 0000.0001)                 1.121845490233872E+04       /* I =  1 */
(PID.TID 0000.0001)     ;
(PID.TID 0000.0001) dyF =  /* dyF(1,:,1,:) ( units: m ) */
(PID.TID 0000.0001)                 1.121845490233872E+04,      /* J =  1 */
(PID.TID 0000.0001)                 1.120417408127598E+04,      /* J =  2 */
(PID.TID 0000.0001)                 1.117790763965009E+04,      /* J =  3 */
(PID.TID 0000.0001)                 1.113214211541110E+04,      /* J =  4 */
(PID.TID 0000.0001)                 1.105667354210767E+04,      /* J =  5 */
(PID.TID 0000.0001)                 1.093902768829823E+04,      /* J =  6 */
(PID.TID 0000.0001)                 1.076592279809904E+04,      /* J =  7 */
(PID.TID 0000.0001)                 1.052599385487605E+04,      /* J =  8 */
(PID.TID 0000.0001)                 1.021361421186628E+04,      /* J =  9 */
(PID.TID 0000.0001)                 9.833098593630379E+03,      /* J = 10 */
(PID.TID 0000.0001)                 9.402036775610259E+03,      /* J = 11 */
(PID.TID 0000.0001)                 8.952270066930356E+03,      /* J = 12 */
(PID.TID 0000.0001)                 8.527336484962452E+03,      /* J = 13 */
(PID.TID 0000.0001)                 8.176138828117387E+03,      /* J = 14 */
(PID.TID 0000.0001)                 7.943896227202051E+03,      /* J = 15 */
(PID.TID 0000.0001)                 7.862624379247893E+03,      /* J = 16 */
(PID.TID 0000.0001)                 7.943896227202051E+03,      /* J = 17 */
(PID.TID 0000.0001)                 8.176138828117387E+03,      /* J = 18 */
(PID.TID 0000.0001)                 8.527336484962452E+03,      /* J = 19 */
(PID.TID 0000.0001)                 8.952270066930356E+03,      /* J = 20 */
(PID.TID 0000.0001)                 9.402036775610259E+03,      /* J = 21 */
(PID.TID 0000.0001)                 9.833098593630379E+03,      /* J = 22 */
(PID.TID 0000.0001)                 1.021361421186628E+04,      /* J = 23 */
(PID.TID 0000.0001)                 1.052599385487605E+04,      /* J = 24 */
(PID.TID 0000.0001)                 1.076592279809904E+04,      /* J = 25 */
(PID.TID 0000.0001)                 1.093902768829823E+04,      /* J = 26 */
(PID.TID 0000.0001)                 1.105667354210767E+04,      /* J = 27 */
(PID.TID 0000.0001)                 1.113214211541110E+04,      /* J = 28 */
(PID.TID 0000.0001)                 1.117790763965009E+04,      /* J = 29 */
(PID.TID 0000.0001)                 1.120417408127598E+04,      /* J = 30 */
(PID.TID 0000.0001)                 1.121845490233872E+04,      /* J = 31 */
(PID.TID 0000.0001)                 1.122581549788791E+04       /* J = 32 */
(PID.TID 0000.0001)     ;
(PID.TID 0000.0001) dxG =  /* dxG(:,1,:,1) ( units: m ) */
(PID.TID 0000.0001)                 1.000000000000000E+04       /* I =  1 */
(PID.TID 0000.0001)     ;
(PID.TID 0000.0001) dxG =  /* dxG(1,:,1,:) ( units: m ) */
(PID.TID 0000.0001)    32 @  1.000000000000000E+04              /* J =  1: 32 */
(PID.TID 0000.0001)     ;
(PID.TID 0000.0001) dyG =  /* dyG(:,1,:,1) ( units: m ) */
(PID.TID 0000.0001)                 1.121845490233872E+04       /* I =  1 */
(PID.TID 0000.0001)     ;
(PID.TID 0000.0001) dyG =  /* dyG(1,:,1,:) ( units: m ) */
(PID.TID 0000.0001)                 1.121845490233872E+04,      /* J =  1 */
(PID.TID 0000.0001)                 1.120417408127598E+04,      /* J =  2 */
(PID.TID 0000.0001)                 1.117790763965009E+04,      /* J =  3 */
(PID.TID 0000.0001)                 1.113214211541110E+04,      /* J =  4 */
(PID.TID 0000.0001)                 1.105667354210767E+04,      /* J =  5 */
(PID.TID 0000.0001)                 1.093902768829823E+04,      /* J =  6 */
(PID.TID 0000.0001)                 1.076592279809904E+04,      /* J =  7 */
(PID.TID 0000.0001)                 1.052599385487605E+04,      /* J =  8 */
(PID.TID 0000.0001)                 1.021361421186628E+04,      /* J =  9 */
(PID.TID 0000.0001)                 9.833098593630379E+03,      /* J = 10 */
(PID.TID 0000.0001)                 9.402036775610259E+03,      /* J = 11 */
(PID.TID 0000.0001)                 8.952270066930356E+03,      /* J = 12 */
(PID.TID 0000.0001)                 8.527336484962452E+03,      /* J = 13 */
(PID.TID 0000.0001)                 8.176138828117387E+03,      /* J = 14 */
(PID.TID 0000.0001)                 7.943896227202051E+03,      /* J = 15 */
(PID.TID 0000.0001)                 7.862624379247893E+03,      /* J = 16 */
(PID.TID 0000.0001)                 7.943896227202051E+03,      /* J = 17 */
(PID.TID 0000.0001)                 8.176138828117387E+03,      /* J = 18 */
(PID.TID 0000.0001)                 8.527336484962452E+03,      /* J = 19 */
(PID.TID 0000.0001)                 8.952270066930356E+03,      /* J = 20 */
(PID.TID 0000.0001)                 9.402036775610259E+03,      /* J = 21 */
(PID.TID 0000.0001)                 9.833098593630379E+03,      /* J = 22 */
(PID.TID 0000.0001)                 1.021361421186628E+04,      /* J = 23 */
(PID.TID 0000.0001)                 1.052599385487605E+04,      /* J = 24 */
(PID.TID 0000.0001)                 1.076592279809904E+04,      /* J = 25 */
(PID.TID 0000.0001)                 1.093902768829823E+04,      /* J = 26 */
(PID.TID 0000.0001)                 1.105667354210767E+04,      /* J = 27 */
(PID.TID 0000.0001)                 1.113214211541110E+04,      /* J = 28 */
(PID.TID 0000.0001)                 1.117790763965009E+04,      /* J = 29 */
(PID.TID 0000.0001)                 1.120417408127598E+04,      /* J = 30 */
(PID.TID 0000.0001)                 1.121845490233872E+04,      /* J = 31 */
(PID.TID 0000.0001)                 1.122581549788791E+04       /* J = 32 */
(PID.TID 0000.0001)     ;
(PID.TID 0000.0001) dxC =  /* dxC(:,1,:,1) ( units: m ) */
(PID.TID 0000.0001)                 1.000000000000000E+04       /* I =  1 */
(PID.TID 0000.0001)     ;
(PID.TID 0000.0001) dxC =  /* dxC(1,:,1,:) ( units: m ) */
(PID.TID 0000.0001)    32 @  1.000000000000000E+04              /* J =  1: 32 */
(PID.TID 0000.0001)     ;
(PID.TID 0000.0001) dyC =  /* dyC(:,1,:,1) ( units: m ) */
(PID.TID 0000.0001)                 1.122213520011331E+04       /* I =  1 */
(PID.TID 0000.0001)     ;
(PID.TID 0000.0001) dyC =  /* dyC(1,:,1,:) ( units: m ) */
(PID.TID 0000.0001)                 1.122213520011331E+04,      /* J =  1 */
(PID.TID 0000.0001)                 1.121131449180735E+04,      /* J =  2 */
(PID.TID 0000.0001)                 1.119104086046303E+04,      /* J =  3 */
(PID.TID 0000.0001)                 1.115502487753059E+04,      /* J =  4 */
(PID.TID 0000.0001)                 1.109440782875938E+04,      /* J =  5 */
(PID.TID 0000.0001)                 1.099785061520295E+04,      /* J =  6 */
(PID.TID 0000.0001)                 1.085247524319864E+04,      /* J =  7 */
(PID.TID 0000.0001)                 1.064595832648755E+04,      /* J =  8 */
(PID.TID 0000.0001)                 1.036980403337117E+04,      /* J =  9 */
(PID.TID 0000.0001)                 1.002335640274833E+04,      /* J = 10 */
(PID.TID 0000.0001)                 9.617567684620319E+03,      /* J = 11 */
(PID.TID 0000.0001)                 9.177153421270308E+03,      /* J = 12 */
(PID.TID 0000.0001)                 8.739803275946404E+03,      /* J = 13 */
(PID.TID 0000.0001)                 8.351737656539919E+03,      /* J = 14 */
(PID.TID 0000.0001)                 8.060017527659718E+03,      /* J = 15 */
(PID.TID 0000.0001)     2 @  7.903260303224972E+03,             /* J = 16: 17 */
(PID.TID 0000.0001)                 8.060017527659718E+03,      /* J = 18 */
(PID.TID 0000.0001)                 8.351737656539919E+03,      /* J = 19 */
(PID.TID 0000.0001)                 8.739803275946404E+03,      /* J = 20 */
(PID.TID 0000.0001)                 9.177153421270308E+03,      /* J = 21 */
(PID.TID 0000.0001)                 9.617567684620319E+03,      /* J = 22 */
(PID.TID 0000.0001)                 1.002335640274833E+04,      /* J = 23 */
(PID.TID 0000.0001)                 1.036980403337117E+04,      /* J = 24 */
(PID.TID 0000.0001)                 1.064595832648755E+04,      /* J = 25 */
(PID.TID 0000.0001)                 1.085247524319864E+04,      /* J = 26 */
(PID.TID 0000.0001)                 1.099785061520295E+04,      /* J = 27 */
(PID.TID 0000.0001)                 1.109440782875938E+04,      /* J = 28 */
(PID.TID 0000.0001)                 1.115502487753059E+04,      /* J = 29 */
(PID.TID 0000.0001)                 1.119104086046303E+04,      /* J = 30 */
(PID.TID 0000.0001)                 1.121131449180735E+04,      /* J = 31 */
(PID.TID 0000.0001)                 1.122213520011331E+04       /* J = 32 */
(PID.TID 0000.0001)     ;
(PID.TID 0000.0001) dxV =  /* dxV(:,1,:,1) ( units: m ) */
(PID.TID 0000.0001)                 1.000000000000000E+04       /* I =  1 */
(PID.TID 0000.0001)     ;
(PID.TID 0000.0001) dxV =  /* dxV(1,:,1,:) ( units: m ) */
(PID.TID 0000.0001)    32 @  1.000000000000000E+04              /* J =  1: 32 */
(PID.TID 0000.0001)     ;
(PID.TID 0000.0001) dyU =  /* dyU(:,1,:,1) ( units: m ) */
(PID.TID 0000.0001)                 1.122213520011331E+04       /* I =  1 */
(PID.TID 0000.0001)     ;
(PID.TID 0000.0001) dyU =  /* dyU(1,:,1,:) ( units: m ) */
(PID.TID 0000.0001)                 1.122213520011331E+04,      /* J =  1 */
(PID.TID 0000.0001)                 1.121131449180735E+04,      /* J =  2 */
(PID.TID 0000.0001)                 1.119104086046303E+04,      /* J =  3 */
(PID.TID 0000.0001)                 1.115502487753059E+04,      /* J =  4 */
(PID.TID 0000.0001)                 1.109440782875938E+04,      /* J =  5 */
(PID.TID 0000.0001)                 1.099785061520295E+04,      /* J =  6 */
(PID.TID 0000.0001)                 1.085247524319864E+04,      /* J =  7 */
(PID.TID 0000.0001)                 1.064595832648755E+04,      /* J =  8 */
(PID.TID 0000.0001)                 1.036980403337117E+04,      /* J =  9 */
(PID.TID 0000.0001)                 1.002335640274833E+04,      /* J = 10 */
(PID.TID 0000.0001)                 9.617567684620319E+03,      /* J = 11 */
(PID.TID 0000.0001)                 9.177153421270308E+03,      /* J = 12 */
(PID.TID 0000.0001)                 8.739803275946404E+03,      /* J = 13 */
(PID.TID 0000.0001)                 8.351737656539919E+03,      /* J = 14 */
(PID.TID 0000.0001)                 8.060017527659718E+03,      /* J = 15 */
(PID.TID 0000.0001)     2 @  7.903260303224972E+03,             /* J = 16: 17 */
(PID.TID 0000.0001)                 8.060017527659718E+03,      /* J = 18 */
(PID.TID 0000.0001)                 8.351737656539919E+03,      /* J = 19 */
(PID.TID 0000.0001)                 8.739803275946404E+03,      /* J = 20 */
(PID.TID 0000.0001)                 9.177153421270308E+03,      /* J = 21 */
(PID.TID 0000.0001)                 9.617567684620319E+03,      /* J = 22 */
(PID.TID 0000.0001)                 1.002335640274833E+04,      /* J = 23 */
(PID.TID 0000.0001)                 1.036980403337117E+04,      /* J = 24 */
(PID.TID 0000.0001)                 1.064595832648755E+04,      /* J = 25 */
(PID.TID 0000.0001)                 1.085247524319864E+04,      /* J = 26 */
(PID.TID 0000.0001)                 1.099785061520295E+04,      /* J = 27 */
(PID.TID 0000.0001)                 1.109440782875938E+04,      /* J = 28 */
(PID.TID 0000.0001)                 1.115502487753059E+04,      /* J = 29 */
(PID.TID 0000.0001)                 1.119104086046303E+04,      /* J = 30 */
(PID.TID 0000.0001)                 1.121131449180735E+04,      /* J = 31 */
(PID.TID 0000.0001)                 1.122213520011331E+04       /* J = 32 */
(PID.TID 0000.0001)     ;
(PID.TID 0000.0001) rA  =  /* rA (:,1,:,1) ( units: m^2 ) */
(PID.TID 0000.0001)                 1.121845490233872E+08       /* I =  1 */
(PID.TID 0000.0001)     ;
(PID.TID 0000.0001) rA  =  /* rA (1,:,1,:) ( units: m^2 ) */
(PID.TID 0000.0001)                 1.121845490233872E+08,      /* J =  1 */
(PID.TID 0000.0001)                 1.120417408127598E+08,      /* J =  2 */
(PID.TID 0000.0001)                 1.117790763965009E+08,      /* J =  3 */
(PID.TID 0000.0001)                 1.113214211541110E+08,      /* J =  4 */
(PID.TID 0000.0001)                 1.105667354210767E+08,      /* J =  5 */
(PID.TID 0000.0001)                 1.093902768829823E+08,      /* J =  6 */
(PID.TID 0000.0001)                 1.076592279809904E+08,      /* J =  7 */
(PID.TID 0000.0001)                 1.052599385487605E+08,      /* J =  8 */
(PID.TID 0000.0001)                 1.021361421186628E+08,      /* J =  9 */
(PID.TID 0000.0001)                 9.833098593630378E+07,      /* J = 10 */
(PID.TID 0000.0001)                 9.402036775610259E+07,      /* J = 11 */
(PID.TID 0000.0001)                 8.952270066930355E+07,      /* J = 12 */
(PID.TID 0000.0001)                 8.527336484962453E+07,      /* J = 13 */
(PID.TID 0000.0001)                 8.176138828117387E+07,      /* J = 14 */
(PID.TID 0000.0001)                 7.943896227202050E+07,      /* J = 15 */
(PID.TID 0000.0001)                 7.862624379247892E+07,      /* J = 16 */
(PID.TID 0000.0001)                 7.943896227202050E+07,      /* J = 17 */
(PID.TID 0000.0001)                 8.176138828117387E+07,      /* J = 18 */
(PID.TID 0000.0001)                 8.527336484962453E+07,      /* J = 19 */
(PID.TID 0000.0001)                 8.952270066930355E+07,      /* J = 20 */
(PID.TID 0000.0001)                 9.402036775610259E+07,      /* J = 21 */
(PID.TID 0000.0001)                 9.833098593630378E+07,      /* J = 22 */
(PID.TID 0000.0001)                 1.021361421186628E+08,      /* J = 23 */
(PID.TID 0000.0001)                 1.052599385487605E+08,      /* J = 24 */
(PID.TID 0000.0001)                 1.076592279809904E+08,      /* J = 25 */
(PID.TID 0000.0001)                 1.093902768829823E+08,      /* J = 26 */
(PID.TID 0000.0001)                 1.105667354210767E+08,      /* J = 27 */
(PID.TID 0000.0001)                 1.113214211541110E+08,      /* J = 28 */
(PID.TID 0000.0001)                 1.117790763965009E+08,      /* J = 29 */
(PID.TID 0000.0001)                 1.120417408127598E+08,      /* J = 30 */
(PID.TID 0000.0001)                 1.121845490233872E+08,      /* J = 31 */
(PID.TID 0000.0001)                 1.122581549788791E+08       /* J = 32 */
(PID.TID 0000.0001)     ;
(PID.TID 0000.0001) rAw =  /* rAw(:,1,:,1) ( units: m^2 ) */
(PID.TID 0000.0001)                 1.121845490233872E+08       /* I =  1 */
(PID.TID 0000.0001)     ;
(PID.TID 0000.0001) rAw =  /* rAw(1,:,1,:) ( units: m^2 ) */
(PID.TID 0000.0001)                 1.121845490233872E+08,      /* J =  1 */
(PID.TID 0000.0001)                 1.120417408127598E+08,      /* J =  2 */
(PID.TID 0000.0001)                 1.117790763965009E+08,      /* J =  3 */
(PID.TID 0000.0001)                 1.113214211541110E+08,      /* J =  4 */
(PID.TID 0000.0001)                 1.105667354210767E+08,      /* J =  5 */
(PID.TID 0000.0001)                 1.093902768829823E+08,      /* J =  6 */
(PID.TID 0000.0001)                 1.076592279809904E+08,      /* J =  7 */
(PID.TID 0000.0001)                 1.052599385487605E+08,      /* J =  8 */
(PID.TID 0000.0001)                 1.021361421186628E+08,      /* J =  9 */
(PID.TID 0000.0001)                 9.833098593630378E+07,      /* J = 10 */
(PID.TID 0000.0001)                 9.402036775610259E+07,      /* J = 11 */
(PID.TID 0000.0001)                 8.952270066930355E+07,      /* J = 12 */
(PID.TID 0000.0001)                 8.527336484962453E+07,      /* J = 13 */
(PID.TID 0000.0001)                 8.176138828117387E+07,      /* J = 14 */
(PID.TID 0000.0001)                 7.943896227202050E+07,      /* J = 15 */
(PID.TID 0000.0001)                 7.862624379247892E+07,      /* J = 16 */
(PID.TID 0000.0001)                 7.943896227202050E+07,      /* J = 17 */
(PID.TID 0000.0001)                 8.176138828117387E+07,      /* J = 18 */
(PID.TID 0000.0001)                 8.527336484962453E+07,      /* J = 19 */
(PID.TID 0000.0001)                 8.952270066930355E+07,      /* J = 20 */
(PID.TID 0000.0001)                 9.402036775610259E+07,      /* J = 21 */
(PID.TID 0000.0001)                 9.833098593630378E+07,      /* J = 22 */
(PID.TID 0000.0001)                 1.021361421186628E+08,      /* J = 23 */
(PID.TID 0000.0001)                 1.052599385487605E+08,      /* J = 24 */
(PID.TID 0000.0001)                 1.076592279809904E+08,      /* J = 25 */
(PID.TID 0000.0001)                 1.093902768829823E+08,      /* J = 26 */
(PID.TID 0000.0001)                 1.105667354210767E+08,      /* J = 27 */
(PID.TID 0000.0001)                 1.113214211541110E+08,      /* J = 28 */
(PID.TID 0000.0001)                 1.117790763965009E+08,      /* J = 29 */
(PID.TID 0000.0001)                 1.120417408127598E+08,      /* J = 30 */
(PID.TID 0000.0001)                 1.121845490233872E+08,      /* J = 31 */
(PID.TID 0000.0001)                 1.122581549788791E+08       /* J = 32 */
(PID.TID 0000.0001)     ;
(PID.TID 0000.0001) rAs =  /* rAs(:,1,:,1) ( units: m^2 ) */
(PID.TID 0000.0001)                 1.122213520011331E+08       /* I =  1 */
(PID.TID 0000.0001)     ;
(PID.TID 0000.0001) rAs =  /* rAs(1,:,1,:) ( units: m^2 ) */
(PID.TID 0000.0001)                 1.122213520011331E+08,      /* J =  1 */
(PID.TID 0000.0001)                 1.121131449180735E+08,      /* J =  2 */
(PID.TID 0000.0001)                 1.119104086046303E+08,      /* J =  3 */
(PID.TID 0000.0001)                 1.115502487753059E+08,      /* J =  4 */
(PID.TID 0000.0001)                 1.109440782875938E+08,      /* J =  5 */
(PID.TID 0000.0001)                 1.099785061520295E+08,      /* J =  6 */
(PID.TID 0000.0001)                 1.085247524319864E+08,      /* J =  7 */
(PID.TID 0000.0001)                 1.064595832648755E+08,      /* J =  8 */
(PID.TID 0000.0001)                 1.036980403337117E+08,      /* J =  9 */
(PID.TID 0000.0001)                 1.002335640274833E+08,      /* J = 10 */
(PID.TID 0000.0001)                 9.617567684620319E+07,      /* J = 11 */
(PID.TID 0000.0001)                 9.177153421270308E+07,      /* J = 12 */
(PID.TID 0000.0001)                 8.739803275946404E+07,      /* J = 13 */
(PID.TID 0000.0001)                 8.351737656539918E+07,      /* J = 14 */
(PID.TID 0000.0001)                 8.060017527659719E+07,      /* J = 15 */
(PID.TID 0000.0001)     2 @  7.903260303224972E+07,             /* J = 16: 17 */
(PID.TID 0000.0001)                 8.060017527659719E+07,      /* J = 18 */
(PID.TID 0000.0001)                 8.351737656539918E+07,      /* J = 19 */
(PID.TID 0000.0001)                 8.739803275946404E+07,      /* J = 20 */
(PID.TID 0000.0001)                 9.177153421270308E+07,      /* J = 21 */
(PID.TID 0000.0001)                 9.617567684620319E+07,      /* J = 22 */
(PID.TID 0000.0001)                 1.002335640274833E+08,      /* J = 23 */
(PID.TID 0000.0001)                 1.036980403337117E+08,      /* J = 24 */
(PID.TID 0000.0001)                 1.064595832648755E+08,      /* J = 25 */
(PID.TID 0000.0001)                 1.085247524319864E+08,      /* J = 26 */
(PID.TID 0000.0001)                 1.099785061520295E+08,      /* J = 27 */
(PID.TID 0000.0001)                 1.109440782875938E+08,      /* J = 28 */
(PID.TID 0000.0001)                 1.115502487753059E+08,      /* J = 29 */
(PID.TID 0000.0001)                 1.119104086046303E+08,      /* J = 30 */
(PID.TID 0000.0001)                 1.121131449180735E+08,      /* J = 31 */
(PID.TID 0000.0001)                 1.122213520011331E+08       /* J = 32 */
(PID.TID 0000.0001)     ;
(PID.TID 0000.0001) globalArea = /* Integrated horizontal Area (m^2) */
(PID.TID 0000.0001)                 3.100000000000000E+09
(PID.TID 0000.0001)     ;
(PID.TID 0000.0001) // =======================================================
(PID.TID 0000.0001) // End of Model config. summary
(PID.TID 0000.0001) // =======================================================
(PID.TID 0000.0001) 
(PID.TID 0000.0001) == Packages configuration : Check & print summary ==
(PID.TID 0000.0001) 
(PID.TID 0000.0001) GMREDI_CHECK: #define GMREDI
(PID.TID 0000.0001) GM_AdvForm =     /* if FALSE => use SkewFlux Form */
(PID.TID 0000.0001)                   T
(PID.TID 0000.0001)     ;
(PID.TID 0000.0001) GM_InMomAsStress = /* if TRUE => apply as Eddy Stress */
(PID.TID 0000.0001)                   F
(PID.TID 0000.0001)     ;
(PID.TID 0000.0001) GM_AdvSeparate = /* Calc Bolus & Euler Adv. separately */
(PID.TID 0000.0001)                   F
(PID.TID 0000.0001)     ;
(PID.TID 0000.0001) GM_ExtraDiag =   /* Tensor Extra Diag (line 1&2) non 0 */
(PID.TID 0000.0001)                   F
(PID.TID 0000.0001)     ;
(PID.TID 0000.0001) GM_isopycK =    /* Background Isopyc. Diffusivity [m^2/s] */
(PID.TID 0000.0001)                 0.000000000000000E+00
(PID.TID 0000.0001)     ;
(PID.TID 0000.0001) GM_skewflx*K =  /* Background GM_SkewFlx Diffusivity [m^2/s] */
(PID.TID 0000.0001)                 0.000000000000000E+00
(PID.TID 0000.0001)     ;
(PID.TID 0000.0001) GM_advec*K =    /* Backg. GM-Advec(=Bolus) Diffusivity [m^2/s]*/
(PID.TID 0000.0001)                 1.000000000000000E+03
(PID.TID 0000.0001)     ;
(PID.TID 0000.0001) GM_Kmin_horiz = /* Minimum Horizontal Diffusivity [m^2/s] */
(PID.TID 0000.0001)                 0.000000000000000E+00
(PID.TID 0000.0001)     ;
(PID.TID 0000.0001) GM_Visbeck_alpha = /* Visbeck alpha coeff. [-] */
(PID.TID 0000.0001)                 0.000000000000000E+00
(PID.TID 0000.0001)     ;
(PID.TID 0000.0001) GM_Small_Number =  /* epsilon used in slope calc */
(PID.TID 0000.0001)                 9.999999999999999E-21
(PID.TID 0000.0001)     ;
(PID.TID 0000.0001) GM_slopeSqCutoff = /* Slope^2 cut-off value */
(PID.TID 0000.0001)                 1.000000000000000E+48
(PID.TID 0000.0001)     ;
(PID.TID 0000.0001) GM_taper_scheme =  /* Type of Tapering/Clipping scheme */
(PID.TID 0000.0001)               '                                        '
(PID.TID 0000.0001)     ;
(PID.TID 0000.0001) GM_maxSlope =  /* Maximum Slope (Tapering/Clipping) */
(PID.TID 0000.0001)                 1.000000000000000E-02
(PID.TID 0000.0001)     ;
(PID.TID 0000.0001) GM_facTrL2dz = /* Minimum Trans.Layer Thick. (factor of dz) */
(PID.TID 0000.0001)                 1.000000000000000E+00
(PID.TID 0000.0001)     ;
(PID.TID 0000.0001) GM_facTrL2ML = /* Max.Trans.Layer Thick. (factor of MxL Depth)*/
(PID.TID 0000.0001)                 5.000000000000000E+00
(PID.TID 0000.0001)     ;
(PID.TID 0000.0001) GM_maxTransLay = /* Maximum Transition Layer Thickness [m] */
(PID.TID 0000.0001)                 5.000000000000000E+02
(PID.TID 0000.0001)     ;
(PID.TID 0000.0001) GM_UseBVP = /* if TRUE => use bvp a la Ferrari et al. (2010) */
(PID.TID 0000.0001)                   F
(PID.TID 0000.0001)     ;
(PID.TID 0000.0001) GM_BVP_ModeNumber = /* Vertical mode number for BVP wave speed */
(PID.TID 0000.0001)                       1
(PID.TID 0000.0001)     ;
(PID.TID 0000.0001) GM_BVP_cMin = /* Minimum wave speed for BVP [m/s] */
(PID.TID 0000.0001)                 1.000000000000000E-01
(PID.TID 0000.0001)     ;
(PID.TID 0000.0001) GM_useSubMeso = /* if TRUE => use Sub-Meso param. (B.Fox-Kemper) */
(PID.TID 0000.0001)                   F
(PID.TID 0000.0001)     ;
(PID.TID 0000.0001) subMeso_Ceff = /* efficiency coeff. of Mixed-Layer Eddies [-] */
(PID.TID 0000.0001)                 7.000000000000001E-02
(PID.TID 0000.0001)     ;
(PID.TID 0000.0001) subMeso_invTau = /* inverse of Sub-Meso mixing time-scale [/s] */
(PID.TID 0000.0001)                 2.000000000000000E-06
(PID.TID 0000.0001)     ;
(PID.TID 0000.0001) subMeso_LfMin = /* minimum length-scale "Lf" [m] */
(PID.TID 0000.0001)                 1.000000000000000E+03
(PID.TID 0000.0001)     ;
(PID.TID 0000.0001) subMeso_Lmax = /* maximum grid-scale length [m] */
(PID.TID 0000.0001)                 1.100000000000000E+05
(PID.TID 0000.0001)     ;
(PID.TID 0000.0001) GM_useLeithQG = /* if TRUE => add QG Leith viscosity to GMRedi tensor */
(PID.TID 0000.0001)                   F
(PID.TID 0000.0001)     ;
(PID.TID 0000.0001) GAD_CHECK: #define ALLOW_GENERIC_ADVDIFF
(PID.TID 0000.0001) // =======================================================
(PID.TID 0000.0001) // Check Model config. (CONFIG_CHECK):
(PID.TID 0000.0001) // CONFIG_CHECK : Normal End
(PID.TID 0000.0001) // =======================================================
(PID.TID 0000.0001) 
(PID.TID 0000.0001)  MDS_READ_FIELD: opening global file: Tini_flip.bin
(PID.TID 0000.0001)  MDS_READ_FIELD: opening global file: Sini_Ydir.bin
(PID.TID 0000.0001) Start initial hydrostatic pressure computation
(PID.TID 0000.0001) Pressure is predetermined for buoyancyRelation OCEANICP
(PID.TID 0000.0001) 
(PID.TID 0000.0001)  write diagnostics summary to file ioUnit:      6
Iter.Nb:         0 ; Time(s):  0.0000000000000E+00
------------------------------------------------------------------------
2D/3D diagnostics: Number of lists:     2
------------------------------------------------------------------------
listId=    1 ; file name: surfDiag
 nFlds, nActive,       freq     &     phase        , nLev               
    4  |    4  |   -864000.000000         0.000000 |   1
 levels:   1
 diag# | name   |   ipt  |  iMate | kLev|   count |   mate.C|           
    23 |ETAN    |      1 |      0 |   1 |       0 |
    25 |DETADT2 |      2 |      0 |   1 |       0 |
    73 |PHIBOT  |      3 |      0 |   1 |       0 |
    76 |MXLDEPTH|      4 |      0 |   1 |       0 |
------------------------------------------------------------------------
listId=    2 ; file name: oceDiag
 nFlds, nActive,       freq     &     phase        , nLev               
    4  |    4  |   -864000.000000         0.000000 |  25
 levels:   1   2   3   4   5   6   7   8   9  10  11  12  13  14  15  16  17  18  19  20  21  22  23  24  25
 diag# | name   |   ipt  |  iMate | kLev|   count |   mate.C|           
    77 |DRHODR  |      5 |      0 |  25 |       0 |
    64 |RHOAnoma|     30 |      0 |  25 |       0 |
   205 |GM_PsiY |     55 |      0 |  25 |       0 |
    26 |THETA   |     80 |      0 |  25 |       0 |
------------------------------------------------------------------------
Global & Regional Statistics diagnostics: Number of lists:     1
------------------------------------------------------------------------
listId=   1 ; file name: dynStDiag
 nFlds, nActive,       freq     &     phase        |                    
    9  |    9  |     86400.000000         0.000000 |
 Regions:   0
 diag# | name   |   ipt  |  iMate |    Volume   |   mate-Vol. |         
    23 |ETAN    |      1 |      0 | 0.00000E+00 |
    25 |DETADT2 |      2 |      0 | 0.00000E+00 |
    76 |MXLDEPTH|      3 |      0 | 0.00000E+00 |
    30 |UVEL    |      4 |      0 | 0.00000E+00 |
    31 |VVEL    |     29 |      0 | 0.00000E+00 |
    32 |WVEL    |     54 |      0 | 0.00000E+00 |
    26 |THETA   |     79 |      0 | 0.00000E+00 |
    27 |SALT    |    104 |      0 | 0.00000E+00 |
   205 |GM_PsiY |    129 |      0 | 0.00000E+00 |
------------------------------------------------------------------------
(PID.TID 0000.0001) // =======================================================
(PID.TID 0000.0001) // Model current state
(PID.TID 0000.0001) // =======================================================
(PID.TID 0000.0001) 
(PID.TID 0000.0001) // =======================================================
(PID.TID 0000.0001) // Begin MONITOR dynamic field statistics
(PID.TID 0000.0001) // =======================================================
(PID.TID 0000.0001) %MON time_tsnumber                =                     0
(PID.TID 0000.0001) %MON time_secondsf                =   0.0000000000000E+00
(PID.TID 0000.0001) %MON dynstat_eta_max              =   0.0000000000000E+00
(PID.TID 0000.0001) %MON dynstat_eta_min              =   0.0000000000000E+00
(PID.TID 0000.0001) %MON dynstat_eta_mean             =   0.0000000000000E+00
(PID.TID 0000.0001) %MON dynstat_eta_sd               =   0.0000000000000E+00
(PID.TID 0000.0001) %MON dynstat_eta_del2             =   0.0000000000000E+00
(PID.TID 0000.0001) %MON dynstat_uvel_max             =   0.0000000000000E+00
(PID.TID 0000.0001) %MON dynstat_uvel_min             =   0.0000000000000E+00
(PID.TID 0000.0001) %MON dynstat_uvel_mean            =   0.0000000000000E+00
(PID.TID 0000.0001) %MON dynstat_uvel_sd              =   0.0000000000000E+00
(PID.TID 0000.0001) %MON dynstat_uvel_del2            =   0.0000000000000E+00
(PID.TID 0000.0001) %MON dynstat_vvel_max             =   0.0000000000000E+00
(PID.TID 0000.0001) %MON dynstat_vvel_min             =   0.0000000000000E+00
(PID.TID 0000.0001) %MON dynstat_vvel_mean            =   0.0000000000000E+00
(PID.TID 0000.0001) %MON dynstat_vvel_sd              =   0.0000000000000E+00
(PID.TID 0000.0001) %MON dynstat_vvel_del2            =   0.0000000000000E+00
(PID.TID 0000.0001) %MON dynstat_wvel_max             =  -0.0000000000000E+00
(PID.TID 0000.0001) %MON dynstat_wvel_min             =  -0.0000000000000E+00
(PID.TID 0000.0001) %MON dynstat_wvel_mean            =   0.0000000000000E+00
(PID.TID 0000.0001) %MON dynstat_wvel_sd              =   0.0000000000000E+00
(PID.TID 0000.0001) %MON dynstat_wvel_del2            =   0.0000000000000E+00
(PID.TID 0000.0001) %MON dynstat_theta_max            =   2.0568423459062E+01
(PID.TID 0000.0001) %MON dynstat_theta_min            =   1.5559594024634E+01
(PID.TID 0000.0001) %MON dynstat_theta_mean           =   1.7563160569106E+01
(PID.TID 0000.0001) %MON dynstat_theta_sd             =   1.4157859662864E+00
(PID.TID 0000.0001) %MON dynstat_theta_del2           =   1.3832283076989E-04
(PID.TID 0000.0001) %MON dynstat_salt_max             =   1.0000000000000E+00
(PID.TID 0000.0001) %MON dynstat_salt_min             =   3.9497512775329E-01
(PID.TID 0000.0001) %MON dynstat_salt_mean            =   7.4692405417468E-01
(PID.TID 0000.0001) %MON dynstat_salt_sd              =   2.0066334606907E-01
(PID.TID 0000.0001) %MON dynstat_salt_del2            =   2.2833808829094E-04
(PID.TID 0000.0001) %MON advcfl_uvel_max              =   0.0000000000000E+00
(PID.TID 0000.0001) %MON advcfl_vvel_max              =   0.0000000000000E+00
(PID.TID 0000.0001) %MON advcfl_wvel_max              =   0.0000000000000E+00
(PID.TID 0000.0001) %MON advcfl_W_hf_max              =   0.0000000000000E+00
(PID.TID 0000.0001) %MON pe_b_mean                    =   0.0000000000000E+00
(PID.TID 0000.0001) %MON ke_max                       =   0.0000000000000E+00
(PID.TID 0000.0001) %MON ke_mean                      =   0.0000000000000E+00
(PID.TID 0000.0001) %MON ke_vol                       =   7.6260000000000E+16
(PID.TID 0000.0001) // =======================================================
(PID.TID 0000.0001) // End MONITOR dynamic field statistics
(PID.TID 0000.0001) // =======================================================
(PID.TID 0000.0001) SOLVE_FOR_PRESSURE: putPmEinXvector =    F
 cg2d: Sum(rhs),rhsMax =  -1.77635683940025E-15  1.58797367290666E-03
(PID.TID 0000.0001)      cg2d_init_res =   3.66943259391958E+00
(PID.TID 0000.0001)      cg2d_iters(min,last) =      -1      29
(PID.TID 0000.0001)      cg2d_last_res =   2.62069852495697E-14
(PID.TID 0000.0001) // =======================================================
(PID.TID 0000.0001) // Begin MONITOR dynamic field statistics
(PID.TID 0000.0001) // =======================================================
(PID.TID 0000.0001) %MON time_tsnumber                =                     1
(PID.TID 0000.0001) %MON time_secondsf                =   1.8000000000000E+03
(PID.TID 0000.0001) %MON dynstat_eta_max              =   1.5557723366522E+02
(PID.TID 0000.0001) %MON dynstat_eta_min              =  -1.5558765784397E+02
(PID.TID 0000.0001) %MON dynstat_eta_mean             =   6.8817204301075E-15
(PID.TID 0000.0001) %MON dynstat_eta_sd               =   1.1020598710218E+02
(PID.TID 0000.0001) %MON dynstat_eta_del2             =   1.9371307455929E-01
(PID.TID 0000.0001) %MON dynstat_uvel_max             =   0.0000000000000E+00
(PID.TID 0000.0001) %MON dynstat_uvel_min             =   0.0000000000000E+00
(PID.TID 0000.0001) %MON dynstat_uvel_mean            =   0.0000000000000E+00
(PID.TID 0000.0001) %MON dynstat_uvel_sd              =   0.0000000000000E+00
(PID.TID 0000.0001) %MON dynstat_uvel_del2            =   0.0000000000000E+00
(PID.TID 0000.0001) %MON dynstat_vvel_max             =   1.3128066602188E-02
(PID.TID 0000.0001) %MON dynstat_vvel_min             =  -2.8362586785198E-03
(PID.TID 0000.0001) %MON dynstat_vvel_mean            =   2.2931210896786E-04
(PID.TID 0000.0001) %MON dynstat_vvel_sd              =   3.2651278500394E-03
(PID.TID 0000.0001) %MON dynstat_vvel_del2            =   2.6202611870364E-06
(PID.TID 0000.0001) %MON dynstat_wvel_max             =   4.7972938945664E-01
(PID.TID 0000.0001) %MON dynstat_wvel_min             =  -4.7985643880251E-01
(PID.TID 0000.0001) %MON dynstat_wvel_mean            =   0.0000000000000E+00
(PID.TID 0000.0001) %MON dynstat_wvel_sd              =   2.3374758431521E-01
(PID.TID 0000.0001) %MON dynstat_wvel_del2            =   1.0710142090916E-04
(PID.TID 0000.0001) %MON dynstat_theta_max            =   2.0568357008590E+01
(PID.TID 0000.0001) %MON dynstat_theta_min            =   1.5559631901312E+01
(PID.TID 0000.0001) %MON dynstat_theta_mean           =   1.7563160570394E+01
(PID.TID 0000.0001) %MON dynstat_theta_sd             =   1.4157858259385E+00
(PID.TID 0000.0001) %MON dynstat_theta_del2           =   1.3827380924862E-04
(PID.TID 0000.0001) %MON dynstat_salt_max             =   1.0000000477352E+00
(PID.TID 0000.0001) %MON dynstat_salt_min             =   3.9493751506946E-01
(PID.TID 0000.0001) %MON dynstat_salt_mean            =   7.4692405414478E-01
(PID.TID 0000.0001) %MON dynstat_salt_sd              =   2.0066334599950E-01
(PID.TID 0000.0001) %MON dynstat_salt_del2            =   2.2833823865495E-04
(PID.TID 0000.0001) %MON advcfl_uvel_max              =   0.0000000000000E+00
(PID.TID 0000.0001) %MON advcfl_vvel_max              =   2.9899710976616E-03
(PID.TID 0000.0001) %MON advcfl_wvel_max              =   8.4399697385718E-04
(PID.TID 0000.0001) %MON advcfl_W_hf_max              =   8.8841786721808E-04
(PID.TID 0000.0001) %MON pe_b_mean                    =   2.4685690230013E-07
(PID.TID 0000.0001) %MON ke_max                       =   8.6617177503151E-05
(PID.TID 0000.0001) %MON ke_mean                      =   5.1629662647901E-06
(PID.TID 0000.0001) %MON ke_vol                       =   7.6260000000000E+16
(PID.TID 0000.0001) // =======================================================
(PID.TID 0000.0001) // End MONITOR dynamic field statistics
(PID.TID 0000.0001) // =======================================================
 Computing Diagnostic #     23  ETAN         Counter:       1   Parms: SM      M1      
 Computing Diagnostic #     25  DETADT2      Counter:       1   Parms: SM      M1      
 Computing Diagnostic #     73  PHIBOT       Counter:       1   Parms: SM      M1      
 Computing Diagnostic #     76  MXLDEPTH     Counter:       1   Parms: SM      M1      
 Computing Diagnostic #     77  DRHODR       Counter:       1   Parms: SM      LR      
 Computing Diagnostic #     64  RHOAnoma     Counter:       1   Parms: SMR     MR      
 Computing Diagnostic #    205  GM_PsiY      Counter:       1   Parms: VV      LR      
           Vector  Mate for  GM_PsiY      Diagnostic #    204  GM_PsiX  not enabled
 Computing Diagnostic #     26  THETA        Counter:       1   Parms: SMR     MR      
 cg2d: Sum(rhs),rhsMax =  -1.77635683940025E-15  1.93210661430192E-03
(PID.TID 0000.0001)      cg2d_init_res =   6.52622869842623E-01
(PID.TID 0000.0001)      cg2d_iters(min,last) =      -1      29
(PID.TID 0000.0001)      cg2d_last_res =   4.11857326999871E-14
(PID.TID 0000.0001) // =======================================================
(PID.TID 0000.0001) // Begin MONITOR dynamic field statistics
(PID.TID 0000.0001) // =======================================================
(PID.TID 0000.0001) %MON time_tsnumber                =                     2
(PID.TID 0000.0001) %MON time_secondsf                =   3.6000000000000E+03
(PID.TID 0000.0001) %MON dynstat_eta_max              =   1.8927010805341E+02
(PID.TID 0000.0001) %MON dynstat_eta_min              =  -1.8922839174668E+02
(PID.TID 0000.0001) %MON dynstat_eta_mean             =   0.0000000000000E+00
(PID.TID 0000.0001) %MON dynstat_eta_sd               =   1.3405302579513E+02
(PID.TID 0000.0001) %MON dynstat_eta_del2             =   2.3565003523134E-01
(PID.TID 0000.0001) %MON dynstat_uvel_max             =   3.7808558590986E-03
(PID.TID 0000.0001) %MON dynstat_uvel_min             =  -8.1683809216090E-04
(PID.TID 0000.0001) %MON dynstat_uvel_mean            =   6.4062744684286E-05
(PID.TID 0000.0001) %MON dynstat_uvel_sd              =   9.2247119195655E-04
(PID.TID 0000.0001) %MON dynstat_uvel_del2            =   1.4719837262450E-06
(PID.TID 0000.0001) %MON dynstat_vvel_max             =   2.5628126888183E-02
(PID.TID 0000.0001) %MON dynstat_vvel_min             =  -6.2868362388939E-03
(PID.TID 0000.0001) %MON dynstat_vvel_mean            =   4.9620217159477E-05
(PID.TID 0000.0001) %MON dynstat_vvel_sd              =   6.5243112091218E-03
(PID.TID 0000.0001) %MON dynstat_vvel_del2            =   5.1007292378495E-06
(PID.TID 0000.0001) %MON dynstat_wvel_max             =   9.0839355663809E-01
(PID.TID 0000.0001) %MON dynstat_wvel_min             =  -9.0817430685630E-01
(PID.TID 0000.0001) %MON dynstat_wvel_mean            =  -7.2354537232439E-17
(PID.TID 0000.0001) %MON dynstat_wvel_sd              =   4.2422235419079E-01
(PID.TID 0000.0001) %MON dynstat_wvel_del2            =   2.0033439048432E-04
(PID.TID 0000.0001) %MON dynstat_theta_max            =   2.0568279584414E+01
(PID.TID 0000.0001) %MON dynstat_theta_min            =   1.5559685678835E+01
(PID.TID 0000.0001) %MON dynstat_theta_mean           =   1.7563160570647E+01
(PID.TID 0000.0001) %MON dynstat_theta_sd             =   1.4157856868641E+00
(PID.TID 0000.0001) %MON dynstat_theta_del2           =   1.3820113827828E-04
(PID.TID 0000.0001) %MON dynstat_salt_max             =   1.0000000175365E+00
(PID.TID 0000.0001) %MON dynstat_salt_min             =   3.9489361993584E-01
(PID.TID 0000.0001) %MON dynstat_salt_mean            =   7.4692405430485E-01
(PID.TID 0000.0001) %MON dynstat_salt_sd              =   2.0066334586102E-01
(PID.TID 0000.0001) %MON dynstat_salt_del2            =   2.2833855714889E-04
(PID.TID 0000.0001) %MON advcfl_uvel_max              =   6.8055405463775E-04
(PID.TID 0000.0001) %MON advcfl_vvel_max              =   5.8369111770120E-03
(PID.TID 0000.0001) %MON advcfl_wvel_max              =   1.6342123628268E-03
(PID.TID 0000.0001) %MON advcfl_W_hf_max              =   1.7202235398176E-03
(PID.TID 0000.0001) %MON pe_b_mean                    =   3.6524824643965E-07
(PID.TID 0000.0001) %MON ke_max                       =   3.3724112201839E-04
(PID.TID 0000.0001) %MON ke_mean                      =   2.0941820742721E-05
(PID.TID 0000.0001) %MON ke_vol                       =   7.6260000000000E+16
(PID.TID 0000.0001) // =======================================================
(PID.TID 0000.0001) // End MONITOR dynamic field statistics
(PID.TID 0000.0001) // =======================================================
 cg2d: Sum(rhs),rhsMax =   3.55271367880050E-15  1.81437629617699E-03
(PID.TID 0000.0001)      cg2d_init_res =   2.35914237812226E-01
(PID.TID 0000.0001)      cg2d_iters(min,last) =      -1      29
(PID.TID 0000.0001)      cg2d_last_res =   4.10020518737266E-14
(PID.TID 0000.0001) // =======================================================
(PID.TID 0000.0001) // Begin MONITOR dynamic field statistics
(PID.TID 0000.0001) // =======================================================
(PID.TID 0000.0001) %MON time_tsnumber                =                     3
(PID.TID 0000.0001) %MON time_secondsf                =   5.4000000000000E+03
(PID.TID 0000.0001) %MON dynstat_eta_max              =   1.7790729751839E+02
(PID.TID 0000.0001) %MON dynstat_eta_min              =  -1.7773182653242E+02
(PID.TID 0000.0001) %MON dynstat_eta_mean             =   1.3763440860215E-14
(PID.TID 0000.0001) %MON dynstat_eta_sd               =   1.2596061422695E+02
(PID.TID 0000.0001) %MON dynstat_eta_del2             =   2.2153254645648E-01
(PID.TID 0000.0001) %MON dynstat_uvel_max             =   9.7436305699172E-03
(PID.TID 0000.0001) %MON dynstat_uvel_min             =  -2.3210753989396E-03
(PID.TID 0000.0001) %MON dynstat_uvel_mean            =   5.3901578347280E-05
(PID.TID 0000.0001) %MON dynstat_uvel_sd              =   2.4194805846988E-03
(PID.TID 0000.0001) %MON dynstat_uvel_del2            =   3.7796064975966E-06
(PID.TID 0000.0001) %MON dynstat_vvel_max             =   3.7228729758793E-02
(PID.TID 0000.0001) %MON dynstat_vvel_min             =  -9.2945378856900E-03
(PID.TID 0000.0001) %MON dynstat_vvel_mean            =  -1.6838752808778E-05
(PID.TID 0000.0001) %MON dynstat_vvel_sd              =   9.5102070524638E-03
(PID.TID 0000.0001) %MON dynstat_vvel_del2            =   7.4292600079007E-06
(PID.TID 0000.0001) %MON dynstat_wvel_max             =   1.3061170261151E+00
(PID.TID 0000.0001) %MON dynstat_wvel_min             =  -1.3044902045698E+00
(PID.TID 0000.0001) %MON dynstat_wvel_mean            =  -4.8236358154959E-17
(PID.TID 0000.0001) %MON dynstat_wvel_sd              =   6.0979687942906E-01
(PID.TID 0000.0001) %MON dynstat_wvel_del2            =   4.2897546601790E-04
(PID.TID 0000.0001) %MON dynstat_theta_max            =   2.0568192214211E+01
(PID.TID 0000.0001) %MON dynstat_theta_min            =   1.5559758649108E+01
(PID.TID 0000.0001) %MON dynstat_theta_mean           =   1.7563160570574E+01
(PID.TID 0000.0001) %MON dynstat_theta_sd             =   1.4157855479719E+00
(PID.TID 0000.0001) %MON dynstat_theta_del2           =   1.3808865862720E-04
(PID.TID 0000.0001) %MON dynstat_salt_max             =   9.9999995325719E-01
(PID.TID 0000.0001) %MON dynstat_salt_min             =   3.9484410779191E-01
(PID.TID 0000.0001) %MON dynstat_salt_mean            =   7.4692405467823E-01
(PID.TID 0000.0001) %MON dynstat_salt_sd              =   2.0066334563533E-01
(PID.TID 0000.0001) %MON dynstat_salt_del2            =   2.2833914649875E-04
(PID.TID 0000.0001) %MON advcfl_uvel_max              =   1.7538535025851E-03
(PID.TID 0000.0001) %MON advcfl_vvel_max              =   8.4789961351118E-03
(PID.TID 0000.0001) %MON advcfl_wvel_max              =   2.3584709817946E-03
(PID.TID 0000.0001) %MON advcfl_W_hf_max              =   2.4826010334680E-03
(PID.TID 0000.0001) %MON pe_b_mean                    =   3.2248122635021E-07
(PID.TID 0000.0001) %MON ke_max                       =   7.4399575370384E-04
(PID.TID 0000.0001) %MON ke_mean                      =   4.6514031630433E-05
(PID.TID 0000.0001) %MON ke_vol                       =   7.6260000000000E+16
(PID.TID 0000.0001) // =======================================================
(PID.TID 0000.0001) // End MONITOR dynamic field statistics
(PID.TID 0000.0001) // =======================================================
 cg2d: Sum(rhs),rhsMax =   1.77635683940025E-15  1.76388923072670E-03
(PID.TID 0000.0001)      cg2d_init_res =   1.27481803344397E-01
(PID.TID 0000.0001)      cg2d_iters(min,last) =      -1      29
(PID.TID 0000.0001)      cg2d_last_res =   4.89651169869164E-14
(PID.TID 0000.0001) // =======================================================
(PID.TID 0000.0001) // Begin MONITOR dynamic field statistics
(PID.TID 0000.0001) // =======================================================
(PID.TID 0000.0001) %MON time_tsnumber                =                     4
(PID.TID 0000.0001) %MON time_secondsf                =   7.2000000000000E+03
(PID.TID 0000.0001) %MON dynstat_eta_max              =   1.7203141506454E+02
(PID.TID 0000.0001) %MON dynstat_eta_min              =  -1.7167472475530E+02
(PID.TID 0000.0001) %MON dynstat_eta_mean             =  -2.7526881720430E-14
(PID.TID 0000.0001) %MON dynstat_eta_sd               =   1.2173044387882E+02
(PID.TID 0000.0001) %MON dynstat_eta_del2             =   2.1385724123782E-01
(PID.TID 0000.0001) %MON dynstat_uvel_max             =   1.7696666091210E-02
(PID.TID 0000.0001) %MON dynstat_uvel_min             =  -4.3187221077925E-03
(PID.TID 0000.0001) %MON dynstat_uvel_mean            =   4.3998947658208E-05
(PID.TID 0000.0001) %MON dynstat_uvel_sd              =   4.4147721455289E-03
(PID.TID 0000.0001) %MON dynstat_uvel_del2            =   6.8537571736333E-06
(PID.TID 0000.0001) %MON dynstat_vvel_max             =   4.7603013615444E-02
(PID.TID 0000.0001) %MON dynstat_vvel_min             =  -1.1849486253966E-02
(PID.TID 0000.0001) %MON dynstat_vvel_mean            =  -8.8020587067434E-06
(PID.TID 0000.0001) %MON dynstat_vvel_sd              =   1.2152417543862E-02
(PID.TID 0000.0001) %MON dynstat_vvel_del2            =   9.5513866595556E-06
(PID.TID 0000.0001) %MON dynstat_wvel_max             =   1.6888319664368E+00
(PID.TID 0000.0001) %MON dynstat_wvel_min             =  -1.6837151938994E+00
(PID.TID 0000.0001) %MON dynstat_wvel_mean            =   1.4470907446488E-16
(PID.TID 0000.0001) %MON dynstat_wvel_sd              =   7.8028835567348E-01
(PID.TID 0000.0001) %MON dynstat_wvel_del2            =   9.2403725161636E-04
(PID.TID 0000.0001) %MON dynstat_theta_max            =   2.0568096251905E+01
(PID.TID 0000.0001) %MON dynstat_theta_min            =   1.5559851501755E+01
(PID.TID 0000.0001) %MON dynstat_theta_mean           =   1.7563160570544E+01
(PID.TID 0000.0001) %MON dynstat_theta_sd             =   1.4157854086769E+00
(PID.TID 0000.0001) %MON dynstat_theta_del2           =   1.3791955766793E-04
(PID.TID 0000.0001) %MON dynstat_salt_max             =   9.9999988989979E-01
(PID.TID 0000.0001) %MON dynstat_salt_min             =   3.9478983111048E-01
(PID.TID 0000.0001) %MON dynstat_salt_mean            =   7.4692405519022E-01
(PID.TID 0000.0001) %MON dynstat_salt_sd              =   2.0066334532143E-01
(PID.TID 0000.0001) %MON dynstat_salt_del2            =   2.2834012320413E-04
(PID.TID 0000.0001) %MON advcfl_uvel_max              =   3.1853998964178E-03
(PID.TID 0000.0001) %MON advcfl_vvel_max              =   1.0841781900165E-02
(PID.TID 0000.0001) %MON advcfl_wvel_max              =   3.0496832344428E-03
(PID.TID 0000.0001) %MON advcfl_W_hf_max              =   3.2101928783609E-03
(PID.TID 0000.0001) %MON pe_b_mean                    =   3.0118497900274E-07
(PID.TID 0000.0001) %MON ke_max                       =   1.2953112828550E-03
(PID.TID 0000.0001) %MON ke_mean                      =   8.0914551681041E-05
(PID.TID 0000.0001) %MON ke_vol                       =   7.6260000000000E+16
(PID.TID 0000.0001) // =======================================================
(PID.TID 0000.0001) // End MONITOR dynamic field statistics
(PID.TID 0000.0001) // =======================================================
 cg2d: Sum(rhs),rhsMax =  -3.55271367880050E-15  1.77766585460704E-03
(PID.TID 0000.0001)      cg2d_init_res =   3.15152465957338E-02
(PID.TID 0000.0001)      cg2d_iters(min,last) =      -1      30
(PID.TID 0000.0001)      cg2d_last_res =   1.38866714622148E-16
(PID.TID 0000.0001) // =======================================================
(PID.TID 0000.0001) // Begin MONITOR dynamic field statistics
(PID.TID 0000.0001) // =======================================================
(PID.TID 0000.0001) %MON time_tsnumber                =                     5
(PID.TID 0000.0001) %MON time_secondsf                =   9.0000000000000E+03
(PID.TID 0000.0001) %MON dynstat_eta_max              =   1.7151153344182E+02
(PID.TID 0000.0001) %MON dynstat_eta_min              =  -1.7095171500074E+02
(PID.TID 0000.0001) %MON dynstat_eta_mean             =  -9.6344086021505E-14
(PID.TID 0000.0001) %MON dynstat_eta_sd               =   1.2128101160763E+02
(PID.TID 0000.0001) %MON dynstat_eta_del2             =   2.1251639568312E-01
(PID.TID 0000.0001) %MON dynstat_uvel_max             =   2.7383577234079E-02
(PID.TID 0000.0001) %MON dynstat_uvel_min             =  -6.7271440772619E-03
(PID.TID 0000.0001) %MON dynstat_uvel_mean            =   4.3304024131172E-05
(PID.TID 0000.0001) %MON dynstat_uvel_sd              =   6.8401005708103E-03
(PID.TID 0000.0001) %MON dynstat_uvel_del2            =   1.0594757342584E-05
(PID.TID 0000.0001) %MON dynstat_vvel_max             =   5.6309586982853E-02
(PID.TID 0000.0001) %MON dynstat_vvel_min             =  -1.3981493012790E-02
(PID.TID 0000.0001) %MON dynstat_vvel_mean            =  -9.3515932387992E-07
(PID.TID 0000.0001) %MON dynstat_vvel_sd              =   1.4366689151379E-02
(PID.TID 0000.0001) %MON dynstat_vvel_del2            =   1.1393022164506E-05
(PID.TID 0000.0001) %MON dynstat_wvel_max             =   2.0242686528188E+00
(PID.TID 0000.0001) %MON dynstat_wvel_min             =  -2.0122743198974E+00
(PID.TID 0000.0001) %MON dynstat_wvel_mean            =   4.8236358154959E-17
(PID.TID 0000.0001) %MON dynstat_wvel_sd              =   9.2319492671052E-01
(PID.TID 0000.0001) %MON dynstat_wvel_del2            =   1.6742921837883E-03
(PID.TID 0000.0001) %MON dynstat_theta_max            =   2.0567993461917E+01
(PID.TID 0000.0001) %MON dynstat_theta_min            =   1.5559960396361E+01
(PID.TID 0000.0001) %MON dynstat_theta_mean           =   1.7563160570542E+01
(PID.TID 0000.0001) %MON dynstat_theta_sd             =   1.4157852689930E+00
(PID.TID 0000.0001) %MON dynstat_theta_del2           =   1.3767937509935E-04
(PID.TID 0000.0001) %MON dynstat_salt_max             =   9.9999984747904E-01
(PID.TID 0000.0001) %MON dynstat_salt_min             =   3.9473187049957E-01
(PID.TID 0000.0001) %MON dynstat_salt_mean            =   7.4692405578029E-01
(PID.TID 0000.0001) %MON dynstat_salt_sd              =   2.0066334492560E-01
(PID.TID 0000.0001) %MON dynstat_salt_del2            =   2.2834159860942E-04
(PID.TID 0000.0001) %MON advcfl_uvel_max              =   4.9290439021342E-03
(PID.TID 0000.0001) %MON advcfl_vvel_max              =   1.2824739750477E-02
(PID.TID 0000.0001) %MON advcfl_wvel_max              =   3.6579674460460E-03
(PID.TID 0000.0001) %MON advcfl_W_hf_max              =   3.8504920484695E-03
(PID.TID 0000.0001) %MON pe_b_mean                    =   2.9896511740997E-07
(PID.TID 0000.0001) %MON ke_max                       =   1.9681485248331E-03
(PID.TID 0000.0001) %MON ke_mean                      =   1.2286061291594E-04
(PID.TID 0000.0001) %MON ke_vol                       =   7.6260000000000E+16
(PID.TID 0000.0001) // =======================================================
(PID.TID 0000.0001) // End MONITOR dynamic field statistics
(PID.TID 0000.0001) // =======================================================
 cg2d: Sum(rhs),rhsMax =   5.32907051820075E-15  1.80940599294928E-03
(PID.TID 0000.0001)      cg2d_init_res =   5.23805795309115E-02
(PID.TID 0000.0001)      cg2d_iters(min,last) =      -1      30
(PID.TID 0000.0001)      cg2d_last_res =   1.33838338556916E-16
(PID.TID 0000.0001) // =======================================================
(PID.TID 0000.0001) // Begin MONITOR dynamic field statistics
(PID.TID 0000.0001) // =======================================================
(PID.TID 0000.0001) %MON time_tsnumber                =                     6
(PID.TID 0000.0001) %MON time_secondsf                =   1.0800000000000E+04
(PID.TID 0000.0001) %MON dynstat_eta_max              =   1.7124563712960E+02
(PID.TID 0000.0001) %MON dynstat_eta_min              =  -1.7048891349217E+02
(PID.TID 0000.0001) %MON dynstat_eta_mean             =  -1.3763440860215E-13
(PID.TID 0000.0001) %MON dynstat_eta_sd               =   1.2100462117202E+02
(PID.TID 0000.0001) %MON dynstat_eta_del2             =   2.1100710788490E-01
(PID.TID 0000.0001) %MON dynstat_uvel_max             =   3.8456135555835E-02
(PID.TID 0000.0001) %MON dynstat_uvel_min             =  -9.4733616221897E-03
(PID.TID 0000.0001) %MON dynstat_uvel_mean            =   4.3964925058089E-05
(PID.TID 0000.0001) %MON dynstat_uvel_sd              =   9.6108856075733E-03
(PID.TID 0000.0001) %MON dynstat_uvel_del2            =   1.4868539146290E-05
(PID.TID 0000.0001) %MON dynstat_vvel_max             =   6.3054022482934E-02
(PID.TID 0000.0001) %MON dynstat_vvel_min             =  -1.5630249794301E-02
(PID.TID 0000.0001) %MON dynstat_vvel_mean            =  -5.7493801463224E-07
(PID.TID 0000.0001) %MON dynstat_vvel_sd              =   1.6080489906014E-02
(PID.TID 0000.0001) %MON dynstat_vvel_del2            =   1.2907055592214E-05
(PID.TID 0000.0001) %MON dynstat_wvel_max             =   2.2998774647965E+00
(PID.TID 0000.0001) %MON dynstat_wvel_min             =  -2.2763290507881E+00
(PID.TID 0000.0001) %MON dynstat_wvel_mean            =  -4.8236358154959E-17
(PID.TID 0000.0001) %MON dynstat_wvel_sd              =   1.0331752577017E+00
(PID.TID 0000.0001) %MON dynstat_wvel_del2            =   2.6160889757477E-03
(PID.TID 0000.0001) %MON dynstat_theta_max            =   2.0567885857925E+01
(PID.TID 0000.0001) %MON dynstat_theta_min            =   1.5559900473491E+01
(PID.TID 0000.0001) %MON dynstat_theta_mean           =   1.7563160570542E+01
(PID.TID 0000.0001) %MON dynstat_theta_sd             =   1.4157851289921E+00
(PID.TID 0000.0001) %MON dynstat_theta_del2           =   1.3735927986578E-04
(PID.TID 0000.0001) %MON dynstat_salt_max             =   9.9999981126209E-01
(PID.TID 0000.0001) %MON dynstat_salt_min             =   3.9467143349868E-01
(PID.TID 0000.0001) %MON dynstat_salt_mean            =   7.4692405636005E-01
(PID.TID 0000.0001) %MON dynstat_salt_sd              =   2.0066334446582E-01
(PID.TID 0000.0001) %MON dynstat_salt_del2            =   2.2834366055682E-04
(PID.TID 0000.0001) %MON advcfl_uvel_max              =   6.9221044000503E-03
(PID.TID 0000.0001) %MON advcfl_vvel_max              =   1.4360812641204E-02
(PID.TID 0000.0001) %MON advcfl_wvel_max              =   4.1631412742693E-03
(PID.TID 0000.0001) %MON advcfl_W_hf_max              =   4.3822539729151E-03
(PID.TID 0000.0001) %MON pe_b_mean                    =   2.9760403140213E-07
(PID.TID 0000.0001) %MON ke_max                       =   2.7369491022125E-03
(PID.TID 0000.0001) %MON ke_mean                      =   1.7079774703635E-04
(PID.TID 0000.0001) %MON ke_vol                       =   7.6260000000000E+16
(PID.TID 0000.0001) // =======================================================
(PID.TID 0000.0001) // End MONITOR dynamic field statistics
(PID.TID 0000.0001) // =======================================================
 cg2d: Sum(rhs),rhsMax =   8.88178419700125E-15  1.85459859634302E-03
(PID.TID 0000.0001)      cg2d_init_res =   8.02985379114703E-02
(PID.TID 0000.0001)      cg2d_iters(min,last) =      -1      30
(PID.TID 0000.0001)      cg2d_last_res =   1.24889832915031E-16
(PID.TID 0000.0001) // =======================================================
(PID.TID 0000.0001) // Begin MONITOR dynamic field statistics
(PID.TID 0000.0001) // =======================================================
(PID.TID 0000.0001) %MON time_tsnumber                =                     7
(PID.TID 0000.0001) %MON time_secondsf                =   1.2600000000000E+04
(PID.TID 0000.0001) %MON dynstat_eta_max              =   1.7040215693952E+02
(PID.TID 0000.0001) %MON dynstat_eta_min              =  -1.6948071734541E+02
(PID.TID 0000.0001) %MON dynstat_eta_mean             =  -6.1935483870968E-14
(PID.TID 0000.0001) %MON dynstat_eta_sd               =   1.2031863530381E+02
(PID.TID 0000.0001) %MON dynstat_eta_del2             =   2.0826780040581E-01
(PID.TID 0000.0001) %MON dynstat_uvel_max             =   5.0529029015255E-02
(PID.TID 0000.0001) %MON dynstat_uvel_min             =  -1.2463820286463E-02
(PID.TID 0000.0001) %MON dynstat_uvel_mean            =   4.3902321062829E-05
(PID.TID 0000.0001) %MON dynstat_uvel_sd              =   1.2631033645190E-02
(PID.TID 0000.0001) %MON dynstat_uvel_del2            =   1.9528836147423E-05
(PID.TID 0000.0001) %MON dynstat_vvel_max             =   6.7630639651715E-02
(PID.TID 0000.0001) %MON dynstat_vvel_min             =  -1.6732465312934E-02
(PID.TID 0000.0001) %MON dynstat_vvel_mean            =  -1.4269063989697E-06
(PID.TID 0000.0001) %MON dynstat_vvel_sd              =   1.7238884166729E-02
(PID.TID 0000.0001) %MON dynstat_vvel_del2            =   1.4056373990672E-05
(PID.TID 0000.0001) %MON dynstat_wvel_max             =   2.5055063947965E+00
(PID.TID 0000.0001) %MON dynstat_wvel_min             =  -2.4648343675770E+00
(PID.TID 0000.0001) %MON dynstat_wvel_mean            =   9.6472716309919E-17
(PID.TID 0000.0001) %MON dynstat_wvel_sd              =   1.1073046068658E+00
(PID.TID 0000.0001) %MON dynstat_wvel_del2            =   3.6582166876245E-03
(PID.TID 0000.0001) %MON dynstat_theta_max            =   2.0567775591450E+01
(PID.TID 0000.0001) %MON dynstat_theta_min            =   1.5559763420474E+01
(PID.TID 0000.0001) %MON dynstat_theta_mean           =   1.7563160570544E+01
(PID.TID 0000.0001) %MON dynstat_theta_sd             =   1.4157849887441E+00
(PID.TID 0000.0001) %MON dynstat_theta_del2           =   1.3695864980176E-04
(PID.TID 0000.0001) %MON dynstat_salt_max             =   9.9999977988081E-01
(PID.TID 0000.0001) %MON dynstat_salt_min             =   3.9460978478683E-01
(PID.TID 0000.0001) %MON dynstat_salt_mean            =   7.4692405685034E-01
(PID.TID 0000.0001) %MON dynstat_salt_sd              =   2.0066334396675E-01
(PID.TID 0000.0001) %MON dynstat_salt_del2            =   2.2834635791489E-04
(PID.TID 0000.0001) %MON advcfl_uvel_max              =   9.0952252227458E-03
(PID.TID 0000.0001) %MON advcfl_vvel_max              =   1.5403156001760E-02
(PID.TID 0000.0001) %MON advcfl_wvel_max              =   4.5483004662086E-03
(PID.TID 0000.0001) %MON advcfl_W_hf_max              =   4.7876847012723E-03
(PID.TID 0000.0001) %MON pe_b_mean                    =   2.9423930897098E-07
(PID.TID 0000.0001) %MON ke_max                       =   3.5743128496323E-03
(PID.TID 0000.0001) %MON ke_mean                      =   2.2298479085398E-04
(PID.TID 0000.0001) %MON ke_vol                       =   7.6260000000000E+16
(PID.TID 0000.0001) // =======================================================
(PID.TID 0000.0001) // End MONITOR dynamic field statistics
(PID.TID 0000.0001) // =======================================================
 cg2d: Sum(rhs),rhsMax =   2.66453525910038E-15  1.91817196081467E-03
(PID.TID 0000.0001)      cg2d_init_res =   1.03263013732895E-01
(PID.TID 0000.0001)      cg2d_iters(min,last) =      -1      30
(PID.TID 0000.0001)      cg2d_last_res =   9.40080978285152E-17
(PID.TID 0000.0001) // =======================================================
(PID.TID 0000.0001) // Begin MONITOR dynamic field statistics
(PID.TID 0000.0001) // =======================================================
(PID.TID 0000.0001) %MON time_tsnumber                =                     8
(PID.TID 0000.0001) %MON time_secondsf                =   1.4400000000000E+04
(PID.TID 0000.0001) %MON dynstat_eta_max              =   1.6936095230575E+02
(PID.TID 0000.0001) %MON dynstat_eta_min              =  -1.6832719748214E+02
(PID.TID 0000.0001) %MON dynstat_eta_mean             =  -7.5698924731183E-14
(PID.TID 0000.0001) %MON dynstat_eta_sd               =   1.1949829843003E+02
(PID.TID 0000.0001) %MON dynstat_eta_del2             =   2.0489498738983E-01
(PID.TID 0000.0001) %MON dynstat_uvel_max             =   6.3189589295450E-02
(PID.TID 0000.0001) %MON dynstat_uvel_min             =  -1.5593272296524E-02
(PID.TID 0000.0001) %MON dynstat_uvel_mean            =   4.3563995966605E-05
(PID.TID 0000.0001) %MON dynstat_uvel_sd              =   1.5796631146478E-02
(PID.TID 0000.0001) %MON dynstat_uvel_del2            =   2.4420036388713E-05
(PID.TID 0000.0001) %MON dynstat_vvel_max             =   6.9901333858793E-02
(PID.TID 0000.0001) %MON dynstat_vvel_min             =  -1.7250922058432E-02
(PID.TID 0000.0001) %MON dynstat_vvel_mean            =  -1.7060393648694E-06
(PID.TID 0000.0001) %MON dynstat_vvel_sd              =   1.7806135339522E-02
(PID.TID 0000.0001) %MON dynstat_vvel_del2            =   1.4809394472907E-05
(PID.TID 0000.0001) %MON dynstat_wvel_max             =   2.6319394822060E+00
(PID.TID 0000.0001) %MON dynstat_wvel_min             =  -2.5684715839472E+00
(PID.TID 0000.0001) %MON dynstat_wvel_mean            =   1.9294543261984E-16
(PID.TID 0000.0001) %MON dynstat_wvel_sd              =   1.1434607970525E+00
(PID.TID 0000.0001) %MON dynstat_wvel_del2            =   4.6996833433933E-03
(PID.TID 0000.0001) %MON dynstat_theta_max            =   2.0567664866207E+01
(PID.TID 0000.0001) %MON dynstat_theta_min            =   1.5559622490201E+01
(PID.TID 0000.0001) %MON dynstat_theta_mean           =   1.7563160570549E+01
(PID.TID 0000.0001) %MON dynstat_theta_sd             =   1.4157848483438E+00
(PID.TID 0000.0001) %MON dynstat_theta_del2           =   1.3648560921697E-04
(PID.TID 0000.0001) %MON dynstat_salt_max             =   9.9999974847614E-01
(PID.TID 0000.0001) %MON dynstat_salt_min             =   3.9454819390032E-01
(PID.TID 0000.0001) %MON dynstat_salt_mean            =   7.4692405719184E-01
(PID.TID 0000.0001) %MON dynstat_salt_sd              =   2.0066334345651E-01
(PID.TID 0000.0001) %MON dynstat_salt_del2            =   2.2834968933739E-04
(PID.TID 0000.0001) %MON advcfl_uvel_max              =   1.1374126073181E-02
(PID.TID 0000.0001) %MON advcfl_vvel_max              =   1.5920315935246E-02
(PID.TID 0000.0001) %MON advcfl_wvel_max              =   4.7985394534725E-03
(PID.TID 0000.0001) %MON advcfl_W_hf_max              =   5.0510941615500E-03
(PID.TID 0000.0001) %MON pe_b_mean                    =   2.9024071804211E-07
(PID.TID 0000.0001) %MON ke_max                       =   4.4507302716311E-03
(PID.TID 0000.0001) %MON ke_mean                      =   2.7756001082679E-04
(PID.TID 0000.0001) %MON ke_vol                       =   7.6260000000000E+16
(PID.TID 0000.0001) // =======================================================
(PID.TID 0000.0001) // End MONITOR dynamic field statistics
(PID.TID 0000.0001) // =======================================================
 cg2d: Sum(rhs),rhsMax =  -8.88178419700125E-16  2.00508929015502E-03
(PID.TID 0000.0001)      cg2d_init_res =   1.17536450194189E-01
(PID.TID 0000.0001)      cg2d_iters(min,last) =      -1      30
(PID.TID 0000.0001)      cg2d_last_res =   5.18937799042139E-17
(PID.TID 0000.0001) // =======================================================
(PID.TID 0000.0001) // Begin MONITOR dynamic field statistics
(PID.TID 0000.0001) // =======================================================
(PID.TID 0000.0001) %MON time_tsnumber                =                     9
(PID.TID 0000.0001) %MON time_secondsf                =   1.6200000000000E+04
(PID.TID 0000.0001) %MON dynstat_eta_max              =   1.6829593326007E+02
(PID.TID 0000.0001) %MON dynstat_eta_min              =  -1.6721463083656E+02
(PID.TID 0000.0001) %MON dynstat_eta_mean             =  -6.8817204301075E-15
(PID.TID 0000.0001) %MON dynstat_eta_sd               =   1.1867179433228E+02
(PID.TID 0000.0001) %MON dynstat_eta_del2             =   2.0131837938814E-01
(PID.TID 0000.0001) %MON dynstat_uvel_max             =   7.6007707710564E-02
(PID.TID 0000.0001) %MON dynstat_uvel_min             =  -1.8752612932006E-02
(PID.TID 0000.0001) %MON dynstat_uvel_mean            =   4.3236977747418E-05
(PID.TID 0000.0001) %MON dynstat_uvel_sd              =   1.8999499757460E-02
(PID.TID 0000.0001) %MON dynstat_uvel_del2            =   2.9379899252814E-05
(PID.TID 0000.0001) %MON dynstat_vvel_max             =   6.9803371374412E-02
(PID.TID 0000.0001) %MON dynstat_vvel_min             =  -1.7171841129772E-02
(PID.TID 0000.0001) %MON dynstat_vvel_mean            =  -1.7183810346122E-06
(PID.TID 0000.0001) %MON dynstat_vvel_sd              =   1.7766747905649E-02
(PID.TID 0000.0001) %MON dynstat_vvel_del2            =   1.5145627495404E-05
(PID.TID 0000.0001) %MON dynstat_wvel_max             =   2.6720201287676E+00
(PID.TID 0000.0001) %MON dynstat_wvel_min             =  -2.5810522241521E+00
(PID.TID 0000.0001) %MON dynstat_wvel_mean            =  -2.8941814892976E-16
(PID.TID 0000.0001) %MON dynstat_wvel_sd              =   1.1406203771783E+00
(PID.TID 0000.0001) %MON dynstat_wvel_del2            =   5.6484158973776E-03
(PID.TID 0000.0001) %MON dynstat_theta_max            =   2.0567555854522E+01
(PID.TID 0000.0001) %MON dynstat_theta_min            =   1.5559483419373E+01
(PID.TID 0000.0001) %MON dynstat_theta_mean           =   1.7563160570558E+01
(PID.TID 0000.0001) %MON dynstat_theta_sd             =   1.4157847079017E+00
(PID.TID 0000.0001) %MON dynstat_theta_del2           =   1.3595544983556E-04
(PID.TID 0000.0001) %MON dynstat_salt_max             =   9.9999971678445E-01
(PID.TID 0000.0001) %MON dynstat_salt_min             =   3.9448788690861E-01
(PID.TID 0000.0001) %MON dynstat_salt_mean            =   7.4692405734589E-01
(PID.TID 0000.0001) %MON dynstat_salt_sd              =   2.0066334296392E-01
(PID.TID 0000.0001) %MON dynstat_salt_del2            =   2.2835359769857E-04
(PID.TID 0000.0001) %MON advcfl_uvel_max              =   1.3681387387902E-02
(PID.TID 0000.0001) %MON advcfl_vvel_max              =   1.5898004577006E-02
(PID.TID 0000.0001) %MON advcfl_wvel_max              =   4.9023770836526E-03
(PID.TID 0000.0001) %MON advcfl_W_hf_max              =   5.1603969301606E-03
(PID.TID 0000.0001) %MON pe_b_mean                    =   2.8623973109845E-07
(PID.TID 0000.0001) %MON ke_max                       =   5.3356141478572E-03
(PID.TID 0000.0001) %MON ke_mean                      =   3.3260850443260E-04
(PID.TID 0000.0001) %MON ke_vol                       =   7.6260000000000E+16
(PID.TID 0000.0001) // =======================================================
(PID.TID 0000.0001) // End MONITOR dynamic field statistics
(PID.TID 0000.0001) // =======================================================
 cg2d: Sum(rhs),rhsMax =  -7.10542735760100E-15  2.10707323063842E-03
(PID.TID 0000.0001)      cg2d_init_res =   1.21710349420844E-01
(PID.TID 0000.0001)      cg2d_iters(min,last) =      -1      30
(PID.TID 0000.0001)      cg2d_last_res =   1.10658998085881E-16
(PID.TID 0000.0001) // =======================================================
(PID.TID 0000.0001) // Begin MONITOR dynamic field statistics
(PID.TID 0000.0001) // =======================================================
(PID.TID 0000.0001) %MON time_tsnumber                =                    10
(PID.TID 0000.0001) %MON time_secondsf                =   1.8000000000000E+04
(PID.TID 0000.0001) %MON dynstat_eta_max              =   1.6723139848455E+02
(PID.TID 0000.0001) %MON dynstat_eta_min              =  -1.6617044756233E+02
(PID.TID 0000.0001) %MON dynstat_eta_mean             =  -3.4408602150538E-14
(PID.TID 0000.0001) %MON dynstat_eta_sd               =   1.1785959744721E+02
(PID.TID 0000.0001) %MON dynstat_eta_del2             =   1.9778857679806E-01
(PID.TID 0000.0001) %MON dynstat_uvel_max             =   8.8550275238279E-02
(PID.TID 0000.0001) %MON dynstat_uvel_min             =  -2.1832816962720E-02
(PID.TID 0000.0001) %MON dynstat_uvel_mean            =   4.2935786426168E-05
(PID.TID 0000.0001) %MON dynstat_uvel_sd              =   2.2130880595625E-02
(PID.TID 0000.0001) %MON dynstat_uvel_del2            =   3.4244029001371E-05
(PID.TID 0000.0001) %MON dynstat_vvel_max             =   6.7354329087131E-02
(PID.TID 0000.0001) %MON dynstat_vvel_min             =  -1.6501965840561E-02
(PID.TID 0000.0001) %MON dynstat_vvel_mean            =  -1.6881200680040E-06
(PID.TID 0000.0001) %MON dynstat_vvel_sd              =   1.7125868006743E-02
(PID.TID 0000.0001) %MON dynstat_vvel_del2            =   1.5062567779607E-05
(PID.TID 0000.0001) %MON dynstat_wvel_max             =   2.6216823181084E+00
(PID.TID 0000.0001) %MON dynstat_wvel_min             =  -2.5006068456653E+00
(PID.TID 0000.0001) %MON dynstat_wvel_mean            =  -4.3412722339463E-16
(PID.TID 0000.0001) %MON dynstat_wvel_sd              =   1.0990967432225E+00
(PID.TID 0000.0001) %MON dynstat_wvel_del2            =   6.4355259100558E-03
(PID.TID 0000.0001) %MON dynstat_theta_max            =   2.0567450618748E+01
(PID.TID 0000.0001) %MON dynstat_theta_min            =   1.5559351923698E+01
(PID.TID 0000.0001) %MON dynstat_theta_mean           =   1.7563160570570E+01
(PID.TID 0000.0001) %MON dynstat_theta_sd             =   1.4157845675274E+00
(PID.TID 0000.0001) %MON dynstat_theta_del2           =   1.3538779055541E-04
(PID.TID 0000.0001) %MON dynstat_salt_max             =   9.9999968446971E-01
(PID.TID 0000.0001) %MON dynstat_salt_min             =   3.9443000362601E-01
(PID.TID 0000.0001) %MON dynstat_salt_mean            =   7.4692405729852E-01
(PID.TID 0000.0001) %MON dynstat_salt_sd              =   2.0066334251496E-01
(PID.TID 0000.0001) %MON dynstat_salt_del2            =   2.2835797081764E-04
(PID.TID 0000.0001) %MON advcfl_uvel_max              =   1.5939049542890E-02
(PID.TID 0000.0001) %MON advcfl_vvel_max              =   1.5340225135615E-02
(PID.TID 0000.0001) %MON advcfl_wvel_max              =   4.8530674970996E-03
(PID.TID 0000.0001) %MON advcfl_W_hf_max              =   5.1084921022101E-03
(PID.TID 0000.0001) %MON pe_b_mean                    =   2.8233505508979E-07
(PID.TID 0000.0001) %MON ke_max                       =   6.1985375246626E-03
(PID.TID 0000.0001) %MON ke_mean                      =   3.8622956968342E-04
(PID.TID 0000.0001) %MON ke_vol                       =   7.6260000000000E+16
(PID.TID 0000.0001) // =======================================================
(PID.TID 0000.0001) // End MONITOR dynamic field statistics
(PID.TID 0000.0001) // =======================================================
 cg2d: Sum(rhs),rhsMax =  -5.32907051820075E-15  2.21185398074950E-03
(PID.TID 0000.0001)      cg2d_init_res =   1.16134999890221E-01
(PID.TID 0000.0001)      cg2d_iters(min,last) =      -1      30
(PID.TID 0000.0001)      cg2d_last_res =   2.05564025720943E-16
(PID.TID 0000.0001) // =======================================================
(PID.TID 0000.0001) // Begin MONITOR dynamic field statistics
(PID.TID 0000.0001) // =======================================================
(PID.TID 0000.0001) %MON time_tsnumber                =                    11
(PID.TID 0000.0001) %MON time_secondsf                =   1.9800000000000E+04
(PID.TID 0000.0001) %MON dynstat_eta_max              =   1.6618822442402E+02
(PID.TID 0000.0001) %MON dynstat_eta_min              =  -1.6520937761248E+02
(PID.TID 0000.0001) %MON dynstat_eta_mean             =   6.8817204301075E-15
(PID.TID 0000.0001) %MON dynstat_eta_sd               =   1.1707780092121E+02
(PID.TID 0000.0001) %MON dynstat_eta_del2             =   1.9447875990858E-01
(PID.TID 0000.0001) %MON dynstat_uvel_max             =   1.0039618856754E-01
(PID.TID 0000.0001) %MON dynstat_uvel_min             =  -2.4728316641786E-02
(PID.TID 0000.0001) %MON dynstat_uvel_mean            =   4.2644368798821E-05
(PID.TID 0000.0001) %MON dynstat_uvel_sd              =   2.5085119848705E-02
(PID.TID 0000.0001) %MON dynstat_uvel_del2            =   3.8850690465078E-05
(PID.TID 0000.0001) %MON dynstat_vvel_max             =   6.2651228885873E-02
(PID.TID 0000.0001) %MON dynstat_vvel_min             =  -1.5268018727032E-02
(PID.TID 0000.0001) %MON dynstat_vvel_mean            =  -1.6244515635923E-06
(PID.TID 0000.0001) %MON dynstat_vvel_sd              =   1.5908985862819E-02
(PID.TID 0000.0001) %MON dynstat_vvel_del2            =   1.4581217884556E-05
(PID.TID 0000.0001) %MON dynstat_wvel_max             =   2.4805517120289E+00
(PID.TID 0000.0001) %MON dynstat_wvel_min             =  -2.3299307281744E+00
(PID.TID 0000.0001) %MON dynstat_wvel_mean            =  -1.4470907446488E-16
(PID.TID 0000.0001) %MON dynstat_wvel_sd              =   1.0205443891952E+00
(PID.TID 0000.0001) %MON dynstat_wvel_del2            =   7.0220160129574E-03
(PID.TID 0000.0001) %MON dynstat_theta_max            =   2.0567351041855E+01
(PID.TID 0000.0001) %MON dynstat_theta_min            =   1.5559233318757E+01
(PID.TID 0000.0001) %MON dynstat_theta_mean           =   1.7563160570584E+01
(PID.TID 0000.0001) %MON dynstat_theta_sd             =   1.4157844273149E+00
(PID.TID 0000.0001) %MON dynstat_theta_del2           =   1.3480365654651E-04
(PID.TID 0000.0001) %MON dynstat_salt_max             =   9.9999965111797E-01
(PID.TID 0000.0001) %MON dynstat_salt_min             =   3.9437556232682E-01
(PID.TID 0000.0001) %MON dynstat_salt_mean            =   7.4692405706260E-01
(PID.TID 0000.0001) %MON dynstat_salt_sd              =   2.0066334212948E-01
(PID.TID 0000.0001) %MON dynstat_salt_del2            =   2.2836264822791E-04
(PID.TID 0000.0001) %MON advcfl_uvel_max              =   1.8071313942158E-02
(PID.TID 0000.0001) %MON advcfl_vvel_max              =   1.4269074744831E-02
(PID.TID 0000.0001) %MON advcfl_wvel_max              =   4.6494164631795E-03
(PID.TID 0000.0001) %MON advcfl_W_hf_max              =   4.8941225928206E-03
(PID.TID 0000.0001) %MON pe_b_mean                    =   2.7860185911678E-07
(PID.TID 0000.0001) %MON ke_max                       =   7.0102884019320E-03
(PID.TID 0000.0001) %MON ke_mean                      =   4.3660085767850E-04
(PID.TID 0000.0001) %MON ke_vol                       =   7.6260000000000E+16
(PID.TID 0000.0001) // =======================================================
(PID.TID 0000.0001) // End MONITOR dynamic field statistics
(PID.TID 0000.0001) // =======================================================
 cg2d: Sum(rhs),rhsMax =   3.55271367880050E-15  2.30962696576915E-03
(PID.TID 0000.0001)      cg2d_init_res =   1.02660839747852E-01
(PID.TID 0000.0001)      cg2d_iters(min,last) =      -1      30
(PID.TID 0000.0001)      cg2d_last_res =   3.05845885608163E-16
(PID.TID 0000.0001) // =======================================================
(PID.TID 0000.0001) // Begin MONITOR dynamic field statistics
(PID.TID 0000.0001) // =======================================================
(PID.TID 0000.0001) %MON time_tsnumber                =                    12
(PID.TID 0000.0001) %MON time_secondsf                =   2.1600000000000E+04
(PID.TID 0000.0001) %MON dynstat_eta_max              =   1.6520211799392E+02
(PID.TID 0000.0001) %MON dynstat_eta_min              =  -1.6435299162400E+02
(PID.TID 0000.0001) %MON dynstat_eta_mean             =   6.8817204301075E-15
(PID.TID 0000.0001) %MON dynstat_eta_sd               =   1.1635107703442E+02
(PID.TID 0000.0001) %MON dynstat_eta_del2             =   1.9146887633085E-01
(PID.TID 0000.0001) %MON dynstat_uvel_max             =   1.1115055364878E-01
(PID.TID 0000.0001) %MON dynstat_uvel_min             =  -2.7340535420701E-02
(PID.TID 0000.0001) %MON dynstat_uvel_mean            =   4.2367585662465E-05
(PID.TID 0000.0001) %MON dynstat_uvel_sd              =   2.7763225712146E-02
(PID.TID 0000.0001) %MON dynstat_uvel_del2            =   4.3045638210653E-05
(PID.TID 0000.0001) %MON dynstat_vvel_max             =   5.5866510500913E-02
(PID.TID 0000.0001) %MON dynstat_vvel_min             =  -1.3515943307190E-02
(PID.TID 0000.0001) %MON dynstat_vvel_mean            =  -1.5095857095596E-06
(PID.TID 0000.0001) %MON dynstat_vvel_sd              =   1.4160956470581E-02
(PID.TID 0000.0001) %MON dynstat_vvel_del2            =   1.3749923698656E-05
(PID.TID 0000.0001) %MON dynstat_wvel_max             =   2.2634053548550E+00
(PID.TID 0000.0001) %MON dynstat_wvel_min             =  -2.0902114086142E+00
(PID.TID 0000.0001) %MON dynstat_wvel_mean            =   4.3412722339463E-16
(PID.TID 0000.0001) %MON dynstat_wvel_sd              =   9.0789126334848E-01
(PID.TID 0000.0001) %MON dynstat_wvel_del2            =   7.3974151385731E-03
(PID.TID 0000.0001) %MON dynstat_theta_max            =   2.0567258768025E+01
(PID.TID 0000.0001) %MON dynstat_theta_min            =   1.5559132184496E+01
(PID.TID 0000.0001) %MON dynstat_theta_mean           =   1.7563160570600E+01
(PID.TID 0000.0001) %MON dynstat_theta_sd             =   1.4157842873311E+00
(PID.TID 0000.0001) %MON dynstat_theta_del2           =   1.3422335883062E-04
(PID.TID 0000.0001) %MON dynstat_salt_max             =   9.9999961622014E-01
(PID.TID 0000.0001) %MON dynstat_salt_min             =   3.9432543179843E-01
(PID.TID 0000.0001) %MON dynstat_salt_mean            =   7.4692405667552E-01
(PID.TID 0000.0001) %MON dynstat_salt_sd              =   2.0066334181892E-01
(PID.TID 0000.0001) %MON dynstat_salt_del2            =   2.2836743315310E-04
(PID.TID 0000.0001) %MON advcfl_uvel_max              =   2.0007099656780E-02
(PID.TID 0000.0001) %MON advcfl_vvel_max              =   1.2723827261594E-02
(PID.TID 0000.0001) %MON advcfl_wvel_max              =   4.2962108365216E-03
(PID.TID 0000.0001) %MON advcfl_W_hf_max              =   4.5223271963385E-03
(PID.TID 0000.0001) %MON pe_b_mean                    =   2.7515392534693E-07
(PID.TID 0000.0001) %MON ke_max                       =   7.7437979813002E-03
(PID.TID 0000.0001) %MON ke_mean                      =   4.8203709862699E-04
(PID.TID 0000.0001) %MON ke_vol                       =   7.6260000000000E+16
(PID.TID 0000.0001) // =======================================================
(PID.TID 0000.0001) // End MONITOR dynamic field statistics
(PID.TID 0000.0001) // =======================================================
 cg2d: Sum(rhs),rhsMax =   0.00000000000000E+00  2.40093082303596E-03
(PID.TID 0000.0001)      cg2d_init_res =   8.38618832926679E-02
(PID.TID 0000.0001)      cg2d_iters(min,last) =      -1      29
(PID.TID 0000.0001)      cg2d_last_res =   6.23425837406322E-14
(PID.TID 0000.0001) // =======================================================
(PID.TID 0000.0001) // Begin MONITOR dynamic field statistics
(PID.TID 0000.0001) // =======================================================
(PID.TID 0000.0001) %MON time_tsnumber                =                    13
(PID.TID 0000.0001) %MON time_secondsf                =   2.3400000000000E+04
(PID.TID 0000.0001) %MON dynstat_eta_max              =   1.6431104204414E+02
(PID.TID 0000.0001) %MON dynstat_eta_min              =  -1.6361943583259E+02
(PID.TID 0000.0001) %MON dynstat_eta_mean             =   2.7526881720430E-14
(PID.TID 0000.0001) %MON dynstat_eta_sd               =   1.1570404572909E+02
(PID.TID 0000.0001) %MON dynstat_eta_del2             =   1.8875465530496E-01
(PID.TID 0000.0001) %MON dynstat_uvel_max             =   1.2045780143086E-01
(PID.TID 0000.0001) %MON dynstat_uvel_min             =  -2.9581259675586E-02
(PID.TID 0000.0001) %MON dynstat_uvel_mean            =   4.2116228014817E-05
(PID.TID 0000.0001) %MON dynstat_uvel_sd              =   3.0076177076117E-02
(PID.TID 0000.0001) %MON dynstat_uvel_del2            =   4.6687007299858E-05
(PID.TID 0000.0001) %MON dynstat_vvel_max             =   4.7241689203289E-02
(PID.TID 0000.0001) %MON dynstat_vvel_min             =  -1.1309268888048E-02
(PID.TID 0000.0001) %MON dynstat_vvel_mean            =  -1.3436578255326E-06
(PID.TID 0000.0001) %MON dynstat_vvel_sd              =   1.1944386847558E-02
(PID.TID 0000.0001) %MON dynstat_vvel_del2            =   1.2647608187271E-05
(PID.TID 0000.0001) %MON dynstat_wvel_max             =   1.9728799380482E+00
(PID.TID 0000.0001) %MON dynstat_wvel_min             =  -1.7789991652155E+00
(PID.TID 0000.0001) %MON dynstat_wvel_mean            =  -3.3765450708472E-16
(PID.TID 0000.0001) %MON dynstat_wvel_sd              =   7.6525020373845E-01
(PID.TID 0000.0001) %MON dynstat_wvel_del2            =   7.5722288264522E-03
(PID.TID 0000.0001) %MON dynstat_theta_max            =   2.0567175152960E+01
(PID.TID 0000.0001) %MON dynstat_theta_min            =   1.5559052108545E+01
(PID.TID 0000.0001) %MON dynstat_theta_mean           =   1.7563160570616E+01
(PID.TID 0000.0001) %MON dynstat_theta_sd             =   1.4157841476074E+00
(PID.TID 0000.0001) %MON dynstat_theta_del2           =   1.3366542709070E-04
(PID.TID 0000.0001) %MON dynstat_salt_max             =   9.9999957915039E-01
(PID.TID 0000.0001) %MON dynstat_salt_min             =   3.9428030982134E-01
(PID.TID 0000.0001) %MON dynstat_salt_mean            =   7.4692405619336E-01
(PID.TID 0000.0001) %MON dynstat_salt_sd              =   2.0066334158512E-01
(PID.TID 0000.0001) %MON dynstat_salt_del2            =   2.2837210841227E-04
(PID.TID 0000.0001) %MON advcfl_uvel_max              =   2.1682404257555E-02
(PID.TID 0000.0001) %MON advcfl_vvel_max              =   1.0759488781006E-02
(PID.TID 0000.0001) %MON advcfl_wvel_max              =   3.8042560019216E-03
(PID.TID 0000.0001) %MON advcfl_W_hf_max              =   4.0044800020227E-03
(PID.TID 0000.0001) %MON pe_b_mean                    =   2.7210215849753E-07
(PID.TID 0000.0001) %MON ke_max                       =   8.3749688699278E-03
(PID.TID 0000.0001) %MON ke_mean                      =   5.2104180823418E-04
(PID.TID 0000.0001) %MON ke_vol                       =   7.6260000000000E+16
(PID.TID 0000.0001) // =======================================================
(PID.TID 0000.0001) // End MONITOR dynamic field statistics
(PID.TID 0000.0001) // =======================================================
 cg2d: Sum(rhs),rhsMax =  -2.66453525910038E-15  2.48041087705706E-03
(PID.TID 0000.0001)      cg2d_init_res =   6.36363411805171E-02
(PID.TID 0000.0001)      cg2d_iters(min,last) =      -1      29
(PID.TID 0000.0001)      cg2d_last_res =   3.83459760029263E-14
(PID.TID 0000.0001) // =======================================================
(PID.TID 0000.0001) // Begin MONITOR dynamic field statistics
(PID.TID 0000.0001) // =======================================================
(PID.TID 0000.0001) %MON time_tsnumber                =                    14
(PID.TID 0000.0001) %MON time_secondsf                =   2.5200000000000E+04
(PID.TID 0000.0001) %MON dynstat_eta_max              =   1.6354959203934E+02
(PID.TID 0000.0001) %MON dynstat_eta_min              =  -1.6302077151296E+02
(PID.TID 0000.0001) %MON dynstat_eta_mean             =  -2.7526881720430E-14
(PID.TID 0000.0001) %MON dynstat_eta_sd               =   1.1515779314620E+02
(PID.TID 0000.0001) %MON dynstat_eta_del2             =   1.8631030561584E-01
(PID.TID 0000.0001) %MON dynstat_uvel_max             =   1.2801339246008E-01
(PID.TID 0000.0001) %MON dynstat_uvel_min             =  -3.1375619954423E-02
(PID.TID 0000.0001) %MON dynstat_uvel_mean            =   4.1899183703016E-05
(PID.TID 0000.0001) %MON dynstat_uvel_sd              =   3.1947873766740E-02
(PID.TID 0000.0001) %MON dynstat_uvel_del2            =   4.9650190670378E-05
(PID.TID 0000.0001) %MON dynstat_vvel_max             =   3.7078795071251E-02
(PID.TID 0000.0001) %MON dynstat_vvel_min             =  -8.7624069189038E-03
(PID.TID 0000.0001) %MON dynstat_vvel_mean            =  -1.1340098556482E-06
(PID.TID 0000.0001) %MON dynstat_vvel_sd              =   9.3374851244266E-03
(PID.TID 0000.0001) %MON dynstat_vvel_del2            =   1.1388656963304E-05
(PID.TID 0000.0001) %MON dynstat_wvel_max             =   1.6150908286108E+00
(PID.TID 0000.0001) %MON dynstat_wvel_min             =  -1.4090510481229E+00
(PID.TID 0000.0001) %MON dynstat_wvel_mean            =   1.9294543261984E-16
(PID.TID 0000.0001) %MON dynstat_wvel_sd              =   5.9783017952268E-01
(PID.TID 0000.0001) %MON dynstat_wvel_del2            =   7.5676483074133E-03
(PID.TID 0000.0001) %MON dynstat_theta_max            =   2.0567101223707E+01
(PID.TID 0000.0001) %MON dynstat_theta_min            =   1.5558983024691E+01
(PID.TID 0000.0001) %MON dynstat_theta_mean           =   1.7563160570631E+01
(PID.TID 0000.0001) %MON dynstat_theta_sd             =   1.4157840081368E+00
(PID.TID 0000.0001) %MON dynstat_theta_del2           =   1.3314630601290E-04
(PID.TID 0000.0001) %MON dynstat_salt_max             =   9.9999953914972E-01
(PID.TID 0000.0001) %MON dynstat_salt_min             =   3.9424070722616E-01
(PID.TID 0000.0001) %MON dynstat_salt_mean            =   7.4692405568276E-01
(PID.TID 0000.0001) %MON dynstat_salt_sd              =   2.0066334142043E-01
(PID.TID 0000.0001) %MON dynstat_salt_del2            =   2.2837645464629E-04
(PID.TID 0000.0001) %MON advcfl_uvel_max              =   2.3042410642815E-02
(PID.TID 0000.0001) %MON advcfl_vvel_max              =   8.4448478941048E-03
(PID.TID 0000.0001) %MON advcfl_wvel_max              =   3.1899991559099E-03
(PID.TID 0000.0001) %MON advcfl_W_hf_max              =   3.3578938483263E-03
(PID.TID 0000.0001) %MON pe_b_mean                    =   2.6953896996551E-07
(PID.TID 0000.0001) %MON ke_max                       =   8.8833826197149E-03
(PID.TID 0000.0001) %MON ke_mean                      =   5.5235089608361E-04
(PID.TID 0000.0001) %MON ke_vol                       =   7.6260000000000E+16
(PID.TID 0000.0001) // =======================================================
(PID.TID 0000.0001) // End MONITOR dynamic field statistics
(PID.TID 0000.0001) // =======================================================
 cg2d: Sum(rhs),rhsMax =  -8.88178419700125E-15  2.53701993543841E-03
(PID.TID 0000.0001)      cg2d_init_res =   4.73835425167784E-02
(PID.TID 0000.0001)      cg2d_iters(min,last) =      -1      30
(PID.TID 0000.0001)      cg2d_last_res =   2.08944124383238E-16
(PID.TID 0000.0001) // =======================================================
(PID.TID 0000.0001) // Begin MONITOR dynamic field statistics
(PID.TID 0000.0001) // =======================================================
(PID.TID 0000.0001) %MON time_tsnumber                =                    15
(PID.TID 0000.0001) %MON time_secondsf                =   2.7000000000000E+04
(PID.TID 0000.0001) %MON dynstat_eta_max              =   1.6294749639289E+02
(PID.TID 0000.0001) %MON dynstat_eta_min              =  -1.6256467023049E+02
(PID.TID 0000.0001) %MON dynstat_eta_mean             =  -6.8817204301075E-15
(PID.TID 0000.0001) %MON dynstat_eta_sd               =   1.1472947664297E+02
(PID.TID 0000.0001) %MON dynstat_eta_del2             =   1.8415806792268E-01
(PID.TID 0000.0001) %MON dynstat_uvel_max             =   1.3357372726029E-01
(PID.TID 0000.0001) %MON dynstat_uvel_min             =  -3.2664581265223E-02
(PID.TID 0000.0001) %MON dynstat_uvel_mean            =   4.1723303701570E-05
(PID.TID 0000.0001) %MON dynstat_uvel_sd              =   3.3317630880788E-02
(PID.TID 0000.0001) %MON dynstat_uvel_del2            =   5.1832494953801E-05
(PID.TID 0000.0001) %MON dynstat_vvel_max             =   2.5729810278288E-02
(PID.TID 0000.0001) %MON dynstat_vvel_min             =  -5.9512287098110E-03
(PID.TID 0000.0001) %MON dynstat_vvel_mean            =  -8.8878084517961E-07
(PID.TID 0000.0001) %MON dynstat_vvel_sd              =   6.4316259829678E-03
(PID.TID 0000.0001) %MON dynstat_vvel_del2            =   1.0130988039157E-05
(PID.TID 0000.0001) %MON dynstat_wvel_max             =   1.2031694813543E+00
(PID.TID 0000.0001) %MON dynstat_wvel_min             =  -9.9500033854261E-01
(PID.TID 0000.0001) %MON dynstat_wvel_mean            =  -4.8236358154959E-17
(PID.TID 0000.0001) %MON dynstat_wvel_sd              =   4.1197305333337E-01
(PID.TID 0000.0001) %MON dynstat_wvel_del2            =   7.4061631341611E-03
(PID.TID 0000.0001) %MON dynstat_theta_max            =   2.0567037648250E+01
(PID.TID 0000.0001) %MON dynstat_theta_min            =   1.5558936003455E+01
(PID.TID 0000.0001) %MON dynstat_theta_mean           =   1.7563160570644E+01
(PID.TID 0000.0001) %MON dynstat_theta_sd             =   1.4157838688755E+00
(PID.TID 0000.0001) %MON dynstat_theta_del2           =   1.3268032981155E-04
(PID.TID 0000.0001) %MON dynstat_salt_max             =   9.9999949532343E-01
(PID.TID 0000.0001) %MON dynstat_salt_min             =   3.9420693698994E-01
(PID.TID 0000.0001) %MON dynstat_salt_mean            =   7.4692405521156E-01
(PID.TID 0000.0001) %MON dynstat_salt_sd              =   2.0066334130897E-01
(PID.TID 0000.0001) %MON dynstat_salt_del2            =   2.2838026905971E-04
(PID.TID 0000.0001) %MON advcfl_uvel_max              =   2.4043270906851E-02
(PID.TID 0000.0001) %MON advcfl_vvel_max              =   5.8600699868155E-03
(PID.TID 0000.0001) %MON advcfl_wvel_max              =   2.4747715802479E-03
(PID.TID 0000.0001) %MON advcfl_W_hf_max              =   2.6050227160504E-03
(PID.TID 0000.0001) %MON pe_b_mean                    =   2.6753765875549E-07
(PID.TID 0000.0001) %MON ke_max                       =   9.2528694113597E-03
(PID.TID 0000.0001) %MON ke_mean                      =   5.7496755625846E-04
(PID.TID 0000.0001) %MON ke_vol                       =   7.6260000000000E+16
(PID.TID 0000.0001) // =======================================================
(PID.TID 0000.0001) // End MONITOR dynamic field statistics
(PID.TID 0000.0001) // =======================================================
 cg2d: Sum(rhs),rhsMax =  -2.66453525910038E-15  2.56639944067130E-03
(PID.TID 0000.0001)      cg2d_init_res =   4.18087827349074E-02
(PID.TID 0000.0001)      cg2d_iters(min,last) =      -1      30
(PID.TID 0000.0001)      cg2d_last_res =   1.03148781898051E-16
(PID.TID 0000.0001) // =======================================================
(PID.TID 0000.0001) // Begin MONITOR dynamic field statistics
(PID.TID 0000.0001) // =======================================================
(PID.TID 0000.0001) %MON time_tsnumber                =                    16
(PID.TID 0000.0001) %MON time_secondsf                =   2.8800000000000E+04
(PID.TID 0000.0001) %MON dynstat_eta_max              =   1.6252824750703E+02
(PID.TID 0000.0001) %MON dynstat_eta_min              =  -1.6225603903721E+02
(PID.TID 0000.0001) %MON dynstat_eta_mean             =  -4.1290322580645E-14
(PID.TID 0000.0001) %MON dynstat_eta_sd               =   1.1443209263374E+02
(PID.TID 0000.0001) %MON dynstat_eta_del2             =   1.8240131627922E-01
(PID.TID 0000.0001) %MON dynstat_uvel_max             =   1.3696393418814E-01
(PID.TID 0000.0001) %MON dynstat_uvel_min             =  -3.3406871063741E-02
(PID.TID 0000.0001) %MON dynstat_uvel_mean            =   4.1593936116904E-05
(PID.TID 0000.0001) %MON dynstat_uvel_sd              =   3.4142135756191E-02
(PID.TID 0000.0001) %MON dynstat_uvel_del2            =   5.3157300161261E-05
(PID.TID 0000.0001) %MON dynstat_vvel_max             =   1.3584475184409E-02
(PID.TID 0000.0001) %MON dynstat_vvel_min             =  -2.9875776006898E-03
(PID.TID 0000.0001) %MON dynstat_vvel_mean            =  -6.1658904198635E-07
(PID.TID 0000.0001) %MON dynstat_vvel_sd              =   3.3302494666563E-03
(PID.TID 0000.0001) %MON dynstat_vvel_del2            =   9.0815766643704E-06
(PID.TID 0000.0001) %MON dynstat_wvel_max             =   7.7391013247645E-01
(PID.TID 0000.0001) %MON dynstat_wvel_min             =  -5.8014253999624E-01
(PID.TID 0000.0001) %MON dynstat_wvel_mean            =   1.0853180584866E-16
(PID.TID 0000.0001) %MON dynstat_wvel_sd              =   2.1638327107146E-01
(PID.TID 0000.0001) %MON dynstat_wvel_del2            =   7.1055960216292E-03
(PID.TID 0000.0001) %MON dynstat_theta_max            =   2.0566984715641E+01
(PID.TID 0000.0001) %MON dynstat_theta_min            =   1.5558915118064E+01
(PID.TID 0000.0001) %MON dynstat_theta_mean           =   1.7563160570653E+01
(PID.TID 0000.0001) %MON dynstat_theta_sd             =   1.4157837297505E+00
(PID.TID 0000.0001) %MON dynstat_theta_del2           =   1.3227962736657E-04
(PID.TID 0000.0001) %MON dynstat_salt_max             =   9.9999944666005E-01
(PID.TID 0000.0001) %MON dynstat_salt_min             =   3.9417910823026E-01
(PID.TID 0000.0001) %MON dynstat_salt_mean            =   7.4692405483951E-01
(PID.TID 0000.0001) %MON dynstat_salt_sd              =   2.0066334122907E-01
(PID.TID 0000.0001) %MON dynstat_salt_del2            =   2.2838338281880E-04
(PID.TID 0000.0001) %MON advcfl_uvel_max              =   2.4653508153865E-02
(PID.TID 0000.0001) %MON advcfl_vvel_max              =   3.0939200271511E-03
(PID.TID 0000.0001) %MON advcfl_wvel_max              =   1.6837328408303E-03
(PID.TID 0000.0001) %MON advcfl_W_hf_max              =   1.7723503587687E-03
(PID.TID 0000.0001) %MON pe_b_mean                    =   2.6615251675888E-07
(PID.TID 0000.0001) %MON ke_max                       =   9.4719338592387E-03
(PID.TID 0000.0001) %MON ke_mean                      =   5.8818818721452E-04
(PID.TID 0000.0001) %MON ke_vol                       =   7.6260000000000E+16
(PID.TID 0000.0001) // =======================================================
(PID.TID 0000.0001) // End MONITOR dynamic field statistics
(PID.TID 0000.0001) // =======================================================
 cg2d: Sum(rhs),rhsMax =   0.00000000000000E+00  2.56675839858517E-03
(PID.TID 0000.0001)      cg2d_init_res =   4.83762652557581E-02
(PID.TID 0000.0001)      cg2d_iters(min,last) =      -1      30
(PID.TID 0000.0001)      cg2d_last_res =   1.09106818469358E-16
(PID.TID 0000.0001) // =======================================================
(PID.TID 0000.0001) // Begin MONITOR dynamic field statistics
(PID.TID 0000.0001) // =======================================================
(PID.TID 0000.0001) %MON time_tsnumber                =                    17
(PID.TID 0000.0001) %MON time_secondsf                =   3.0600000000000E+04
(PID.TID 0000.0001) %MON dynstat_eta_max              =   1.6230761382519E+02
(PID.TID 0000.0001) %MON dynstat_eta_min              =  -1.6209794249110E+02
(PID.TID 0000.0001) %MON dynstat_eta_mean             =  -3.4408602150538E-14
(PID.TID 0000.0001) %MON dynstat_eta_sd               =   1.1427411733787E+02
(PID.TID 0000.0001) %MON dynstat_eta_del2             =   1.8120769810909E-01
(PID.TID 0000.0001) %MON dynstat_uvel_max             =   1.3808329104863E-01
(PID.TID 0000.0001) %MON dynstat_uvel_min             =  -3.3580284552597E-02
(PID.TID 0000.0001) %MON dynstat_uvel_mean            =   4.1514877241766E-05
(PID.TID 0000.0001) %MON dynstat_uvel_sd              =   3.4396804775636E-02
(PID.TID 0000.0001) %MON dynstat_uvel_del2            =   5.3577426737499E-05
(PID.TID 0000.0001) %MON dynstat_vvel_max             =   1.2614598509782E-03
(PID.TID 0000.0001) %MON dynstat_vvel_min             =  -1.8651036685178E-03
(PID.TID 0000.0001) %MON dynstat_vvel_mean            =  -3.2681469332090E-07
(PID.TID 0000.0001) %MON dynstat_vvel_sd              =   3.1687502256878E-04
(PID.TID 0000.0001) %MON dynstat_vvel_del2            =   8.4721864591732E-06
(PID.TID 0000.0001) %MON dynstat_wvel_max             =   3.5516847541568E-01
(PID.TID 0000.0001) %MON dynstat_wvel_min             =  -3.7838653212103E-01
(PID.TID 0000.0001) %MON dynstat_wvel_mean            =   2.6379258365993E-18
(PID.TID 0000.0001) %MON dynstat_wvel_sd              =   6.2704976083516E-02
(PID.TID 0000.0001) %MON dynstat_wvel_del2            =   6.6773923446268E-03
(PID.TID 0000.0001) %MON dynstat_theta_max            =   2.0566942327834E+01
(PID.TID 0000.0001) %MON dynstat_theta_min            =   1.5558921344035E+01
(PID.TID 0000.0001) %MON dynstat_theta_mean           =   1.7563160570658E+01
(PID.TID 0000.0001) %MON dynstat_theta_sd             =   1.4157835906701E+00
(PID.TID 0000.0001) %MON dynstat_theta_del2           =   1.3195388878197E-04
(PID.TID 0000.0001) %MON dynstat_salt_max             =   9.9999939207616E-01
(PID.TID 0000.0001) %MON dynstat_salt_min             =   3.9415712532353E-01
(PID.TID 0000.0001) %MON dynstat_salt_mean            =   7.4692405461025E-01
(PID.TID 0000.0001) %MON dynstat_salt_sd              =   2.0066334115621E-01
(PID.TID 0000.0001) %MON dynstat_salt_del2            =   2.2838567535480E-04
(PID.TID 0000.0001) %MON advcfl_uvel_max              =   2.4854992388754E-02
(PID.TID 0000.0001) %MON advcfl_vvel_max              =   2.9944629648784E-04
(PID.TID 0000.0001) %MON advcfl_wvel_max              =   8.7974254991930E-04
(PID.TID 0000.0001) %MON advcfl_W_hf_max              =   9.1357880183927E-04
(PID.TID 0000.0001) %MON pe_b_mean                    =   2.6541816856399E-07
(PID.TID 0000.0001) %MON ke_max                       =   9.5340366217396E-03
(PID.TID 0000.0001) %MON ke_mean                      =   5.9161933922766E-04
(PID.TID 0000.0001) %MON ke_vol                       =   7.6260000000000E+16
(PID.TID 0000.0001) // =======================================================
(PID.TID 0000.0001) // End MONITOR dynamic field statistics
(PID.TID 0000.0001) // =======================================================
 cg2d: Sum(rhs),rhsMax =  -2.66453525910038E-15  2.53893550279904E-03
(PID.TID 0000.0001)      cg2d_init_res =   6.02823429576649E-02
(PID.TID 0000.0001)      cg2d_iters(min,last) =      -1      30
(PID.TID 0000.0001)      cg2d_last_res =   2.71242190898935E-16
(PID.TID 0000.0001) // =======================================================
(PID.TID 0000.0001) // Begin MONITOR dynamic field statistics
(PID.TID 0000.0001) // =======================================================
(PID.TID 0000.0001) %MON time_tsnumber                =                    18
(PID.TID 0000.0001) %MON time_secondsf                =   3.2400000000000E+04
(PID.TID 0000.0001) %MON dynstat_eta_max              =   1.6229252339730E+02
(PID.TID 0000.0001) %MON dynstat_eta_min              =  -1.6209202510831E+02
(PID.TID 0000.0001) %MON dynstat_eta_mean             =  -4.1290322580645E-14
(PID.TID 0000.0001) %MON dynstat_eta_sd               =   1.1425925515652E+02
(PID.TID 0000.0001) %MON dynstat_eta_del2             =   1.8075592044049E-01
(PID.TID 0000.0001) %MON dynstat_uvel_max             =   1.3690812081346E-01
(PID.TID 0000.0001) %MON dynstat_uvel_min             =  -3.3182326104617E-02
(PID.TID 0000.0001) %MON dynstat_uvel_mean            =   4.1488209785852E-05
(PID.TID 0000.0001) %MON dynstat_uvel_sd              =   3.4076497854230E-02
(PID.TID 0000.0001) %MON dynstat_uvel_del2            =   5.3077430831091E-05
(PID.TID 0000.0001) %MON dynstat_vvel_max             =   3.4230786961806E-03
(PID.TID 0000.0001) %MON dynstat_vvel_min             =  -1.1458728325247E-02
(PID.TID 0000.0001) %MON dynstat_vvel_mean            =  -2.9383059138926E-08
(PID.TID 0000.0001) %MON dynstat_vvel_sd              =   3.0832193531790E-03
(PID.TID 0000.0001) %MON dynstat_vvel_del2            =   8.4649209451885E-06
(PID.TID 0000.0001) %MON dynstat_wvel_max             =   6.0980367433918E-01
(PID.TID 0000.0001) %MON dynstat_wvel_min             =  -7.4249841715924E-01
(PID.TID 0000.0001) %MON dynstat_wvel_mean            =  -4.8236358154959E-17
(PID.TID 0000.0001) %MON dynstat_wvel_sd              =   2.1290464023178E-01
(PID.TID 0000.0001) %MON dynstat_wvel_del2            =   6.1288454668407E-03
(PID.TID 0000.0001) %MON dynstat_theta_max            =   2.0566910004431E+01
(PID.TID 0000.0001) %MON dynstat_theta_min            =   1.5558954467235E+01
(PID.TID 0000.0001) %MON dynstat_theta_mean           =   1.7563160570658E+01
(PID.TID 0000.0001) %MON dynstat_theta_sd             =   1.4157834515370E+00
(PID.TID 0000.0001) %MON dynstat_theta_del2           =   1.3171014981528E-04
(PID.TID 0000.0001) %MON dynstat_salt_max             =   9.9999933048721E-01
(PID.TID 0000.0001) %MON dynstat_salt_min             =   3.9414069260320E-01
(PID.TID 0000.0001) %MON dynstat_salt_mean            =   7.4692405454566E-01
(PID.TID 0000.0001) %MON dynstat_salt_sd              =   2.0066334106643E-01
(PID.TID 0000.0001) %MON dynstat_salt_del2            =   2.2838708410641E-04
(PID.TID 0000.0001) %MON advcfl_uvel_max              =   2.4643461746423E-02
(PID.TID 0000.0001) %MON advcfl_vvel_max              =   2.6097724475845E-03
(PID.TID 0000.0001) %MON advcfl_wvel_max              =   1.5767520730201E-03
(PID.TID 0000.0001) %MON advcfl_W_hf_max              =   1.6597390242317E-03
(PID.TID 0000.0001) %MON pe_b_mean                    =   2.6534913392120E-07
(PID.TID 0000.0001) %MON ke_max                       =   9.4377338751898E-03
(PID.TID 0000.0001) %MON ke_mean                      =   5.8518582581389E-04
(PID.TID 0000.0001) %MON ke_vol                       =   7.6260000000000E+16
(PID.TID 0000.0001) // =======================================================
(PID.TID 0000.0001) // End MONITOR dynamic field statistics
(PID.TID 0000.0001) // =======================================================
 cg2d: Sum(rhs),rhsMax =   1.77635683940025E-15  2.48613427669269E-03
(PID.TID 0000.0001)      cg2d_init_res =   7.21606612931813E-02
(PID.TID 0000.0001)      cg2d_iters(min,last) =      -1      30
(PID.TID 0000.0001)      cg2d_last_res =   4.15596323288479E-16
(PID.TID 0000.0001) // =======================================================
(PID.TID 0000.0001) // Begin MONITOR dynamic field statistics
(PID.TID 0000.0001) // =======================================================
(PID.TID 0000.0001) %MON time_tsnumber                =                    19
(PID.TID 0000.0001) %MON time_secondsf                =   3.4200000000000E+04
(PID.TID 0000.0001) %MON dynstat_eta_max              =   1.6248054100639E+02
(PID.TID 0000.0001) %MON dynstat_eta_min              =  -1.6223849387155E+02
(PID.TID 0000.0001) %MON dynstat_eta_mean             =  -6.1935483870968E-14
(PID.TID 0000.0001) %MON dynstat_eta_sd               =   1.1438635881632E+02
(PID.TID 0000.0001) %MON dynstat_eta_del2             =   1.8117368013020E-01
(PID.TID 0000.0001) %MON dynstat_uvel_max             =   1.3349208577944E-01
(PID.TID 0000.0001) %MON dynstat_uvel_min             =  -3.2230169067129E-02
(PID.TID 0000.0001) %MON dynstat_uvel_mean            =   4.1514230701459E-05
(PID.TID 0000.0001) %MON dynstat_uvel_sd              =   3.3195570412304E-02
(PID.TID 0000.0001) %MON dynstat_uvel_del2            =   5.1674607459702E-05
(PID.TID 0000.0001) %MON dynstat_vvel_max             =   6.3818832854152E-03
(PID.TID 0000.0001) %MON dynstat_vvel_min             =  -2.3468353646502E-02
(PID.TID 0000.0001) %MON dynstat_vvel_mean            =   2.6559984542467E-07
(PID.TID 0000.0001) %MON dynstat_vvel_sd              =   6.1380937379695E-03
(PID.TID 0000.0001) %MON dynstat_vvel_del2            =   9.0376473341860E-06
(PID.TID 0000.0001) %MON dynstat_wvel_max             =   9.5482841581881E-01
(PID.TID 0000.0001) %MON dynstat_wvel_min             =  -1.0901149594789E+00
(PID.TID 0000.0001) %MON dynstat_wvel_mean            =  -7.2354537232439E-17
(PID.TID 0000.0001) %MON dynstat_wvel_sd              =   4.0484415907879E-01
(PID.TID 0000.0001) %MON dynstat_wvel_del2            =   5.4689752693284E-03
(PID.TID 0000.0001) %MON dynstat_theta_max            =   2.0566886901291E+01
(PID.TID 0000.0001) %MON dynstat_theta_min            =   1.5559013074469E+01
(PID.TID 0000.0001) %MON dynstat_theta_mean           =   1.7563160570654E+01
(PID.TID 0000.0001) %MON dynstat_theta_sd             =   1.4157833122622E+00
(PID.TID 0000.0001) %MON dynstat_theta_del2           =   1.3155283376676E-04
(PID.TID 0000.0001) %MON dynstat_salt_max             =   9.9999926090044E-01
(PID.TID 0000.0001) %MON dynstat_salt_min             =   3.9412932511526E-01
(PID.TID 0000.0001) %MON dynstat_salt_mean            =   7.4692405464323E-01
(PID.TID 0000.0001) %MON dynstat_salt_sd              =   2.0066334093946E-01
(PID.TID 0000.0001) %MON dynstat_salt_del2            =   2.2838760869488E-04
(PID.TID 0000.0001) %MON advcfl_uvel_max              =   2.4028575440299E-02
(PID.TID 0000.0001) %MON advcfl_vvel_max              =   5.3450139490490E-03
(PID.TID 0000.0001) %MON advcfl_wvel_max              =   2.2352643589272E-03
(PID.TID 0000.0001) %MON advcfl_W_hf_max              =   2.3529098515023E-03
(PID.TID 0000.0001) %MON pe_b_mean                    =   2.6593981876536E-07
(PID.TID 0000.0001) %MON ke_max                       =   9.1866774705674E-03
(PID.TID 0000.0001) %MON ke_mean                      =   5.6913018292082E-04
(PID.TID 0000.0001) %MON ke_vol                       =   7.6260000000000E+16
(PID.TID 0000.0001) // =======================================================
(PID.TID 0000.0001) // End MONITOR dynamic field statistics
(PID.TID 0000.0001) // =======================================================
 cg2d: Sum(rhs),rhsMax =   8.88178419700125E-15  2.41339889131781E-03
(PID.TID 0000.0001)      cg2d_init_res =   8.17628941675979E-02
(PID.TID 0000.0001)      cg2d_iters(min,last) =      -1      30
(PID.TID 0000.0001)      cg2d_last_res =   4.85607597818718E-16
(PID.TID 0000.0001) // =======================================================
(PID.TID 0000.0001) // Begin MONITOR dynamic field statistics
(PID.TID 0000.0001) // =======================================================
(PID.TID 0000.0001) %MON time_tsnumber                =                    20
(PID.TID 0000.0001) %MON time_secondsf                =   3.6000000000000E+04
(PID.TID 0000.0001) %MON dynstat_eta_max              =   1.6285999430306E+02
(PID.TID 0000.0001) %MON dynstat_eta_min              =  -1.6253568959798E+02
(PID.TID 0000.0001) %MON dynstat_eta_mean             =  -8.9462365591398E-14
(PID.TID 0000.0001) %MON dynstat_eta_sd               =   1.1464950473693E+02
(PID.TID 0000.0001) %MON dynstat_eta_del2             =   1.8249316255239E-01
(PID.TID 0000.0001) %MON dynstat_uvel_max             =   1.2796388928928E-01
(PID.TID 0000.0001) %MON dynstat_uvel_min             =  -3.0759939932709E-02
(PID.TID 0000.0001) %MON dynstat_uvel_mean            =   4.1591457382994E-05
(PID.TID 0000.0001) %MON dynstat_uvel_sd              =   3.1787265139346E-02
(PID.TID 0000.0001) %MON dynstat_uvel_del2            =   4.9418577877086E-05
(PID.TID 0000.0001) %MON dynstat_vvel_max             =   9.1055545558020E-03
(PID.TID 0000.0001) %MON dynstat_vvel_min             =  -3.4613893971963E-02
(PID.TID 0000.0001) %MON dynstat_vvel_mean            =   5.4818588015186E-07
(PID.TID 0000.0001) %MON dynstat_vvel_sd              =   8.9715159031177E-03
(PID.TID 0000.0001) %MON dynstat_vvel_del2            =   1.0001994393110E-05
(PID.TID 0000.0001) %MON dynstat_wvel_max             =   1.2743585098256E+00
(PID.TID 0000.0001) %MON dynstat_wvel_min             =  -1.4021471790927E+00
(PID.TID 0000.0001) %MON dynstat_wvel_mean            =  -9.6472716309919E-17
(PID.TID 0000.0001) %MON dynstat_wvel_sd              =   5.8501934448993E-01
(PID.TID 0000.0001) %MON dynstat_wvel_del2            =   4.7190731077531E-03
(PID.TID 0000.0001) %MON dynstat_theta_max            =   2.0566871843164E+01
(PID.TID 0000.0001) %MON dynstat_theta_min            =   1.5559083550966E+01
(PID.TID 0000.0001) %MON dynstat_theta_mean           =   1.7563160570647E+01
(PID.TID 0000.0001) %MON dynstat_theta_sd             =   1.4157831727770E+00
(PID.TID 0000.0001) %MON dynstat_theta_del2           =   1.3148423200416E-04
(PID.TID 0000.0001) %MON dynstat_salt_max             =   9.9999923824780E-01
(PID.TID 0000.0001) %MON dynstat_salt_min             =   3.9412236571493E-01
(PID.TID 0000.0001) %MON dynstat_salt_mean            =   7.4692405487687E-01
(PID.TID 0000.0001) %MON dynstat_salt_sd              =   2.0066334076126E-01
(PID.TID 0000.0001) %MON dynstat_salt_del2            =   2.2838730912973E-04
(PID.TID 0000.0001) %MON advcfl_uvel_max              =   2.3033500072071E-02
(PID.TID 0000.0001) %MON advcfl_vvel_max              =   7.8834565431320E-03
(PID.TID 0000.0001) %MON advcfl_wvel_max              =   2.8091966309726E-03
(PID.TID 0000.0001) %MON advcfl_W_hf_max              =   2.9570490852343E-03
(PID.TID 0000.0001) %MON pe_b_mean                    =   2.6716481578095E-07
(PID.TID 0000.0001) %MON ke_max                       =   8.7894783524952E-03
(PID.TID 0000.0001) %MON ke_mean                      =   5.4400365204525E-04
(PID.TID 0000.0001) %MON ke_vol                       =   7.6260000000000E+16
(PID.TID 0000.0001) // =======================================================
(PID.TID 0000.0001) // End MONITOR dynamic field statistics
(PID.TID 0000.0001) // =======================================================
(PID.TID 0000.0001) DIAGSTATS_CLOSE_IO: close file: dynStDiag.0000000000.txt , unit=     9
(PID.TID 0000.0001) %CHECKPOINT        20 ckptA
(PID.TID 0000.0001)   Seconds in section "ALL                    [THE_MODEL_MAIN]":
(PID.TID 0000.0001)           User time:  0.74927198886871338
(PID.TID 0000.0001)         System time:   1.7733000218868256E-002
(PID.TID 0000.0001)     Wall clock time:  0.77834486961364746
(PID.TID 0000.0001)          No. starts:           1
(PID.TID 0000.0001)           No. stops:           1
(PID.TID 0000.0001)   Seconds in section "INITIALISE_FIXED       [THE_MODEL_MAIN]":
(PID.TID 0000.0001)           User time:   1.0540000163018703E-002
(PID.TID 0000.0001)         System time:   8.5020002443343401E-003
(PID.TID 0000.0001)     Wall clock time:   1.9114971160888672E-002
(PID.TID 0000.0001)          No. starts:           1
(PID.TID 0000.0001)           No. stops:           1
(PID.TID 0000.0001)   Seconds in section "THE_MAIN_LOOP          [THE_MODEL_MAIN]":
(PID.TID 0000.0001)           User time:  0.73872000165283680
(PID.TID 0000.0001)         System time:   9.2099998146295547E-003
(PID.TID 0000.0001)     Wall clock time:  0.75920605659484863
(PID.TID 0000.0001)          No. starts:           1
(PID.TID 0000.0001)           No. stops:           1
(PID.TID 0000.0001)   Seconds in section "INITIALISE_VARIA    [THE_MAIN_LOOP]":
(PID.TID 0000.0001)           User time:   8.6570000275969505E-003
(PID.TID 0000.0001)         System time:   9.6499919891357422E-004
(PID.TID 0000.0001)     Wall clock time:   9.6251964569091797E-003
(PID.TID 0000.0001)          No. starts:           1
(PID.TID 0000.0001)           No. stops:           1
(PID.TID 0000.0001)   Seconds in section "MAIN LOOP           [THE_MAIN_LOOP]":
(PID.TID 0000.0001)           User time:  0.73004702851176262
(PID.TID 0000.0001)         System time:   8.2379998639225960E-003
(PID.TID 0000.0001)     Wall clock time:  0.74955892562866211
(PID.TID 0000.0001)          No. starts:           1
(PID.TID 0000.0001)           No. stops:           1
(PID.TID 0000.0001)   Seconds in section "MAIN_DO_LOOP        [THE_MAIN_LOOP]":
(PID.TID 0000.0001)           User time:  0.72992499545216560
(PID.TID 0000.0001)         System time:   8.2210004329681396E-003
(PID.TID 0000.0001)     Wall clock time:  0.74942040443420410
(PID.TID 0000.0001)          No. starts:          20
(PID.TID 0000.0001)           No. stops:          20
(PID.TID 0000.0001)   Seconds in section "FORWARD_STEP        [MAIN_DO_LOOP]":
(PID.TID 0000.0001)           User time:  0.72968513891100883
(PID.TID 0000.0001)         System time:   8.1900004297494888E-003
(PID.TID 0000.0001)     Wall clock time:  0.74915122985839844
(PID.TID 0000.0001)          No. starts:          20
(PID.TID 0000.0001)           No. stops:          20
(PID.TID 0000.0001)   Seconds in section "DO_STATEVARS_DIAGS  [FORWARD_STEP]":
(PID.TID 0000.0001)           User time:   6.7410022020339966E-003
(PID.TID 0000.0001)         System time:   5.5300164967775345E-004
(PID.TID 0000.0001)     Wall clock time:   7.3077678680419922E-003
(PID.TID 0000.0001)          No. starts:          60
(PID.TID 0000.0001)           No. stops:          60
(PID.TID 0000.0001)   Seconds in section "LOAD_FIELDS_DRIVER  [FORWARD_STEP]":
(PID.TID 0000.0001)           User time:   3.8301013410091400E-004
(PID.TID 0000.0001)         System time:   5.1998533308506012E-005
(PID.TID 0000.0001)     Wall clock time:   4.3845176696777344E-004
(PID.TID 0000.0001)          No. starts:          20
(PID.TID 0000.0001)           No. stops:          20
(PID.TID 0000.0001)   Seconds in section "EXTERNAL_FLDS_LOAD [LOAD_FLDS_DRIVER]":
(PID.TID 0000.0001)           User time:   1.3801455497741699E-004
(PID.TID 0000.0001)         System time:   1.7000362277030945E-005
(PID.TID 0000.0001)     Wall clock time:   1.5187263488769531E-004
(PID.TID 0000.0001)          No. starts:          20
(PID.TID 0000.0001)           No. stops:          20
(PID.TID 0000.0001)   Seconds in section "DO_ATMOSPHERIC_PHYS [FORWARD_STEP]":
(PID.TID 0000.0001)           User time:   1.3690255582332611E-004
(PID.TID 0000.0001)         System time:   1.9997358322143555E-005
(PID.TID 0000.0001)     Wall clock time:   1.5616416931152344E-004
(PID.TID 0000.0001)          No. starts:          20
(PID.TID 0000.0001)           No. stops:          20
(PID.TID 0000.0001)   Seconds in section "DO_OCEANIC_PHYS     [FORWARD_STEP]":
(PID.TID 0000.0001)           User time:  0.11149197444319725
(PID.TID 0000.0001)         System time:   3.9330013096332550E-003
(PID.TID 0000.0001)     Wall clock time:  0.11908340454101562
(PID.TID 0000.0001)          No. starts:          20
(PID.TID 0000.0001)           No. stops:          20
(PID.TID 0000.0001)   Seconds in section "DYNAMICS            [FORWARD_STEP]":
(PID.TID 0000.0001)           User time:  0.20033604092895985
(PID.TID 0000.0001)         System time:   1.1899974197149277E-004
(PID.TID 0000.0001)     Wall clock time:  0.20048928260803223
(PID.TID 0000.0001)          No. starts:          20
(PID.TID 0000.0001)           No. stops:          20
(PID.TID 0000.0001)   Seconds in section "SOLVE_FOR_PRESSURE  [FORWARD_STEP]":
(PID.TID 0000.0001)           User time:   1.5147063881158829E-002
(PID.TID 0000.0001)         System time:   2.0099990069866180E-004
(PID.TID 0000.0001)     Wall clock time:   1.5350818634033203E-002
(PID.TID 0000.0001)          No. starts:          20
(PID.TID 0000.0001)           No. stops:          20
(PID.TID 0000.0001)   Seconds in section "MOM_CORRECTION_STEP [FORWARD_STEP]":
(PID.TID 0000.0001)           User time:   9.8399072885513306E-003
(PID.TID 0000.0001)         System time:   1.1099968105554581E-004
(PID.TID 0000.0001)     Wall clock time:   9.9623203277587891E-003
(PID.TID 0000.0001)          No. starts:          20
(PID.TID 0000.0001)           No. stops:          20
(PID.TID 0000.0001)   Seconds in section "INTEGR_CONTINUITY   [FORWARD_STEP]":
(PID.TID 0000.0001)           User time:   6.1908848583698273E-003
(PID.TID 0000.0001)         System time:   3.0007213354110718E-006
(PID.TID 0000.0001)     Wall clock time:   6.1993598937988281E-003
(PID.TID 0000.0001)          No. starts:          20
(PID.TID 0000.0001)           No. stops:          20
(PID.TID 0000.0001)   Seconds in section "BLOCKING_EXCHANGES  [FORWARD_STEP]":
(PID.TID 0000.0001)           User time:   2.8365965932607651E-002
(PID.TID 0000.0001)         System time:   9.3000009655952454E-005
(PID.TID 0000.0001)     Wall clock time:   3.2217502593994141E-002
(PID.TID 0000.0001)          No. starts:          40
(PID.TID 0000.0001)           No. stops:          40
(PID.TID 0000.0001)   Seconds in section "THERMODYNAMICS      [FORWARD_STEP]":
(PID.TID 0000.0001)           User time:  0.32450289279222488
(PID.TID 0000.0001)         System time:   1.9000843167304993E-005
(PID.TID 0000.0001)     Wall clock time:  0.32844161987304688
(PID.TID 0000.0001)          No. starts:          20
(PID.TID 0000.0001)           No. stops:          20
(PID.TID 0000.0001)   Seconds in section "TRC_CORRECTION_STEP [FORWARD_STEP]":
(PID.TID 0000.0001)           User time:   1.4292821288108826E-004
(PID.TID 0000.0001)         System time:   0.0000000000000000
(PID.TID 0000.0001)     Wall clock time:   1.4090538024902344E-004
(PID.TID 0000.0001)          No. starts:          20
(PID.TID 0000.0001)           No. stops:          20
(PID.TID 0000.0001)   Seconds in section "MONITOR             [FORWARD_STEP]":
(PID.TID 0000.0001)           User time:   1.9166950136423111E-002
(PID.TID 0000.0001)         System time:   1.0709986090660095E-003
(PID.TID 0000.0001)     Wall clock time:   2.0260334014892578E-002
(PID.TID 0000.0001)          No. starts:          20
(PID.TID 0000.0001)           No. stops:          20
(PID.TID 0000.0001)   Seconds in section "DO_THE_MODEL_IO     [FORWARD_STEP]":
(PID.TID 0000.0001)           User time:   2.6999711990356445E-003
(PID.TID 0000.0001)         System time:   1.8780007958412170E-003
(PID.TID 0000.0001)     Wall clock time:   4.5809745788574219E-003
(PID.TID 0000.0001)          No. starts:          20
(PID.TID 0000.0001)           No. stops:          20
(PID.TID 0000.0001)   Seconds in section "DO_WRITE_PICKUP     [FORWARD_STEP]":
(PID.TID 0000.0001)           User time:   1.8241181969642639E-003
(PID.TID 0000.0001)         System time:   1.4999881386756897E-005
(PID.TID 0000.0001)     Wall clock time:   1.8417835235595703E-003
(PID.TID 0000.0001)          No. starts:          20
(PID.TID 0000.0001)           No. stops:          20
(PID.TID 0000.0001) // ======================================================
(PID.TID 0000.0001) // Tile <-> Tile communication statistics
(PID.TID 0000.0001) // ======================================================
(PID.TID 0000.0001) // o Tile number: 000001
(PID.TID 0000.0001) //         No. X exchanges =              0
(PID.TID 0000.0001) //            Max. X spins =              0
(PID.TID 0000.0001) //            Min. X spins =     1000000000
(PID.TID 0000.0001) //          Total. X spins =              0
(PID.TID 0000.0001) //            Avg. X spins =       0.00E+00
(PID.TID 0000.0001) //         No. Y exchanges =              0
(PID.TID 0000.0001) //            Max. Y spins =              0
(PID.TID 0000.0001) //            Min. Y spins =     1000000000
(PID.TID 0000.0001) //          Total. Y spins =              0
(PID.TID 0000.0001) //            Avg. Y spins =       0.00E+00
(PID.TID 0000.0001) // o Tile number: 000002
(PID.TID 0000.0001) //         No. X exchanges =              0
(PID.TID 0000.0001) //            Max. X spins =              0
(PID.TID 0000.0001) //            Min. X spins =     1000000000
(PID.TID 0000.0001) //          Total. X spins =              0
(PID.TID 0000.0001) //            Avg. X spins =       0.00E+00
(PID.TID 0000.0001) //         No. Y exchanges =              0
(PID.TID 0000.0001) //            Max. Y spins =              0
(PID.TID 0000.0001) //            Min. Y spins =     1000000000
(PID.TID 0000.0001) //          Total. Y spins =              0
(PID.TID 0000.0001) //            Avg. Y spins =       0.00E+00
(PID.TID 0000.0001) // o Thread number: 000001
(PID.TID 0000.0001) //            No. barriers =           6448
(PID.TID 0000.0001) //      Max. barrier spins =              1
(PID.TID 0000.0001) //      Min. barrier spins =              1
(PID.TID 0000.0001) //     Total barrier spins =           6448
(PID.TID 0000.0001) //      Avg. barrier spins =       1.00E+00
PROGRAM MAIN: Execution ended Normally
