(PID.TID 0000.0001) 
(PID.TID 0000.0001) // ======================================================
(PID.TID 0000.0001) //                      MITgcm UV
(PID.TID 0000.0001) //                      =========
(PID.TID 0000.0001) // ======================================================
(PID.TID 0000.0001) // execution environment starting up...
(PID.TID 0000.0001) 
(PID.TID 0000.0001) // MITgcmUV version:  checkpoint68w
(PID.TID 0000.0001) // Build user:        jm_c
(PID.TID 0000.0001) // Build host:        villon
(PID.TID 0000.0001) // Build date:        Tue Apr 16 13:08:47 EDT 2024
(PID.TID 0000.0001) 
(PID.TID 0000.0001) // =======================================================
(PID.TID 0000.0001) // Execution Environment parameter file "eedata"
(PID.TID 0000.0001) // =======================================================
(PID.TID 0000.0001) ># Example "eedata" file
(PID.TID 0000.0001) ># Lines beginning "#" are comments
(PID.TID 0000.0001) >#  nTx      :: No. threads per process in X
(PID.TID 0000.0001) >#  nTy      :: No. threads per process in Y
(PID.TID 0000.0001) ># debugMode :: print debug msg (sequence of S/R calls)
(PID.TID 0000.0001) > &EEPARMS
(PID.TID 0000.0001) ># debugMode=.TRUE.,
(PID.TID 0000.0001) > /
(PID.TID 0000.0001) ># Note: Some systems use & as the namelist terminator (as shown here).
(PID.TID 0000.0001) >#       Other systems use a / character.
(PID.TID 0000.0001) 
(PID.TID 0000.0001) // =======================================================
(PID.TID 0000.0001) // Computational Grid Specification ( see files "SIZE.h" )
(PID.TID 0000.0001) //                                  ( and "eedata"       )
(PID.TID 0000.0001) // =======================================================
(PID.TID 0000.0001)      nPx =    1 ; /* No. processes in X */
(PID.TID 0000.0001)      nPy =    1 ; /* No. processes in Y */
(PID.TID 0000.0001)      nSx =    1 ; /* No. tiles in X per process */
(PID.TID 0000.0001)      nSy =    2 ; /* No. tiles in Y per process */
(PID.TID 0000.0001)      sNx =    1 ; /* Tile size in X */
(PID.TID 0000.0001)      sNy =   16 ; /* Tile size in Y */
(PID.TID 0000.0001)      OLx =    3 ; /* Tile overlap distance in X */
(PID.TID 0000.0001)      OLy =    3 ; /* Tile overlap distance in Y */
(PID.TID 0000.0001)      nTx =    1 ; /* No. threads in X per process */
(PID.TID 0000.0001)      nTy =    1 ; /* No. threads in Y per process */
(PID.TID 0000.0001)       Nr =   25 ; /* No. levels in the vertical   */
(PID.TID 0000.0001)       Nx =    1 ; /* Total domain size in X ( = nPx*nSx*sNx ) */
(PID.TID 0000.0001)       Ny =   32 ; /* Total domain size in Y ( = nPy*nSy*sNy ) */
(PID.TID 0000.0001)   nTiles =    2 ; /* Total no. tiles per process ( = nSx*nSy ) */
(PID.TID 0000.0001)   nProcs =    1 ; /* Total no. processes ( = nPx*nPy ) */
(PID.TID 0000.0001) nThreads =    1 ; /* Total no. threads per process ( = nTx*nTy ) */
(PID.TID 0000.0001) usingMPI =    F ; /* Flag used to control whether MPI is in use */
(PID.TID 0000.0001)                   /*  note: To execute a program with MPI calls */
(PID.TID 0000.0001)                   /*  it must be launched appropriately e.g     */
(PID.TID 0000.0001)                   /*  "mpirun -np 64 ......"                    */
(PID.TID 0000.0001) useCoupler=   F ; /* Flag used to control communications with   */
(PID.TID 0000.0001)                   /*  other model components, through a coupler */
(PID.TID 0000.0001) useNest2W_parent =    F ;/* Control 2-W Nesting comm */
(PID.TID 0000.0001) useNest2W_child  =    F ;/* Control 2-W Nesting comm */
(PID.TID 0000.0001) debugMode =    F ; /* print debug msg. (sequence of S/R calls)  */
(PID.TID 0000.0001) printMapIncludesZeros=    F ; /* print zeros in Std.Output maps */
(PID.TID 0000.0001) maxLengthPrt1D=   65 /* maxLength of 1D array printed to StdOut */
(PID.TID 0000.0001) 
(PID.TID 0000.0001) // ======================================================
(PID.TID 0000.0001) // Mapping of tiles to threads
(PID.TID 0000.0001) // ======================================================
(PID.TID 0000.0001) // -o- Thread   1, tiles (   1:   1,   1:   2)
(PID.TID 0000.0001) 
(PID.TID 0000.0001) // ======================================================
(PID.TID 0000.0001) // Tile <-> Tile connectvity table
(PID.TID 0000.0001) // ======================================================
(PID.TID 0000.0001) // Tile number: 000001 (process no. = 000000)
(PID.TID 0000.0001) //        WEST: Tile = 000001, Process = 000000, Comm = put
(PID.TID 0000.0001) //                bi = 000001, bj = 000001
(PID.TID 0000.0001) //        EAST: Tile = 000001, Process = 000000, Comm = put
(PID.TID 0000.0001) //                bi = 000001, bj = 000001
(PID.TID 0000.0001) //       SOUTH: Tile = 000002, Process = 000000, Comm = put
(PID.TID 0000.0001) //                bi = 000001, bj = 000002
(PID.TID 0000.0001) //       NORTH: Tile = 000002, Process = 000000, Comm = put
(PID.TID 0000.0001) //                bi = 000001, bj = 000002
(PID.TID 0000.0001) // Tile number: 000002 (process no. = 000000)
(PID.TID 0000.0001) //        WEST: Tile = 000002, Process = 000000, Comm = put
(PID.TID 0000.0001) //                bi = 000001, bj = 000002
(PID.TID 0000.0001) //        EAST: Tile = 000002, Process = 000000, Comm = put
(PID.TID 0000.0001) //                bi = 000001, bj = 000002
(PID.TID 0000.0001) //       SOUTH: Tile = 000001, Process = 000000, Comm = put
(PID.TID 0000.0001) //                bi = 000001, bj = 000001
(PID.TID 0000.0001) //       NORTH: Tile = 000001, Process = 000000, Comm = put
(PID.TID 0000.0001) //                bi = 000001, bj = 000001
(PID.TID 0000.0001) 
(PID.TID 0000.0001)  INI_PARMS: opening model parameter file "data"
(PID.TID 0000.0001)  OPEN_COPY_DATA_FILE: opening file data
(PID.TID 0000.0001) // =======================================================
(PID.TID 0000.0001) // Parameter file "data"
(PID.TID 0000.0001) // =======================================================
(PID.TID 0000.0001) ># ====================
(PID.TID 0000.0001) ># | Model parameters |
(PID.TID 0000.0001) ># ====================
(PID.TID 0000.0001) >#
(PID.TID 0000.0001) ># Continuous equation parameters
(PID.TID 0000.0001) > &PARM01
(PID.TID 0000.0001) > tRef= 25*17.5,
(PID.TID 0000.0001) > viscAr=2.E+4,
(PID.TID 0000.0001) > viscAh=3.E+2,
(PID.TID 0000.0001) > no_slip_sides=.FALSE.,
(PID.TID 0000.0001) > no_slip_bottom=.FALSE.,
(PID.TID 0000.0001) > diffKrT=3.E+3,
(PID.TID 0000.0001) > diffKrS=3.E+3,
(PID.TID 0000.0001) > diffKhT=0.E3,
(PID.TID 0000.0001) > diffKhS=0.E3,
(PID.TID 0000.0001) >#ivdc_kappa=1.E+8,
(PID.TID 0000.0001) > beta=0.E-11,
(PID.TID 0000.0001) > f0  =1.E-4,
(PID.TID 0000.0001) > selectCoriScheme=1,
(PID.TID 0000.0001) > gravity= 10.,
(PID.TID 0000.0001) > buoyancyRelation='OCEANICP',
(PID.TID 0000.0001) > eosType='LINEAR',
(PID.TID 0000.0001) > tAlpha=2.E-4,
(PID.TID 0000.0001) > sBeta =0.E-4,
(PID.TID 0000.0001) > rhoConst=1000.,
(PID.TID 0000.0001) > rhoNil=1000.,
(PID.TID 0000.0001) > rigidLid=.FALSE.,
(PID.TID 0000.0001) > implicitFreeSurface=.TRUE.,
(PID.TID 0000.0001) > exactConserv=.TRUE.,
(PID.TID 0000.0001) > implicitDiffusion=.TRUE.,
(PID.TID 0000.0001) > staggerTimeStep=.TRUE.
(PID.TID 0000.0001) > tempAdvScheme=20,
(PID.TID 0000.0001) > saltAdvScheme=20,
(PID.TID 0000.0001) >#momStepping=.FALSE.,
(PID.TID 0000.0001) > readBinaryPrec=64,
(PID.TID 0000.0001) > writeBinaryPrec=64,
(PID.TID 0000.0001) > useSingleCpuIO=.TRUE.,
(PID.TID 0000.0001) > debugLevel=2,
(PID.TID 0000.0001) > plotLevel=0,
(PID.TID 0000.0001) > /
(PID.TID 0000.0001) >
(PID.TID 0000.0001) ># Elliptic solver parameters
(PID.TID 0000.0001) > &PARM02
(PID.TID 0000.0001) > cg2dMaxIters=1000,
(PID.TID 0000.0001) > cg2dTargetResidual=1.E-13,
(PID.TID 0000.0001) > /
(PID.TID 0000.0001) >
(PID.TID 0000.0001) ># Time stepping parameters
(PID.TID 0000.0001) > &PARM03
(PID.TID 0000.0001) > startTime=0.,
(PID.TID 0000.0001) > deltaT=1800.,
(PID.TID 0000.0001) > abEps=0.1,
(PID.TID 0000.0001) > momDissip_In_AB=.FALSE.,
(PID.TID 0000.0001) > pChkptFreq=0.,
(PID.TID 0000.0001) > chkptFreq =0.,
(PID.TID 0000.0001) > dumpFreq=864000.,
(PID.TID 0000.0001) > monitorSelect=1,
(PID.TID 0000.0001) >#- very short run:
(PID.TID 0000.0001) > nTimeSteps=20,
(PID.TID 0000.0001) > monitorFreq=1.,
(PID.TID 0000.0001) >#- longer run:
(PID.TID 0000.0001) >#nTimeSteps=4321,
(PID.TID 0000.0001) >#monitorFreq=86400.,
(PID.TID 0000.0001) > /
(PID.TID 0000.0001) >
(PID.TID 0000.0001) ># Gridding parameters
(PID.TID 0000.0001) > &PARM04
(PID.TID 0000.0001) > usingCartesianGrid=.TRUE.,
(PID.TID 0000.0001) >#delR= 10*1.E4, 480.E4, 400.E4, 320.E4, 260.E4, 200.E4, 155.E4, 120.E4,
(PID.TID 0000.0001) >#                95.E4, 80.E4, 70.E4, 65.E4, 60.E4, 55.E4, 50.E4, 50.E4,
(PID.TID 0000.0001) > delRc= 10*400.E4, 480.E4, 440.E4, 360.E4, 290.E4, 230.E4, 177.5E4, 137.5E4,
(PID.TID 0000.0001) >       107.5E4, 87.5E4, 75.E4, 67.5E4, 62.5E4, 57.5E4, 52.5E4, 50.E4, 25.E4,
(PID.TID 0000.0001) > delX=1*10.E3,
(PID.TID 0000.0001) >#delY=32*10.E3,
(PID.TID 0000.0001) > delYfile='dy.bin',
(PID.TID 0000.0001) > /
(PID.TID 0000.0001) >
(PID.TID 0000.0001) ># Input datasets
(PID.TID 0000.0001) > &PARM05
(PID.TID 0000.0001) > bathyFile      ='bathy_inP.bin',
(PID.TID 0000.0001) > hydrogThetaFile='Tini_flip.bin',
(PID.TID 0000.0001) > hydrogSaltFile ='Sini_Ydir.bin',
(PID.TID 0000.0001) >#hydrogSaltFile ='Sini_Patch.bin',
(PID.TID 0000.0001) > /
(PID.TID 0000.0001) 
(PID.TID 0000.0001)  INI_PARMS ; starts to read PARM01
(PID.TID 0000.0001)  INI_PARMS ; read PARM01 : OK
(PID.TID 0000.0001)  INI_PARMS ; starts to read PARM02
(PID.TID 0000.0001)  INI_PARMS ; read PARM02 : OK
(PID.TID 0000.0001)  INI_PARMS ; starts to read PARM03
(PID.TID 0000.0001)  INI_PARMS ; read PARM03 : OK
(PID.TID 0000.0001)  INI_PARMS ; starts to read PARM04
(PID.TID 0000.0001)  INI_PARMS ; read PARM04 : OK
(PID.TID 0000.0001)  INI_PARMS ; starts to read PARM05
(PID.TID 0000.0001)  INI_PARMS ; read PARM05 : OK
(PID.TID 0000.0001)  INI_PARMS: finished reading file "data"
(PID.TID 0000.0001)  PACKAGES_BOOT: opening data.pkg
(PID.TID 0000.0001)  OPEN_COPY_DATA_FILE: opening file data.pkg
(PID.TID 0000.0001) // =======================================================
(PID.TID 0000.0001) // Parameter file "data.pkg"
(PID.TID 0000.0001) // =======================================================
(PID.TID 0000.0001) ># Packages (lines beginning "#" are comments)
(PID.TID 0000.0001) > &PACKAGES
(PID.TID 0000.0001) >  useGMRedi=.TRUE.,
(PID.TID 0000.0001) >  useDiagnostics=.TRUE.,
(PID.TID 0000.0001) > /
(PID.TID 0000.0001) 
(PID.TID 0000.0001)  PACKAGES_BOOT: finished reading data.pkg
(PID.TID 0000.0001)  PACKAGES_BOOT: On/Off package Summary
 --------  pkgs with a standard "usePKG" On/Off switch in "data.pkg":  --------
 pkg/gmredi               compiled   and   used ( useGMRedi                = T )
 pkg/diagnostics          compiled   and   used ( useDiagnostics           = T )
 -------- pkgs without standard "usePKG" On/Off switch in "data.pkg":  --------
 pkg/generic_advdiff      compiled   and   used ( useGAD                   = T )
 pkg/mom_common           compiled   and   used ( momStepping              = T )
 pkg/mom_vecinv           compiled but not used ( +vectorInvariantMomentum = F )
 pkg/mom_fluxform         compiled   and   used ( & not vectorInvariantMom = T )
 pkg/monitor              compiled   and   used ( monitorFreq > 0.         = T )
 pkg/debug                compiled but not used ( debugMode                = F )
 pkg/rw                   compiled   and   used
 pkg/mdsio                compiled   and   used
(PID.TID 0000.0001)  PACKAGES_BOOT: End of package Summary
(PID.TID 0000.0001) 
(PID.TID 0000.0001)  GM_READPARMS: opening data.gmredi
(PID.TID 0000.0001)  OPEN_COPY_DATA_FILE: opening file data.gmredi
(PID.TID 0000.0001) // =======================================================
(PID.TID 0000.0001) // Parameter file "data.gmredi"
(PID.TID 0000.0001) // =======================================================
(PID.TID 0000.0001) ># GM-Redi parameters
(PID.TID 0000.0001) > &GM_PARM01
(PID.TID 0000.0001) >  GM_AdvForm=.TRUE.,
(PID.TID 0000.0001) >  GM_background_K=1000.,
(PID.TID 0000.0001) ># GM_isopycK    = 0.,
(PID.TID 0000.0001) ># GM_taper_scheme='orig',
(PID.TID 0000.0001) ># GM_taper_scheme='linear',
(PID.TID 0000.0001) >  GM_maxSlope    =1.E-02,
(PID.TID 0000.0001) > /
(PID.TID 0000.0001) 
(PID.TID 0000.0001)  GM_READPARMS: finished reading data.gmredi
(PID.TID 0000.0001)  DIAGNOSTICS_READPARMS: opening data.diagnostics
(PID.TID 0000.0001)  OPEN_COPY_DATA_FILE: opening file data.diagnostics
(PID.TID 0000.0001) // =======================================================
(PID.TID 0000.0001) // Parameter file "data.diagnostics"
(PID.TID 0000.0001) // =======================================================
(PID.TID 0000.0001) ># Diagnostic Package Choices
(PID.TID 0000.0001) >#--------------------
(PID.TID 0000.0001) >#  dumpAtLast (logical): always write output at the end of simulation (default=F)
(PID.TID 0000.0001) >#  diag_mnc   (logical): write to NetCDF files (default=useMNC)
(PID.TID 0000.0001) >#--for each output-stream:
(PID.TID 0000.0001) >#  fileName(n) : prefix of the output file name (max 80c long) for outp.stream n
(PID.TID 0000.0001) >#  frequency(n):< 0 : write snap-shot output every |frequency| seconds
(PID.TID 0000.0001) >#               > 0 : write time-average output every frequency seconds
(PID.TID 0000.0001) >#  timePhase(n)     : write at time = timePhase + multiple of |frequency|
(PID.TID 0000.0001) >#    averagingFreq  : frequency (in s) for periodic averaging interval
(PID.TID 0000.0001) >#    averagingPhase : phase     (in s) for periodic averaging interval
(PID.TID 0000.0001) >#    repeatCycle    : number of averaging intervals in 1 cycle
(PID.TID 0000.0001) >#  levels(:,n) : list of levels to write to file (Notes: declared as REAL)
(PID.TID 0000.0001) >#                when this entry is missing, select all common levels of this list
(PID.TID 0000.0001) >#  fields(:,n) : list of selected diagnostics fields (8.c) in outp.stream n
(PID.TID 0000.0001) >#                (see "available_diagnostics.log" file for the full list of diags)
(PID.TID 0000.0001) >#  missing_value(n) : missing value for real-type fields in output file "n"
(PID.TID 0000.0001) >#  fileFlags(n)     : specific code (8c string) for output file "n"
(PID.TID 0000.0001) >#--------------------
(PID.TID 0000.0001) > &DIAGNOSTICS_LIST
(PID.TID 0000.0001) ># diag_mnc     = .FALSE.,
(PID.TID 0000.0001) >  fields(1:4,1) = 'ETAN    ','DETADT2 ','PHIBOT  ',
(PID.TID 0000.0001) >                  'MXLDEPTH',
(PID.TID 0000.0001) >#                 'GM_BVPcW','GM_BVPcS',
(PID.TID 0000.0001) >#                 'SubMesLf','SubMpsiY',
(PID.TID 0000.0001) >#                 'GM_hTrsL','GM_baseS','GM_rLamb',
(PID.TID 0000.0001) >#                 'GM_VisbK',
(PID.TID 0000.0001) >   levels(1,1) = 1.,
(PID.TID 0000.0001) >  fileName(1) = 'surfDiag',
(PID.TID 0000.0001) >  frequency(1) = -864000.,
(PID.TID 0000.0001) >  timePhase(1) = 0.,
(PID.TID 0000.0001) >
(PID.TID 0000.0001) >  fields(1:7,2)  = 'UVEL    ','VVEL    ','WVEL    ','PHIHYD  ',
(PID.TID 0000.0001) >                   'THETA   ','THETASQ ','UVELSQ  ',
(PID.TID 0000.0001) ># do not specify levels => all levels are selected
(PID.TID 0000.0001) ># fileName(2) = 'dynDiag',
(PID.TID 0000.0001) >  frequency(2) = -864000.,
(PID.TID 0000.0001) >  timePhase(2) = 0.,
(PID.TID 0000.0001) >
(PID.TID 0000.0001) >  fields(1:8,3)  = 'DRHODR  ','RHOAnoma','THETA   ',
(PID.TID 0000.0001) >                   'GM_Kwy  ','GM_Kwz  ',
(PID.TID 0000.0001) >                   'GM_Kvy  ','GM_Kvz  ',
(PID.TID 0000.0001) >                   'GM_PsiY ',
(PID.TID 0000.0001) >  fileName(3) = 'oceDiag',
(PID.TID 0000.0001) >  frequency(3) = -864000.,
(PID.TID 0000.0001) >  timePhase(3) = 0.,
(PID.TID 0000.0001) >
(PID.TID 0000.0001) >  fields(1:5,4)  = 'DFyE_TH ','DFrE_TH ','DFrI_TH ',
(PID.TID 0000.0001) >                   'ADVy_TH ','ADVr_TH ',
(PID.TID 0000.0001) >#                  'ADVy_SLT','ADVr_SLT',
(PID.TID 0000.0001) >#  fileName(4) = 'flxDiag',
(PID.TID 0000.0001) >  frequency(4) = -864000.,
(PID.TID 0000.0001) >  timePhase(4) = 0.,
(PID.TID 0000.0001) > /
(PID.TID 0000.0001) >
(PID.TID 0000.0001) >#--------------------
(PID.TID 0000.0001) ># Parameter for Diagnostics of per level statistics:
(PID.TID 0000.0001) >#--------------------
(PID.TID 0000.0001) >#  diagSt_mnc (logical): write stat-diags to NetCDF files (default=diag_mnc)
(PID.TID 0000.0001) >#  diagSt_regMaskFile : file containing the region-mask to read-in
(PID.TID 0000.0001) >#  nSetRegMskFile   : number of region-mask sets within the region-mask file
(PID.TID 0000.0001) >#  set_regMask(i)   : region-mask set-index that identifies the region "i"
(PID.TID 0000.0001) >#  val_regMask(i)   : region "i" identifier value in the region mask
(PID.TID 0000.0001) >#--for each output-stream:
(PID.TID 0000.0001) >#  stat_fName(n) : prefix of the output file name (max 80c long) for outp.stream n
(PID.TID 0000.0001) >#  stat_freq(n):< 0 : write snap-shot output every |stat_freq| seconds
(PID.TID 0000.0001) >#               > 0 : write time-average output every stat_freq seconds
(PID.TID 0000.0001) >#  stat_phase(n)    : write at time = stat_phase + multiple of |stat_freq|
(PID.TID 0000.0001) >#  stat_region(:,n) : list of "regions" (default: 1 region only=global)
(PID.TID 0000.0001) >#  stat_fields(:,n) : list of selected diagnostics fields (8.c) in outp.stream n
(PID.TID 0000.0001) >#                (see "available_diagnostics.log" file for the full list of diags)
(PID.TID 0000.0001) >#--------------------
(PID.TID 0000.0001) > &DIAG_STATIS_PARMS
(PID.TID 0000.0001) >  stat_fields(1:13,1) = 'ETAN    ','DETADT2 ','MXLDEPTH',
(PID.TID 0000.0001) >                        'UVEL    ','VVEL    ','WVEL    ',
(PID.TID 0000.0001) >                        'THETA   ','SALT    ','GM_PsiY ',
(PID.TID 0000.0001) >                        'GM_Kvy  ','GM_Kvz  ','GM_Kwy  ','GM_Kwz  ',
(PID.TID 0000.0001) >#                       'GM_hTrsL','GM_baseS','GM_rLamb',
(PID.TID 0000.0001) >#                       'SubMesLf','SubMpsiY',
(PID.TID 0000.0001) >  stat_fName(1) = 'dynStDiag',
(PID.TID 0000.0001) >    stat_freq(1) = 21600.,
(PID.TID 0000.0001) >#   stat_freq(1) = 86400.,
(PID.TID 0000.0001) >#  stat_phase(1) = 0.,
(PID.TID 0000.0001) > /
(PID.TID 0000.0001) 
(PID.TID 0000.0001) S/R DIAGNOSTICS_READPARMS, read namelist "diagnostics_list": start
(PID.TID 0000.0001) S/R DIAGNOSTICS_READPARMS, read namelist "diagnostics_list": OK
(PID.TID 0000.0001) S/R DIAGNOSTICS_READPARMS, read namelist "DIAG_STATIS_PARMS": start
(PID.TID 0000.0001) S/R DIAGNOSTICS_READPARMS, read namelist "DIAG_STATIS_PARMS": OK
(PID.TID 0000.0001)  DIAGNOSTICS_READPARMS: global parameter summary:
(PID.TID 0000.0001)  dumpAtLast = /* always write time-ave diags at the end */
(PID.TID 0000.0001)                   F
(PID.TID 0000.0001)     ;
(PID.TID 0000.0001)  diag_mnc =   /* write NetCDF output files */
(PID.TID 0000.0001)                   F
(PID.TID 0000.0001)     ;
(PID.TID 0000.0001)  useMissingValue = /* put MissingValue where mask = 0 */
(PID.TID 0000.0001)                   F
(PID.TID 0000.0001)     ;
(PID.TID 0000.0001)  diagCG_maxIters = /* max number of iters in diag_cg2d */
(PID.TID 0000.0001)                    1000
(PID.TID 0000.0001)     ;
(PID.TID 0000.0001)  diagCG_resTarget = /* residual target for diag_cg2d */
(PID.TID 0000.0001)                 1.000000000000000E-13
(PID.TID 0000.0001)     ;
(PID.TID 0000.0001)  diagCG_pcOffDFac = /* preconditioner off-diagonal factor */
(PID.TID 0000.0001)                 9.611687812379854E-01
(PID.TID 0000.0001)     ;
(PID.TID 0000.0001) -----------------------------------------------------
(PID.TID 0000.0001)  DIAGNOSTICS_READPARMS: active diagnostics summary:
(PID.TID 0000.0001) -----------------------------------------------------
(PID.TID 0000.0001) Creating Output Stream: surfDiag
(PID.TID 0000.0001) Output Frequency:    -864000.000000 ; Phase:           0.000000
(PID.TID 0000.0001)  Averaging Freq.:          0.000000 , Phase:           0.000000 , Cycle:   1
(PID.TID 0000.0001)  missing value: -9.990000000000E+02
(PID.TID 0000.0001)  Levels:       1.
(PID.TID 0000.0001)  Fields:    ETAN     DETADT2  PHIBOT   MXLDEPTH
(PID.TID 0000.0001) Creating Output Stream: oceDiag
(PID.TID 0000.0001) Output Frequency:    -864000.000000 ; Phase:           0.000000
(PID.TID 0000.0001)  Averaging Freq.:          0.000000 , Phase:           0.000000 , Cycle:   1
(PID.TID 0000.0001)  missing value: -9.990000000000E+02
(PID.TID 0000.0001)  Levels:    will be set later
(PID.TID 0000.0001)  Fields:    DRHODR   RHOAnoma THETA    GM_Kwy   GM_Kwz   GM_Kvy   GM_Kvz   GM_PsiY
(PID.TID 0000.0001) -----------------------------------------------------
(PID.TID 0000.0001)  DIAGNOSTICS_READPARMS: statistics diags. summary:
(PID.TID 0000.0001) Creating Stats. Output Stream: dynStDiag
(PID.TID 0000.0001) Output Frequency:      21600.000000 ; Phase:           0.000000
(PID.TID 0000.0001)  Regions:   0
(PID.TID 0000.0001)  Fields:    ETAN     DETADT2  MXLDEPTH UVEL     VVEL     WVEL     THETA    SALT     GM_PsiY  GM_Kvy
(PID.TID 0000.0001)  Fields:    GM_Kvz   GM_Kwy   GM_Kwz
(PID.TID 0000.0001) -----------------------------------------------------
(PID.TID 0000.0001) 
(PID.TID 0000.0001) SET_PARMS: done
(PID.TID 0000.0001)  MDS_READVEC_LOC: open file: dy.bin
(PID.TID 0000.0001) S/R LOAD_GRID_SPACING: delY loaded from file: dy.bin
(PID.TID 0000.0001) Enter INI_VERTICAL_GRID: setInterFDr=    F ; setCenterDr=    T
(PID.TID 0000.0001) %MON XC_max                       =   5.0000000000000E+03
(PID.TID 0000.0001) %MON XC_min                       =   5.0000000000000E+03
(PID.TID 0000.0001) %MON XC_mean                      =   5.0000000000000E+03
(PID.TID 0000.0001) %MON XC_sd                        =   0.0000000000000E+00
(PID.TID 0000.0001) %MON XG_max                       =   0.0000000000000E+00
(PID.TID 0000.0001) %MON XG_min                       =   0.0000000000000E+00
(PID.TID 0000.0001) %MON XG_mean                      =   0.0000000000000E+00
(PID.TID 0000.0001) %MON XG_sd                        =   0.0000000000000E+00
(PID.TID 0000.0001) %MON DXC_max                      =   1.0000000000000E+04
(PID.TID 0000.0001) %MON DXC_min                      =   1.0000000000000E+04
(PID.TID 0000.0001) %MON DXC_mean                     =   1.0000000000000E+04
(PID.TID 0000.0001) %MON DXC_sd                       =   0.0000000000000E+00
(PID.TID 0000.0001) %MON DXF_max                      =   1.0000000000000E+04
(PID.TID 0000.0001) %MON DXF_min                      =   1.0000000000000E+04
(PID.TID 0000.0001) %MON DXF_mean                     =   1.0000000000000E+04
(PID.TID 0000.0001) %MON DXF_sd                       =   0.0000000000000E+00
(PID.TID 0000.0001) %MON DXG_max                      =   1.0000000000000E+04
(PID.TID 0000.0001) %MON DXG_min                      =   1.0000000000000E+04
(PID.TID 0000.0001) %MON DXG_mean                     =   1.0000000000000E+04
(PID.TID 0000.0001) %MON DXG_sd                       =   0.0000000000000E+00
(PID.TID 0000.0001) %MON DXV_max                      =   1.0000000000000E+04
(PID.TID 0000.0001) %MON DXV_min                      =   1.0000000000000E+04
(PID.TID 0000.0001) %MON DXV_mean                     =   1.0000000000000E+04
(PID.TID 0000.0001) %MON DXV_sd                       =   0.0000000000000E+00
(PID.TID 0000.0001) %MON YC_max                       =   3.1561290774894E+05
(PID.TID 0000.0001) %MON YC_min                       =   5.6092274511694E+03
(PID.TID 0000.0001) %MON YC_mean                      =   1.6001915336715E+05
(PID.TID 0000.0001) %MON YC_sd                        =   8.8599616236208E+04
(PID.TID 0000.0001) %MON YG_max                       =   3.1000000000000E+05
(PID.TID 0000.0001) %MON YG_min                       =  -1.8189894035459E-12
(PID.TID 0000.0001) %MON YG_mean                      =   1.5500000000000E+05
(PID.TID 0000.0001) %MON YG_sd                        =   8.8567978698292E+04
(PID.TID 0000.0001) %MON DYC_max                      =   1.1222135200113E+04
(PID.TID 0000.0001) %MON DYC_min                      =   7.9032603032250E+03
(PID.TID 0000.0001) %MON DYC_mean                     =   1.0038306734309E+04
(PID.TID 0000.0001) %MON DYC_sd                       =   1.1846105766688E+03
(PID.TID 0000.0001) %MON DYF_max                      =   1.1225815497888E+04
(PID.TID 0000.0001) %MON DYF_min                      =   7.8626243792479E+03
(PID.TID 0000.0001) %MON DYF_mean                     =   1.0038306734309E+04
(PID.TID 0000.0001) %MON DYF_sd                       =   1.1918760120598E+03
(PID.TID 0000.0001) %MON DYG_max                      =   1.1225815497888E+04
(PID.TID 0000.0001) %MON DYG_min                      =   7.8626243792479E+03
(PID.TID 0000.0001) %MON DYG_mean                     =   1.0038306734309E+04
(PID.TID 0000.0001) %MON DYG_sd                       =   1.1918760120598E+03
(PID.TID 0000.0001) %MON DYU_max                      =   1.1222135200113E+04
(PID.TID 0000.0001) %MON DYU_min                      =   7.9032603032250E+03
(PID.TID 0000.0001) %MON DYU_mean                     =   1.0038306734309E+04
(PID.TID 0000.0001) %MON DYU_sd                       =   1.1846105766688E+03
(PID.TID 0000.0001) %MON RA_max                       =   1.1225815497888E+08
(PID.TID 0000.0001) %MON RA_min                       =   7.8626243792479E+07
(PID.TID 0000.0001) %MON RA_mean                      =   1.0038306734309E+08
(PID.TID 0000.0001) %MON RA_sd                        =   1.1918760120598E+07
(PID.TID 0000.0001) %MON RAW_max                      =   1.1225815497888E+08
(PID.TID 0000.0001) %MON RAW_min                      =   7.8626243792479E+07
(PID.TID 0000.0001) %MON RAW_mean                     =   1.0038306734309E+08
(PID.TID 0000.0001) %MON RAW_sd                       =   1.1918760120598E+07
(PID.TID 0000.0001) %MON RAS_max                      =   1.1222135200113E+08
(PID.TID 0000.0001) %MON RAS_min                      =   7.9032603032250E+07
(PID.TID 0000.0001) %MON RAS_mean                     =   1.0038306734309E+08
(PID.TID 0000.0001) %MON RAS_sd                       =   1.1846105766688E+07
(PID.TID 0000.0001) %MON RAZ_max                      =   1.1222135200113E+08
(PID.TID 0000.0001) %MON RAZ_min                      =   7.9032603032250E+07
(PID.TID 0000.0001) %MON RAZ_mean                     =   1.0038306734309E+08
(PID.TID 0000.0001) %MON RAZ_sd                       =   1.1846105766688E+07
(PID.TID 0000.0001) %MON AngleCS_max                  =   1.0000000000000E+00
(PID.TID 0000.0001) %MON AngleCS_min                  =   1.0000000000000E+00
(PID.TID 0000.0001) %MON AngleCS_mean                 =   1.0000000000000E+00
(PID.TID 0000.0001) %MON AngleCS_sd                   =   0.0000000000000E+00
(PID.TID 0000.0001) %MON AngleSN_max                  =   0.0000000000000E+00
(PID.TID 0000.0001) %MON AngleSN_min                  =   0.0000000000000E+00
(PID.TID 0000.0001) %MON AngleSN_mean                 =   0.0000000000000E+00
(PID.TID 0000.0001) %MON AngleSN_sd                   =   0.0000000000000E+00
(PID.TID 0000.0001)  MDS_READ_FIELD: opening global file: bathy_inP.bin
(PID.TID 0000.0001) GAD_INIT_FIXED: GAD_OlMinSize=  1  0  1
(PID.TID 0000.0001) 
(PID.TID 0000.0001) // ===================================
(PID.TID 0000.0001) // GAD parameters :
(PID.TID 0000.0001) // ===================================
(PID.TID 0000.0001) tempAdvScheme =   /* Temp. Horiz.Advection scheme selector */
(PID.TID 0000.0001)                      20
(PID.TID 0000.0001)     ;
(PID.TID 0000.0001) tempVertAdvScheme =   /* Temp. Vert. Advection scheme selector */
(PID.TID 0000.0001)                      20
(PID.TID 0000.0001)     ;
(PID.TID 0000.0001) tempMultiDimAdvec =   /* use Muti-Dim Advec method for Temp */
(PID.TID 0000.0001)                   T
(PID.TID 0000.0001)     ;
(PID.TID 0000.0001) tempSOM_Advection = /* use 2nd Order Moment Advection for Temp */
(PID.TID 0000.0001)                   F
(PID.TID 0000.0001)     ;
(PID.TID 0000.0001) AdamsBashforthGt = /* apply Adams-Bashforth extrapolation on Gt */
(PID.TID 0000.0001)                   F
(PID.TID 0000.0001)     ;
(PID.TID 0000.0001) AdamsBashforth_T = /* apply Adams-Bashforth extrapolation on Temp */
(PID.TID 0000.0001)                   F
(PID.TID 0000.0001)     ;
(PID.TID 0000.0001) saltAdvScheme =   /* Salt. Horiz.advection scheme selector */
(PID.TID 0000.0001)                      20
(PID.TID 0000.0001)     ;
(PID.TID 0000.0001) saltVertAdvScheme =   /* Salt. Vert. Advection scheme selector */
(PID.TID 0000.0001)                      20
(PID.TID 0000.0001)     ;
(PID.TID 0000.0001) saltMultiDimAdvec =   /* use Muti-Dim Advec method for Salt */
(PID.TID 0000.0001)                   T
(PID.TID 0000.0001)     ;
(PID.TID 0000.0001) saltSOM_Advection = /* use 2nd Order Moment Advection for Salt */
(PID.TID 0000.0001)                   F
(PID.TID 0000.0001)     ;
(PID.TID 0000.0001) AdamsBashforthGs = /* apply Adams-Bashforth extrapolation on Gs */
(PID.TID 0000.0001)                   F
(PID.TID 0000.0001)     ;
(PID.TID 0000.0001) AdamsBashforth_S = /* apply Adams-Bashforth extrapolation on Salt */
(PID.TID 0000.0001)                   F
(PID.TID 0000.0001)     ;
(PID.TID 0000.0001) // ===================================
(PID.TID 0000.0001) ------------------------------------------------------------
(PID.TID 0000.0001) DIAGNOSTICS_SET_LEVELS: done
(PID.TID 0000.0001)  Total Nb of available Diagnostics: ndiagt=   211
(PID.TID 0000.0001)  write list of available Diagnostics to file: available_diagnostics.log
(PID.TID 0000.0001) SETDIAG: Allocate  1 x  1 Levels for Diagnostic #    23 ETAN
(PID.TID 0000.0001) SETDIAG: Allocate  1 x  1 Levels for Diagnostic #    25 DETADT2
(PID.TID 0000.0001) SETDIAG: Allocate  1 x  1 Levels for Diagnostic #    73 PHIBOT
(PID.TID 0000.0001) SETDIAG: Allocate  1 x  1 Levels for Diagnostic #    76 MXLDEPTH
(PID.TID 0000.0001) SETDIAG: Allocate 25 x  1 Levels for Diagnostic #    77 DRHODR
(PID.TID 0000.0001) SETDIAG: Allocate 25 x  1 Levels for Diagnostic #    64 RHOAnoma
(PID.TID 0000.0001) SETDIAG: Allocate 25 x  1 Levels for Diagnostic #    26 THETA
(PID.TID 0000.0001) SETDIAG: Allocate 25 x  1 Levels for Diagnostic #   201 GM_Kwy
(PID.TID 0000.0001) SETDIAG: Allocate 25 x  1 Levels for Diagnostic #   202 GM_Kwz
(PID.TID 0000.0001) SETDIAG: Allocate 25 x  1 Levels for Diagnostic #   197 GM_Kvy
(PID.TID 0000.0001) SETDIAG: Allocate 25 x  1 Levels for Diagnostic #   199 GM_Kvz
(PID.TID 0000.0001) SETDIAG: Allocate 25 x  1 Levels for Diagnostic #   204 GM_PsiY
(PID.TID 0000.0001)   space allocated for all diagnostics:     204 levels
(PID.TID 0000.0001) DIAGNOSTICS_SET_POINTERS: Set levels for Outp.Stream: oceDiag
(PID.TID 0000.0001)  Levels:       1.   2.   3.   4.   5.   6.   7.   8.   9.  10.  11.  12.  13.  14.  15.  16.  17.  18.  19.  20.
(PID.TID 0000.0001)  Levels:      21.  22.  23.  24.  25.
(PID.TID 0000.0001) DIAGNOSTICS_SET_POINTERS: done
(PID.TID 0000.0001) ------------------------------------------------------------
(PID.TID 0000.0001) DIAGSTATS_SET_REGIONS: define no region
(PID.TID 0000.0001) ------------------------------------------------------------
(PID.TID 0000.0001) SETDIAG: Allocate  1 Levels for Stats-Diag #    23 ETAN
(PID.TID 0000.0001) SETDIAG: Allocate  1 Levels for Stats-Diag #    25 DETADT2
(PID.TID 0000.0001) SETDIAG: Allocate  1 Levels for Stats-Diag #    76 MXLDEPTH
(PID.TID 0000.0001) SETDIAG: Allocate 25 Levels for Stats-Diag #    30 UVEL
(PID.TID 0000.0001) SETDIAG: Allocate 25 Levels for Stats-Diag #    31 VVEL
(PID.TID 0000.0001) SETDIAG: Allocate 25 Levels for Stats-Diag #    32 WVEL
(PID.TID 0000.0001) SETDIAG: Allocate 25 Levels for Stats-Diag #    26 THETA
(PID.TID 0000.0001) SETDIAG: Allocate 25 Levels for Stats-Diag #    27 SALT
(PID.TID 0000.0001) SETDIAG: Allocate 25 Levels for Stats-Diag #   204 GM_PsiY
(PID.TID 0000.0001) SETDIAG: Allocate 25 Levels for Stats-Diag #   197 GM_Kvy
(PID.TID 0000.0001) SETDIAG: Allocate 25 Levels for Stats-Diag #   199 GM_Kvz
(PID.TID 0000.0001) SETDIAG: Allocate 25 Levels for Stats-Diag #   201 GM_Kwy
(PID.TID 0000.0001) SETDIAG: Allocate 25 Levels for Stats-Diag #   202 GM_Kwz
(PID.TID 0000.0001)   space allocated for all stats-diags:     253 levels
(PID.TID 0000.0001) DIAGSTATS_SET_POINTERS: done
(PID.TID 0000.0001) ------------------------------------------------------------
(PID.TID 0000.0001) DIAGSTATS_INI_IO: open file: dynStDiag.0000000000.txt , unit=     9
(PID.TID 0000.0001) %MON fCori_max                    =   1.0000000000000E-04
(PID.TID 0000.0001) %MON fCori_min                    =   1.0000000000000E-04
(PID.TID 0000.0001) %MON fCori_mean                   =   1.0000000000000E-04
(PID.TID 0000.0001) %MON fCori_sd                     =   2.7105054312138E-20
(PID.TID 0000.0001) %MON fCoriG_max                   =   1.0000000000000E-04
(PID.TID 0000.0001) %MON fCoriG_min                   =   1.0000000000000E-04
(PID.TID 0000.0001) %MON fCoriG_mean                  =   1.0000000000000E-04
(PID.TID 0000.0001) %MON fCoriG_sd                    =   2.7105054312138E-20
(PID.TID 0000.0001) %MON fCoriCos_max                 =   0.0000000000000E+00
(PID.TID 0000.0001) %MON fCoriCos_min                 =   0.0000000000000E+00
(PID.TID 0000.0001) %MON fCoriCos_mean                =   0.0000000000000E+00
(PID.TID 0000.0001) %MON fCoriCos_sd                  =   0.0000000000000E+00
(PID.TID 0000.0001) INI_CG2D: CG2D normalisation factor =  3.2127074403353547E-08
(PID.TID 0000.0001) 
(PID.TID 0000.0001) // =======================================================
(PID.TID 0000.0001) // Model configuration
(PID.TID 0000.0001) // =======================================================
(PID.TID 0000.0001) //
(PID.TID 0000.0001) // "Physical" paramters ( PARM01 in namelist )
(PID.TID 0000.0001) //
(PID.TID 0000.0001) buoyancyRelation = /* Type of relation to get Buoyancy */
(PID.TID 0000.0001)               'OCEANICP'
(PID.TID 0000.0001)     ;
(PID.TID 0000.0001) fluidIsAir   =  /* fluid major constituent is Air */
(PID.TID 0000.0001)                   F
(PID.TID 0000.0001)     ;
(PID.TID 0000.0001) fluidIsWater =  /* fluid major constituent is Water */
(PID.TID 0000.0001)                   T
(PID.TID 0000.0001)     ;
(PID.TID 0000.0001) usingPCoords =  /* use p (or p*) vertical coordinate */
(PID.TID 0000.0001)                   T
(PID.TID 0000.0001)     ;
(PID.TID 0000.0001) usingZCoords =  /* use z (or z*) vertical coordinate */
(PID.TID 0000.0001)                   F
(PID.TID 0000.0001)     ;
(PID.TID 0000.0001) tRef =   /* Reference temperature profile ( oC or K ) */
(PID.TID 0000.0001)    25 @  1.750000000000000E+01              /* K =  1: 25 */
(PID.TID 0000.0001)     ;
(PID.TID 0000.0001) sRef =   /* Reference salinity profile ( g/kg ) */
(PID.TID 0000.0001)    25 @  3.000000000000000E+01              /* K =  1: 25 */
(PID.TID 0000.0001)     ;
(PID.TID 0000.0001) rhoRef =   /* Density vertical profile from (Ref,sRef)( kg/m^3 ) */
(PID.TID 0000.0001)    25 @  1.000000000000000E+03              /* K =  1: 25 */
(PID.TID 0000.0001)     ;
(PID.TID 0000.0001) dBdrRef = /* Vertical grad. of reference buoyancy [(m/s/r)^2] */
(PID.TID 0000.0001)    25 @  0.000000000000000E+00              /* K =  1: 25 */
(PID.TID 0000.0001)     ;
(PID.TID 0000.0001) useStrainTensionVisc= /* Use StrainTension Form of Viscous Operator */
(PID.TID 0000.0001)                   F
(PID.TID 0000.0001)     ;
(PID.TID 0000.0001) useVariableVisc = /* Use variable horizontal viscosity */
(PID.TID 0000.0001)                   F
(PID.TID 0000.0001)     ;
(PID.TID 0000.0001) useHarmonicVisc = /* Use harmonic horizontal viscosity */
(PID.TID 0000.0001)                   T
(PID.TID 0000.0001)     ;
(PID.TID 0000.0001) useBiharmonicVisc= /* Use biharmonic horiz.  viscosity */
(PID.TID 0000.0001)                   F
(PID.TID 0000.0001)     ;
(PID.TID 0000.0001) useSmag3D = /* Use isotropic 3-D Smagorinsky viscosity */
(PID.TID 0000.0001)                   F
(PID.TID 0000.0001)     ;
(PID.TID 0000.0001) viscAh  =   /* Lateral harmonic viscosity ( m^2/s ) */
(PID.TID 0000.0001)                 3.000000000000000E+02
(PID.TID 0000.0001)     ;
(PID.TID 0000.0001) viscA4  =   /* Lateral biharmonic viscosity ( m^4/s ) */
(PID.TID 0000.0001)                 0.000000000000000E+00
(PID.TID 0000.0001)     ;
(PID.TID 0000.0001) no_slip_sides =  /* Viscous BCs: No-slip sides */
(PID.TID 0000.0001)                   F
(PID.TID 0000.0001)     ;
(PID.TID 0000.0001) sideDragFactor = /* side-drag scaling factor (non-dim) */
(PID.TID 0000.0001)                 2.000000000000000E+00
(PID.TID 0000.0001)     ;
(PID.TID 0000.0001) viscArNr = /* vertical profile of vertical viscosity (Pa^2/s )*/
(PID.TID 0000.0001)    25 @  2.000000000000000E+04              /* K =  1: 25 */
(PID.TID 0000.0001)     ;
(PID.TID 0000.0001) no_slip_bottom =  /* Viscous BCs: No-slip bottom */
(PID.TID 0000.0001)                   F
(PID.TID 0000.0001)     ;
(PID.TID 0000.0001) bottomVisc_pCell = /* Partial-cell in bottom Visc. BC */
(PID.TID 0000.0001)                   F
(PID.TID 0000.0001)     ;
(PID.TID 0000.0001) bottomDragLinear = /* linear bottom-drag coefficient ( m/s ) */
(PID.TID 0000.0001)                 0.000000000000000E+00
(PID.TID 0000.0001)     ;
(PID.TID 0000.0001) bottomDragQuadratic = /* quadratic bottom-drag coefficient (-) */
(PID.TID 0000.0001)                 0.000000000000000E+00
(PID.TID 0000.0001)     ;
(PID.TID 0000.0001) selectBotDragQuadr = /* select quadratic bottom drag options */
(PID.TID 0000.0001)                      -1
(PID.TID 0000.0001)     ;
(PID.TID 0000.0001) diffKhT =   /* Laplacian diffusion of heat laterally ( m^2/s ) */
(PID.TID 0000.0001)                 0.000000000000000E+00
(PID.TID 0000.0001)     ;
(PID.TID 0000.0001) diffK4T =   /* Biharmonic diffusion of heat laterally ( m^4/s ) */
(PID.TID 0000.0001)                 0.000000000000000E+00
(PID.TID 0000.0001)     ;
(PID.TID 0000.0001) diffKhS =   /* Laplacian diffusion of salt laterally ( m^2/s ) */
(PID.TID 0000.0001)                 0.000000000000000E+00
(PID.TID 0000.0001)     ;
(PID.TID 0000.0001) diffK4S =   /* Biharmonic diffusion of salt laterally ( m^4/s ) */
(PID.TID 0000.0001)                 0.000000000000000E+00
(PID.TID 0000.0001)     ;
(PID.TID 0000.0001) diffKrNrT = /* vertical profile of vertical diffusion of Temp (Pa^2/s )*/
(PID.TID 0000.0001)    25 @  3.000000000000000E+03              /* K =  1: 25 */
(PID.TID 0000.0001)     ;
(PID.TID 0000.0001) diffKrNrS = /* vertical profile of vertical diffusion of Salt (Pa^2/s )*/
(PID.TID 0000.0001)    25 @  3.000000000000000E+03              /* K =  1: 25 */
(PID.TID 0000.0001)     ;
(PID.TID 0000.0001) diffKrBL79surf = /* Surface diffusion for Bryan and Lewis 79 ( m^2/s ) */
(PID.TID 0000.0001)                 0.000000000000000E+00
(PID.TID 0000.0001)     ;
(PID.TID 0000.0001) diffKrBL79deep = /* Deep diffusion for Bryan and Lewis 1979 ( m^2/s ) */
(PID.TID 0000.0001)                 0.000000000000000E+00
(PID.TID 0000.0001)     ;
(PID.TID 0000.0001) diffKrBL79scl = /* Depth scale for Bryan and Lewis 1979 ( m ) */
(PID.TID 0000.0001)                 2.000000000000000E+02
(PID.TID 0000.0001)     ;
(PID.TID 0000.0001) diffKrBL79Ho = /* Turning depth for Bryan and Lewis 1979 ( m ) */
(PID.TID 0000.0001)                -2.000000000000000E+03
(PID.TID 0000.0001)     ;
(PID.TID 0000.0001) ivdc_kappa = /* Implicit Vertical Diffusivity for Convection (Pa^2/s) */
(PID.TID 0000.0001)                 0.000000000000000E+00
(PID.TID 0000.0001)     ;
(PID.TID 0000.0001) hMixCriteria=  /* Criteria for mixed-layer diagnostic */
(PID.TID 0000.0001)                -8.000000000000000E-01
(PID.TID 0000.0001)     ;
(PID.TID 0000.0001) dRhoSmall =  /* Parameter for mixed-layer diagnostic */
(PID.TID 0000.0001)                 1.000000000000000E-06
(PID.TID 0000.0001)     ;
(PID.TID 0000.0001) hMixSmooth=  /* Smoothing parameter for mixed-layer diagnostic */
(PID.TID 0000.0001)                 0.000000000000000E+00
(PID.TID 0000.0001)     ;
(PID.TID 0000.0001) eosType =  /* Type of Equation of State */
(PID.TID 0000.0001)               'LINEAR'
(PID.TID 0000.0001)     ;
(PID.TID 0000.0001) tAlpha = /* Linear EOS thermal expansion coefficient ( 1/oC ) */
(PID.TID 0000.0001)                 2.000000000000000E-04
(PID.TID 0000.0001)     ;
(PID.TID 0000.0001) sBeta  = /* Linear EOS haline contraction coefficient ( 1/(g/kg) ) */
(PID.TID 0000.0001)                 0.000000000000000E+00
(PID.TID 0000.0001)     ;
(PID.TID 0000.0001) rhoNil    = /* Reference density for Linear EOS ( kg/m^3 ) */
(PID.TID 0000.0001)                 1.000000000000000E+03
(PID.TID 0000.0001)     ;
(PID.TID 0000.0001) surf_pRef = /* Surface reference pressure ( Pa ) */
(PID.TID 0000.0001)                 1.013250000000000E+05
(PID.TID 0000.0001)     ;
(PID.TID 0000.0001) HeatCapacity_Cp =  /* Specific heat capacity ( J/kg/K ) */
(PID.TID 0000.0001)                 3.994000000000000E+03
(PID.TID 0000.0001)     ;
(PID.TID 0000.0001) celsius2K = /* 0 degree Celsius converted to Kelvin ( K ) */
(PID.TID 0000.0001)                 2.731500000000000E+02
(PID.TID 0000.0001)     ;
(PID.TID 0000.0001) rhoConst  = /* Reference density (Boussinesq)  ( kg/m^3 ) */
(PID.TID 0000.0001)                 1.000000000000000E+03
(PID.TID 0000.0001)     ;
(PID.TID 0000.0001) rhoFacC = /* normalized Reference density @ cell-Center (-) */
(PID.TID 0000.0001)    25 @  1.000000000000000E+00              /* K =  1: 25 */
(PID.TID 0000.0001)     ;
(PID.TID 0000.0001) rhoFacF = /* normalized Reference density @ W-Interface (-) */
(PID.TID 0000.0001)    26 @  1.000000000000000E+00              /* K =  1: 26 */
(PID.TID 0000.0001)     ;
(PID.TID 0000.0001) rhoConstFresh = /* Fresh-water reference density ( kg/m^3 ) */
(PID.TID 0000.0001)                 1.000000000000000E+03
(PID.TID 0000.0001)     ;
(PID.TID 0000.0001) gravity =   /* Gravitational acceleration ( m/s^2 ) */
(PID.TID 0000.0001)                 1.000000000000000E+01
(PID.TID 0000.0001)     ;
(PID.TID 0000.0001) gBaro =   /* Barotropic gravity ( m/s^2 ) */
(PID.TID 0000.0001)                 1.000000000000000E+01
(PID.TID 0000.0001)     ;
(PID.TID 0000.0001) gravFacC = /* gravity factor (vs surf.) @ cell-Center (-) */
(PID.TID 0000.0001)    25 @  1.000000000000000E+00              /* K =  1: 25 */
(PID.TID 0000.0001)     ;
(PID.TID 0000.0001) gravFacF = /* gravity factor (vs surf.) @ W-Interface (-) */
(PID.TID 0000.0001)    26 @  1.000000000000000E+00              /* K =  1: 26 */
(PID.TID 0000.0001)     ;
(PID.TID 0000.0001) rotationPeriod =   /* Rotation Period ( s ) */
(PID.TID 0000.0001)                 8.616400000000000E+04
(PID.TID 0000.0001)     ;
(PID.TID 0000.0001) omega =   /* Angular velocity ( rad/s ) */
(PID.TID 0000.0001)                 7.292123516990375E-05
(PID.TID 0000.0001)     ;
(PID.TID 0000.0001) f0 =   /* Reference coriolis parameter ( 1/s ) */
(PID.TID 0000.0001)                 1.000000000000000E-04
(PID.TID 0000.0001)     ;
(PID.TID 0000.0001) beta =   /* Beta ( 1/(m.s) ) */
(PID.TID 0000.0001)                 0.000000000000000E+00
(PID.TID 0000.0001)     ;
(PID.TID 0000.0001) fPrime =   /* Second coriolis parameter ( 1/s ) */
(PID.TID 0000.0001)                 0.000000000000000E+00
(PID.TID 0000.0001)     ;
(PID.TID 0000.0001) rigidLid =   /* Rigid lid on/off flag */
(PID.TID 0000.0001)                   F
(PID.TID 0000.0001)     ;
(PID.TID 0000.0001) implicitFreeSurface =   /* Implicit free surface on/off flag */
(PID.TID 0000.0001)                   T
(PID.TID 0000.0001)     ;
(PID.TID 0000.0001) freeSurfFac =   /* Implicit free surface factor */
(PID.TID 0000.0001)                 1.000000000000000E+00
(PID.TID 0000.0001)     ;
(PID.TID 0000.0001) implicSurfPress =  /* Surface Pressure implicit factor (0-1) */
(PID.TID 0000.0001)                 1.000000000000000E+00
(PID.TID 0000.0001)     ;
(PID.TID 0000.0001) implicDiv2DFlow =  /* Barot. Flow Div. implicit factor (0-1) */
(PID.TID 0000.0001)                 1.000000000000000E+00
(PID.TID 0000.0001)     ;
(PID.TID 0000.0001) uniformLin_PhiSurf = /* use uniform Bo_surf on/off flag */
(PID.TID 0000.0001)                   T
(PID.TID 0000.0001)     ;
(PID.TID 0000.0001) uniformFreeSurfLev = /* free-surface level-index is uniform */
(PID.TID 0000.0001)                   F
(PID.TID 0000.0001)     ;
(PID.TID 0000.0001) sIceLoadFac =  /* scale factor for sIceLoad (0-1) */
(PID.TID 0000.0001)                 1.000000000000000E+00
(PID.TID 0000.0001)     ;
(PID.TID 0000.0001) hFacMin =   /* minimum partial cell factor (hFac) */
(PID.TID 0000.0001)                 1.000000000000000E+00
(PID.TID 0000.0001)     ;
(PID.TID 0000.0001) hFacMinDr = /* minimum partial cell thickness (Pa) */
(PID.TID 0000.0001)                 0.000000000000000E+00
(PID.TID 0000.0001)     ;
(PID.TID 0000.0001) exactConserv =  /* Exact Volume Conservation on/off flag */
(PID.TID 0000.0001)                   T
(PID.TID 0000.0001)     ;
(PID.TID 0000.0001) linFSConserveTr = /* Tracer correction for Lin Free Surface on/off flag */
(PID.TID 0000.0001)                   F
(PID.TID 0000.0001)     ;
(PID.TID 0000.0001) nonlinFreeSurf = /* Non-linear Free Surf. options (-1,0,1,2,3)*/
(PID.TID 0000.0001)                       0
(PID.TID 0000.0001)      -1,0= Off ; 1,2,3= On, 2=+rescale gU,gV, 3=+update cg2d solv.
(PID.TID 0000.0001)     ;
(PID.TID 0000.0001) hFacInf =   /* lower threshold for hFac (nonlinFreeSurf only)*/
(PID.TID 0000.0001)                 2.000000000000000E-01
(PID.TID 0000.0001)     ;
(PID.TID 0000.0001) hFacSup =   /* upper threshold for hFac (nonlinFreeSurf only)*/
(PID.TID 0000.0001)                 2.000000000000000E+00
(PID.TID 0000.0001)     ;
(PID.TID 0000.0001) select_rStar = /* r* Vertical coord. options (=0 r coord.; >0 uses r*)*/
(PID.TID 0000.0001)                       0
(PID.TID 0000.0001)     ;
(PID.TID 0000.0001) useRealFreshWaterFlux = /* Real Fresh Water Flux on/off flag*/
(PID.TID 0000.0001)                   F
(PID.TID 0000.0001)     ;
(PID.TID 0000.0001) temp_EvPrRn = /* Temp. of Evap/Prec/R (UNSET=use local T)(oC)*/
(PID.TID 0000.0001)                 1.234567000000000E+05
(PID.TID 0000.0001)     ;
(PID.TID 0000.0001) salt_EvPrRn = /* Salin. of Evap/Prec/R (UNSET=use local S)(g/kg)*/
(PID.TID 0000.0001)                 0.000000000000000E+00
(PID.TID 0000.0001)     ;
(PID.TID 0000.0001) selectAddFluid = /* option for mass source/sink of fluid (=0: off) */
(PID.TID 0000.0001)                       0
(PID.TID 0000.0001)     ;
(PID.TID 0000.0001) temp_addMass = /* Temp. of addMass array (UNSET=use local T)(oC)*/
(PID.TID 0000.0001)                 1.234567000000000E+05
(PID.TID 0000.0001)     ;
(PID.TID 0000.0001) salt_addMass = /* Salin. of addMass array (UNSET=use local S)(g/kg)*/
(PID.TID 0000.0001)                 0.000000000000000E+00
(PID.TID 0000.0001)     ;
(PID.TID 0000.0001) convertFW2Salt = /* convert F.W. Flux to Salt Flux (-1=use local S)(g/kg)*/
(PID.TID 0000.0001)                 3.500000000000000E+01
(PID.TID 0000.0001)     ;
(PID.TID 0000.0001) use3Dsolver = /* use 3-D pressure solver on/off flag */
(PID.TID 0000.0001)                   F
(PID.TID 0000.0001)     ;
(PID.TID 0000.0001) nonHydrostatic =  /* Non-Hydrostatic on/off flag */
(PID.TID 0000.0001)                   F
(PID.TID 0000.0001)     ;
(PID.TID 0000.0001) nh_Am2 = /* Non-Hydrostatic terms scaling factor */
(PID.TID 0000.0001)                 1.000000000000000E+00
(PID.TID 0000.0001)     ;
(PID.TID 0000.0001) implicitNHPress = /* Non-Hyd Pressure implicit factor (0-1)*/
(PID.TID 0000.0001)                 1.000000000000000E+00
(PID.TID 0000.0001)     ;
(PID.TID 0000.0001) selectNHfreeSurf = /* Non-Hyd (free-)Surface option */
(PID.TID 0000.0001)                       0
(PID.TID 0000.0001)     ;
(PID.TID 0000.0001) quasiHydrostatic = /* Quasi-Hydrostatic on/off flag */
(PID.TID 0000.0001)                   F
(PID.TID 0000.0001)     ;
(PID.TID 0000.0001) calc_wVelocity = /* vertical velocity calculation on/off flag */
(PID.TID 0000.0001)                   T
(PID.TID 0000.0001)     ;
(PID.TID 0000.0001) momStepping =  /* Momentum equation on/off flag */
(PID.TID 0000.0001)                   T
(PID.TID 0000.0001)     ;
(PID.TID 0000.0001) vectorInvariantMomentum= /* Vector-Invariant Momentum on/off */
(PID.TID 0000.0001)                   F
(PID.TID 0000.0001)     ;
(PID.TID 0000.0001) momAdvection =  /* Momentum advection on/off flag */
(PID.TID 0000.0001)                   T
(PID.TID 0000.0001)     ;
(PID.TID 0000.0001) momViscosity =  /* Momentum viscosity on/off flag */
(PID.TID 0000.0001)                   T
(PID.TID 0000.0001)     ;
(PID.TID 0000.0001) momImplVertAdv= /* Momentum implicit vert. advection on/off*/
(PID.TID 0000.0001)                   F
(PID.TID 0000.0001)     ;
(PID.TID 0000.0001) implicitViscosity = /* Implicit viscosity on/off flag */
(PID.TID 0000.0001)                   F
(PID.TID 0000.0001)     ;
(PID.TID 0000.0001) selectImplicitDrag= /* Implicit bot Drag options (0,1,2)*/
(PID.TID 0000.0001)                       0
(PID.TID 0000.0001)     0= Expl. ; 1= Impl. on provis. Vel ; 2= Fully Impl (with surf.P)
(PID.TID 0000.0001)     ;
(PID.TID 0000.0001) selectMetricTerms= /* Metric-Terms on/off flag (=0/1) */
(PID.TID 0000.0001)                       0
(PID.TID 0000.0001)     ;
(PID.TID 0000.0001) useNHMTerms = /* Non-Hydrostatic Metric-Terms on/off */
(PID.TID 0000.0001)                   F
(PID.TID 0000.0001)     ;
(PID.TID 0000.0001) selectCoriMap = /* Coriolis Map options (0,1,2,3)*/
(PID.TID 0000.0001)                       1
(PID.TID 0000.0001)     0= f-Plane ; 1= Beta-Plane ; 2= Spherical ; 3= read from file
(PID.TID 0000.0001)     ;
(PID.TID 0000.0001) select3dCoriScheme= /* 3-D Coriolis on/off flag (=0/1) */
(PID.TID 0000.0001)                       0
(PID.TID 0000.0001)     ;
(PID.TID 0000.0001) useCoriolis =  /* Coriolis on/off flag */
(PID.TID 0000.0001)                   T
(PID.TID 0000.0001)     ;
(PID.TID 0000.0001) useCDscheme =  /* CD scheme on/off flag */
(PID.TID 0000.0001)                   F
(PID.TID 0000.0001)     ;
(PID.TID 0000.0001) selectCoriScheme= /* Scheme selector for Coriolis-Term */
(PID.TID 0000.0001)                       1
(PID.TID 0000.0001)    = 0 : original discretization (simple averaging, no hFac)
(PID.TID 0000.0001)    = 1 : Wet-point averaging (Jamar & Ozer 1986)
(PID.TID 0000.0001)    = 2 : energy conserving scheme (no hFac weight)
(PID.TID 0000.0001)    = 3 : energy conserving scheme using Wet-point averaging
(PID.TID 0000.0001)     ;
(PID.TID 0000.0001) momForcing =  /* Momentum forcing on/off flag */
(PID.TID 0000.0001)                   T
(PID.TID 0000.0001)     ;
(PID.TID 0000.0001) momTidalForcing = /* Momentum Tidal forcing on/off flag */
(PID.TID 0000.0001)                   T
(PID.TID 0000.0001)     ;
(PID.TID 0000.0001) momPressureForcing =  /* Momentum pressure term on/off flag */
(PID.TID 0000.0001)                   T
(PID.TID 0000.0001)     ;
(PID.TID 0000.0001) implicitIntGravWave= /* Implicit Internal Gravity Wave flag */
(PID.TID 0000.0001)                   F
(PID.TID 0000.0001)     ;
(PID.TID 0000.0001) staggerTimeStep =    /* Stagger time stepping on/off flag */
(PID.TID 0000.0001)                   T
(PID.TID 0000.0001)     ;
(PID.TID 0000.0001) doResetHFactors = /* reset thickness factors @ each time-step */
(PID.TID 0000.0001)                   F
(PID.TID 0000.0001)     ;
(PID.TID 0000.0001) multiDimAdvection =  /* enable/disable Multi-Dim Advection */
(PID.TID 0000.0001)                   T
(PID.TID 0000.0001)     ;
(PID.TID 0000.0001) useMultiDimAdvec =   /* Multi-Dim Advection is/is-not used */
(PID.TID 0000.0001)                   T
(PID.TID 0000.0001)     ;
(PID.TID 0000.0001) implicitDiffusion = /* Implicit Diffusion on/off flag */
(PID.TID 0000.0001)                   T
(PID.TID 0000.0001)     ;
(PID.TID 0000.0001) tempStepping =  /* Temperature equation on/off flag */
(PID.TID 0000.0001)                   T
(PID.TID 0000.0001)     ;
(PID.TID 0000.0001) tempAdvection = /* Temperature advection on/off flag */
(PID.TID 0000.0001)                   T
(PID.TID 0000.0001)     ;
(PID.TID 0000.0001) tempImplVertAdv = /* Temp. implicit vert. advection on/off */
(PID.TID 0000.0001)                   F
(PID.TID 0000.0001)     ;
(PID.TID 0000.0001) tempForcing  =  /* Temperature forcing on/off flag */
(PID.TID 0000.0001)                   T
(PID.TID 0000.0001)     ;
(PID.TID 0000.0001) doThetaClimRelax = /* apply SST relaxation on/off flag */
(PID.TID 0000.0001)                   F
(PID.TID 0000.0001)     ;
(PID.TID 0000.0001) tempIsActiveTr = /* Temp. is a dynamically Active Tracer */
(PID.TID 0000.0001)                   T
(PID.TID 0000.0001)     ;
(PID.TID 0000.0001) saltStepping =  /* Salinity equation on/off flag */
(PID.TID 0000.0001)                   T
(PID.TID 0000.0001)     ;
(PID.TID 0000.0001) saltAdvection = /* Salinity advection on/off flag */
(PID.TID 0000.0001)                   T
(PID.TID 0000.0001)     ;
(PID.TID 0000.0001) saltImplVertAdv = /* Sali. implicit vert. advection on/off */
(PID.TID 0000.0001)                   F
(PID.TID 0000.0001)     ;
(PID.TID 0000.0001) saltForcing  =  /* Salinity forcing on/off flag */
(PID.TID 0000.0001)                   T
(PID.TID 0000.0001)     ;
(PID.TID 0000.0001) doSaltClimRelax = /* apply SSS relaxation on/off flag */
(PID.TID 0000.0001)                   F
(PID.TID 0000.0001)     ;
(PID.TID 0000.0001) saltIsActiveTr = /* Salt  is a dynamically Active Tracer */
(PID.TID 0000.0001)                   F
(PID.TID 0000.0001)     ;
(PID.TID 0000.0001)  readBinaryPrec = /* Precision used for reading binary files */
(PID.TID 0000.0001)                      64
(PID.TID 0000.0001)     ;
(PID.TID 0000.0001) writeBinaryPrec = /* Precision used for writing binary files */
(PID.TID 0000.0001)                      64
(PID.TID 0000.0001)     ;
(PID.TID 0000.0001)  rwSuffixType =   /* select format of mds file suffix */
(PID.TID 0000.0001)                       0
(PID.TID 0000.0001)    = 0 : myIter (I10.10) ;   = 1 : 100*myTime (100th sec) ;
(PID.TID 0000.0001)    = 2 : myTime (seconds);   = 3 : myTime/360 (10th of hr);
(PID.TID 0000.0001)    = 4 : myTime/3600 (hours)
(PID.TID 0000.0001)     ;
(PID.TID 0000.0001)  globalFiles = /* write "global" (=not per tile) files */
(PID.TID 0000.0001)                   F
(PID.TID 0000.0001)     ;
(PID.TID 0000.0001)  useSingleCpuIO = /* only master MPI process does I/O */
(PID.TID 0000.0001)                   T
(PID.TID 0000.0001)     ;
(PID.TID 0000.0001)  useSingleCpuInput = /* only master process reads input */
(PID.TID 0000.0001)                   T
(PID.TID 0000.0001)     ;
(PID.TID 0000.0001) /* debLev[*]  : level of debug & auxiliary message printing */
(PID.TID 0000.0001) debLevZero =  0 ; /* level of disabled aux. msg printing */
(PID.TID 0000.0001)    debLevA =  1 ; /* level of minimum  aux. msg printing */
(PID.TID 0000.0001)    debLevB =  2 ; /* level of low aux. print (report read-file opening)*/
(PID.TID 0000.0001)    debLevC =  3 ; /* level of moderate debug prt (most pkgs debug msg) */
(PID.TID 0000.0001)    debLevD =  4 ; /* level of enhanced debug prt (add DEBUG_STATS prt) */
(PID.TID 0000.0001)    debLevE =  5 ; /* level of extensive debug printing */
(PID.TID 0000.0001) debugLevel =  /* select debug printing level */
(PID.TID 0000.0001)                       2
(PID.TID 0000.0001)     ;
(PID.TID 0000.0001)  plotLevel =  /* select PLOT_FIELD printing level */
(PID.TID 0000.0001)                       0
(PID.TID 0000.0001)     ;
(PID.TID 0000.0001) //
(PID.TID 0000.0001) // Elliptic solver(s) paramters ( PARM02 in namelist )
(PID.TID 0000.0001) //
(PID.TID 0000.0001) cg2dMaxIters =   /* Upper limit on 2d con. grad iterations  */
(PID.TID 0000.0001)                    1000
(PID.TID 0000.0001)     ;
(PID.TID 0000.0001) cg2dMinItersNSA =   /* Minimum number of iterations of 2d con. grad solver  */
(PID.TID 0000.0001)                       0
(PID.TID 0000.0001)     ;
(PID.TID 0000.0001) cg2dUseMinResSol= /* use cg2d last-iter(=0) / min-resid.(=1) solution */
(PID.TID 0000.0001)                       0
(PID.TID 0000.0001)     ;
(PID.TID 0000.0001) cg2dTargetResidual =   /* 2d con. grad target residual  */
(PID.TID 0000.0001)                 1.000000000000000E-13
(PID.TID 0000.0001)     ;
(PID.TID 0000.0001) cg2dTargetResWunit =   /* CG2d target residual [W units] */
(PID.TID 0000.0001)                -1.000000000000000E+00
(PID.TID 0000.0001)     ;
(PID.TID 0000.0001) cg2dPreCondFreq =   /* Freq. for updating cg2d preconditioner */
(PID.TID 0000.0001)                       1
(PID.TID 0000.0001)     ;
(PID.TID 0000.0001) useSRCGSolver =  /* use single reduction CG solver(s) */
(PID.TID 0000.0001)                   F
(PID.TID 0000.0001)     ;
(PID.TID 0000.0001) useNSACGSolver =  /* use not-self-adjoint CG solver */
(PID.TID 0000.0001)                   F
(PID.TID 0000.0001)     ;
(PID.TID 0000.0001) printResidualFreq = /* Freq. for printing CG residual */
(PID.TID 0000.0001)                       0
(PID.TID 0000.0001)     ;
(PID.TID 0000.0001) //
(PID.TID 0000.0001) // Time stepping paramters ( PARM03 in namelist )
(PID.TID 0000.0001) //
(PID.TID 0000.0001) deltaTMom =   /* Momentum equation timestep ( s ) */
(PID.TID 0000.0001)                 1.800000000000000E+03
(PID.TID 0000.0001)     ;
(PID.TID 0000.0001) deltaTFreeSurf = /* FreeSurface equation timestep ( s ) */
(PID.TID 0000.0001)                 1.800000000000000E+03
(PID.TID 0000.0001)     ;
(PID.TID 0000.0001) dTtracerLev =  /* Tracer equation timestep ( s ) */
(PID.TID 0000.0001)    25 @  1.800000000000000E+03              /* K =  1: 25 */
(PID.TID 0000.0001)     ;
(PID.TID 0000.0001) deltaTClock  =   /* Model clock timestep ( s ) */
(PID.TID 0000.0001)                 1.800000000000000E+03
(PID.TID 0000.0001)     ;
(PID.TID 0000.0001) cAdjFreq =   /* Convective adjustment interval ( s ) */
(PID.TID 0000.0001)                 0.000000000000000E+00
(PID.TID 0000.0001)     ;
(PID.TID 0000.0001) momForcingOutAB = /* =1: take Momentum Forcing out of Adams-Bash. stepping */
(PID.TID 0000.0001)                       0
(PID.TID 0000.0001)     ;
(PID.TID 0000.0001) tracForcingOutAB = /* =1: take T,S,pTr Forcing out of Adams-Bash. stepping */
(PID.TID 0000.0001)                       0
(PID.TID 0000.0001)     ;
(PID.TID 0000.0001) momDissip_In_AB = /* put Dissipation Tendency in Adams-Bash. stepping */
(PID.TID 0000.0001)                   F
(PID.TID 0000.0001)     ;
(PID.TID 0000.0001) doAB_onGtGs = /* apply AB on Tendencies (rather than on T,S)*/
(PID.TID 0000.0001)                   T
(PID.TID 0000.0001)     ;
(PID.TID 0000.0001) abEps =   /* Adams-Bashforth-2 stabilizing weight */
(PID.TID 0000.0001)                 1.000000000000000E-01
(PID.TID 0000.0001)     ;
(PID.TID 0000.0001) applyExchUV_early = /* Apply EXCH to U,V earlier in time-step */
(PID.TID 0000.0001)                   F
(PID.TID 0000.0001)     ;
(PID.TID 0000.0001) pickupStrictlyMatch= /* stop if pickup do not strictly match */
(PID.TID 0000.0001)                   T
(PID.TID 0000.0001)     ;
(PID.TID 0000.0001) nIter0   =   /* Run starting timestep number */
(PID.TID 0000.0001)                       0
(PID.TID 0000.0001)     ;
(PID.TID 0000.0001) nTimeSteps = /* Number of timesteps */
(PID.TID 0000.0001)                      20
(PID.TID 0000.0001)     ;
(PID.TID 0000.0001) nEndIter =   /* Run ending timestep number */
(PID.TID 0000.0001)                      20
(PID.TID 0000.0001)     ;
(PID.TID 0000.0001) baseTime =   /* Model base time ( s ) */
(PID.TID 0000.0001)                 0.000000000000000E+00
(PID.TID 0000.0001)     ;
(PID.TID 0000.0001) startTime =  /* Run start time ( s ) */
(PID.TID 0000.0001)                 0.000000000000000E+00
(PID.TID 0000.0001)     ;
(PID.TID 0000.0001) endTime  =   /* Integration ending time ( s ) */
(PID.TID 0000.0001)                 3.600000000000000E+04
(PID.TID 0000.0001)     ;
(PID.TID 0000.0001) pChkPtFreq = /* Permanent restart/pickup file interval ( s ) */
(PID.TID 0000.0001)                 0.000000000000000E+00
(PID.TID 0000.0001)     ;
(PID.TID 0000.0001) chkPtFreq  = /* Rolling restart/pickup file interval ( s ) */
(PID.TID 0000.0001)                 0.000000000000000E+00
(PID.TID 0000.0001)     ;
(PID.TID 0000.0001) pickup_write_mdsio =   /* Model IO flag. */
(PID.TID 0000.0001)                   T
(PID.TID 0000.0001)     ;
(PID.TID 0000.0001) pickup_read_mdsio =   /* Model IO flag. */
(PID.TID 0000.0001)                   T
(PID.TID 0000.0001)     ;
(PID.TID 0000.0001) writePickupAtEnd =   /* Model IO flag. */
(PID.TID 0000.0001)                   T
(PID.TID 0000.0001)     ;
(PID.TID 0000.0001) dumpFreq =   /* Model state write out interval ( s ). */
(PID.TID 0000.0001)                 8.640000000000000E+05
(PID.TID 0000.0001)     ;
(PID.TID 0000.0001) dumpInitAndLast= /* write out Initial & Last iter. model state */
(PID.TID 0000.0001)                   T
(PID.TID 0000.0001)     ;
(PID.TID 0000.0001) snapshot_mdsio =   /* Model IO flag. */
(PID.TID 0000.0001)                   T
(PID.TID 0000.0001)     ;
(PID.TID 0000.0001) monitorFreq =   /* Monitor output interval ( s ). */
(PID.TID 0000.0001)                 1.000000000000000E+00
(PID.TID 0000.0001)     ;
(PID.TID 0000.0001) monitorSelect = /* select group of variables to monitor */
(PID.TID 0000.0001)                       1
(PID.TID 0000.0001)     ;
(PID.TID 0000.0001) monitor_stdio =   /* Model IO flag. */
(PID.TID 0000.0001)                   T
(PID.TID 0000.0001)     ;
(PID.TID 0000.0001) externForcingPeriod =   /* forcing period (s) */
(PID.TID 0000.0001)                 0.000000000000000E+00
(PID.TID 0000.0001)     ;
(PID.TID 0000.0001) externForcingCycle =   /* period of the cyle (s). */
(PID.TID 0000.0001)                 0.000000000000000E+00
(PID.TID 0000.0001)     ;
(PID.TID 0000.0001) tauThetaClimRelax =   /* relaxation time scale (s) */
(PID.TID 0000.0001)                 0.000000000000000E+00
(PID.TID 0000.0001)     ;
(PID.TID 0000.0001) tauSaltClimRelax =   /* relaxation time scale (s) */
(PID.TID 0000.0001)                 0.000000000000000E+00
(PID.TID 0000.0001)     ;
(PID.TID 0000.0001) latBandClimRelax =   /* max. Lat. where relaxation */
(PID.TID 0000.0001)                 9.636774464936643E+05
(PID.TID 0000.0001)     ;
(PID.TID 0000.0001) //
(PID.TID 0000.0001) // Gridding paramters ( PARM04 in namelist )
(PID.TID 0000.0001) //
(PID.TID 0000.0001) usingCartesianGrid = /* Cartesian coordinates flag ( True/False ) */
(PID.TID 0000.0001)                   T
(PID.TID 0000.0001)     ;
(PID.TID 0000.0001) usingCylindricalGrid = /* Cylindrical coordinates flag ( True/False ) */
(PID.TID 0000.0001)                   F
(PID.TID 0000.0001)     ;
(PID.TID 0000.0001) usingSphericalPolarGrid = /* Spherical coordinates flag ( True/False ) */
(PID.TID 0000.0001)                   F
(PID.TID 0000.0001)     ;
(PID.TID 0000.0001) usingCurvilinearGrid = /* Curvilinear coordinates flag ( True/False ) */
(PID.TID 0000.0001)                   F
(PID.TID 0000.0001)     ;
(PID.TID 0000.0001) useMin4hFacEdges = /* set hFacW,S as minimum of adjacent hFacC factor */
(PID.TID 0000.0001)                   F
(PID.TID 0000.0001)     ;
(PID.TID 0000.0001) interViscAr_pCell = /* account for partial-cell in interior vert. viscosity */
(PID.TID 0000.0001)                   F
(PID.TID 0000.0001)     ;
(PID.TID 0000.0001) interDiffKr_pCell = /* account for partial-cell in interior vert. diffusion */
(PID.TID 0000.0001)                   F
(PID.TID 0000.0001)     ;
(PID.TID 0000.0001) pCellMix_select = /* option to enhance mixing near surface & bottom */
(PID.TID 0000.0001)                       0
(PID.TID 0000.0001)     ;
(PID.TID 0000.0001) selectSigmaCoord = /* Hybrid-Sigma Vert. Coordinate option */
(PID.TID 0000.0001)                       0
(PID.TID 0000.0001)     ;
(PID.TID 0000.0001) rSigmaBnd = /* r/sigma transition ( units of r == Pa ) */
(PID.TID 0000.0001)                 1.234567000000000E+05
(PID.TID 0000.0001)     ;
(PID.TID 0000.0001) rkSign =   /* index orientation relative to vertical coordinate */
(PID.TID 0000.0001)                -1.000000000000000E+00
(PID.TID 0000.0001)     ;
(PID.TID 0000.0001) gravitySign = /* gravity orientation relative to vertical coordinate */
(PID.TID 0000.0001)                 1.000000000000000E+00
(PID.TID 0000.0001)     ;
(PID.TID 0000.0001) seaLev_Z =  /* reference height of sea-level [m] */
(PID.TID 0000.0001)                 0.000000000000000E+00
(PID.TID 0000.0001)     ;
(PID.TID 0000.0001) top_Pres =  /* pressure at the top (r-axis origin) [Pa] */
(PID.TID 0000.0001)                 0.000000000000000E+00
(PID.TID 0000.0001)     ;
(PID.TID 0000.0001) mass2rUnit = /* convert mass per unit area [kg/m2] to r-units [Pa] */
(PID.TID 0000.0001)                 1.000000000000000E+01
(PID.TID 0000.0001)     ;
(PID.TID 0000.0001) rUnit2mass = /* convert r-units [Pa] to mass per unit area [kg/m2] */
(PID.TID 0000.0001)                 1.000000000000000E-01
(PID.TID 0000.0001)     ;
(PID.TID 0000.0001) drC =   /* C spacing ( units of r ) */
(PID.TID 0000.0001)    10 @  4.000000000000000E+06,             /* K =  1: 10 */
(PID.TID 0000.0001)                 4.800000000000000E+06,      /* K = 11 */
(PID.TID 0000.0001)                 4.400000000000000E+06,      /* K = 12 */
(PID.TID 0000.0001)                 3.600000000000000E+06,      /* K = 13 */
(PID.TID 0000.0001)                 2.900000000000000E+06,      /* K = 14 */
(PID.TID 0000.0001)                 2.300000000000000E+06,      /* K = 15 */
(PID.TID 0000.0001)                 1.775000000000000E+06,      /* K = 16 */
(PID.TID 0000.0001)                 1.375000000000000E+06,      /* K = 17 */
(PID.TID 0000.0001)                 1.075000000000000E+06,      /* K = 18 */
(PID.TID 0000.0001)                 8.750000000000000E+05,      /* K = 19 */
(PID.TID 0000.0001)                 7.500000000000000E+05,      /* K = 20 */
(PID.TID 0000.0001)                 6.750000000000000E+05,      /* K = 21 */
(PID.TID 0000.0001)                 6.250000000000000E+05,      /* K = 22 */
(PID.TID 0000.0001)                 5.750000000000000E+05,      /* K = 23 */
(PID.TID 0000.0001)                 5.250000000000000E+05,      /* K = 24 */
(PID.TID 0000.0001)                 5.000000000000000E+05,      /* K = 25 */
(PID.TID 0000.0001)                 2.500000000000000E+05       /* K = 26 */
(PID.TID 0000.0001)     ;
(PID.TID 0000.0001) drF =   /* W spacing ( units of r ) */
(PID.TID 0000.0001)                 6.000000000000000E+06,      /* K =  1 */
(PID.TID 0000.0001)     8 @  4.000000000000000E+06,             /* K =  2:  9 */
(PID.TID 0000.0001)                 4.400000000000000E+06,      /* K = 10 */
(PID.TID 0000.0001)                 4.600000000000000E+06,      /* K = 11 */
(PID.TID 0000.0001)                 4.000000000000000E+06,      /* K = 12 */
(PID.TID 0000.0001)                 3.250000000000000E+06,      /* K = 13 */
(PID.TID 0000.0001)                 2.600000000000000E+06,      /* K = 14 */
(PID.TID 0000.0001)                 2.037500000000000E+06,      /* K = 15 */
(PID.TID 0000.0001)                 1.575000000000000E+06,      /* K = 16 */
(PID.TID 0000.0001)                 1.225000000000000E+06,      /* K = 17 */
(PID.TID 0000.0001)                 9.750000000000000E+05,      /* K = 18 */
(PID.TID 0000.0001)                 8.125000000000000E+05,      /* K = 19 */
(PID.TID 0000.0001)                 7.125000000000000E+05,      /* K = 20 */
(PID.TID 0000.0001)                 6.500000000000000E+05,      /* K = 21 */
(PID.TID 0000.0001)                 6.000000000000000E+05,      /* K = 22 */
(PID.TID 0000.0001)                 5.500000000000000E+05,      /* K = 23 */
(PID.TID 0000.0001)                 5.125000000000000E+05,      /* K = 24 */
(PID.TID 0000.0001)                 5.000000000000000E+05       /* K = 25 */
(PID.TID 0000.0001)     ;
(PID.TID 0000.0001) delX = /* U spacing ( m - cartesian, degrees - spherical ) */
(PID.TID 0000.0001)                 1.000000000000000E+04       /* I =  1 */
(PID.TID 0000.0001)     ;
(PID.TID 0000.0001) delY = /* V spacing ( m - cartesian, degrees - spherical ) */
(PID.TID 0000.0001)                 1.121845490233872E+04,      /* J =  1 */
(PID.TID 0000.0001)                 1.120417408127598E+04,      /* J =  2 */
(PID.TID 0000.0001)                 1.117790763965009E+04,      /* J =  3 */
(PID.TID 0000.0001)                 1.113214211541110E+04,      /* J =  4 */
(PID.TID 0000.0001)                 1.105667354210767E+04,      /* J =  5 */
(PID.TID 0000.0001)                 1.093902768829823E+04,      /* J =  6 */
(PID.TID 0000.0001)                 1.076592279809904E+04,      /* J =  7 */
(PID.TID 0000.0001)                 1.052599385487605E+04,      /* J =  8 */
(PID.TID 0000.0001)                 1.021361421186628E+04,      /* J =  9 */
(PID.TID 0000.0001)                 9.833098593630379E+03,      /* J = 10 */
(PID.TID 0000.0001)                 9.402036775610259E+03,      /* J = 11 */
(PID.TID 0000.0001)                 8.952270066930356E+03,      /* J = 12 */
(PID.TID 0000.0001)                 8.527336484962452E+03,      /* J = 13 */
(PID.TID 0000.0001)                 8.176138828117387E+03,      /* J = 14 */
(PID.TID 0000.0001)                 7.943896227202051E+03,      /* J = 15 */
(PID.TID 0000.0001)                 7.862624379247893E+03,      /* J = 16 */
(PID.TID 0000.0001)                 7.943896227202051E+03,      /* J = 17 */
(PID.TID 0000.0001)                 8.176138828117387E+03,      /* J = 18 */
(PID.TID 0000.0001)                 8.527336484962452E+03,      /* J = 19 */
(PID.TID 0000.0001)                 8.952270066930356E+03,      /* J = 20 */
(PID.TID 0000.0001)                 9.402036775610259E+03,      /* J = 21 */
(PID.TID 0000.0001)                 9.833098593630379E+03,      /* J = 22 */
(PID.TID 0000.0001)                 1.021361421186628E+04,      /* J = 23 */
(PID.TID 0000.0001)                 1.052599385487605E+04,      /* J = 24 */
(PID.TID 0000.0001)                 1.076592279809904E+04,      /* J = 25 */
(PID.TID 0000.0001)                 1.093902768829823E+04,      /* J = 26 */
(PID.TID 0000.0001)                 1.105667354210767E+04,      /* J = 27 */
(PID.TID 0000.0001)                 1.113214211541110E+04,      /* J = 28 */
(PID.TID 0000.0001)                 1.117790763965009E+04,      /* J = 29 */
(PID.TID 0000.0001)                 1.120417408127598E+04,      /* J = 30 */
(PID.TID 0000.0001)                 1.121845490233872E+04,      /* J = 31 */
(PID.TID 0000.0001)                 1.122581549788791E+04       /* J = 32 */
(PID.TID 0000.0001)     ;
(PID.TID 0000.0001) xgOrigin = /* X-axis origin of West  edge (cartesian: m, lat-lon: deg) */
(PID.TID 0000.0001)                 0.000000000000000E+00
(PID.TID 0000.0001)     ;
(PID.TID 0000.0001) ygOrigin = /* Y-axis origin of South edge (cartesian: m, lat-lon: deg) */
(PID.TID 0000.0001)                 0.000000000000000E+00
(PID.TID 0000.0001)     ;
(PID.TID 0000.0001) rSphere =  /* Radius ( ignored - cartesian, m - spherical ) */
(PID.TID 0000.0001)                 6.370000000000000E+06
(PID.TID 0000.0001)     ;
(PID.TID 0000.0001) deepAtmosphere = /* Deep/Shallow Atmosphere flag (True/False) */
(PID.TID 0000.0001)                   F
(PID.TID 0000.0001)     ;
(PID.TID 0000.0001) xC =  /* xC(:,1,:,1) : P-point X coord ( deg. or m if cartesian) */
(PID.TID 0000.0001)                 5.000000000000000E+03       /* I =  1 */
(PID.TID 0000.0001)     ;
(PID.TID 0000.0001) yC =  /* yC(1,:,1,:) : P-point Y coord ( deg. or m if cartesian) */
(PID.TID 0000.0001)                 5.609227451169357E+03,      /* J =  1 */
(PID.TID 0000.0001)                 1.682054194297670E+04,      /* J =  2 */
(PID.TID 0000.0001)                 2.801158280343973E+04,      /* J =  3 */
(PID.TID 0000.0001)                 3.916660768097033E+04,      /* J =  4 */
(PID.TID 0000.0001)                 5.026101550972972E+04,      /* J =  5 */
(PID.TID 0000.0001)                 6.125886612493267E+04,      /* J =  6 */
(PID.TID 0000.0001)                 7.211134136813131E+04,      /* J =  7 */
(PID.TID 0000.0001)                 8.275729969461885E+04,      /* J =  8 */
(PID.TID 0000.0001)                 9.312710372799002E+04,      /* J =  9 */
(PID.TID 0000.0001)                 1.031504601307384E+05,      /* J = 10 */
(PID.TID 0000.0001)                 1.127680278153587E+05,      /* J = 11 */
(PID.TID 0000.0001)                 1.219451812366290E+05,      /* J = 12 */
(PID.TID 0000.0001)                 1.306849845125754E+05,      /* J = 13 */
(PID.TID 0000.0001)                 1.390367221691153E+05,      /* J = 14 */
(PID.TID 0000.0001)                 1.470967396967750E+05,      /* J = 15 */
(PID.TID 0000.0001)                 1.550000000000000E+05,      /* J = 16 */
(PID.TID 0000.0001)                 1.629032603032250E+05,      /* J = 17 */
(PID.TID 0000.0001)                 1.709632778308847E+05,      /* J = 18 */
(PID.TID 0000.0001)                 1.793150154874247E+05,      /* J = 19 */
(PID.TID 0000.0001)                 1.880548187633711E+05,      /* J = 20 */
(PID.TID 0000.0001)                 1.972319721846414E+05,      /* J = 21 */
(PID.TID 0000.0001)                 2.068495398692617E+05,      /* J = 22 */
(PID.TID 0000.0001)                 2.168728962720101E+05,      /* J = 23 */
(PID.TID 0000.0001)                 2.272427003053812E+05,      /* J = 24 */
(PID.TID 0000.0001)                 2.378886586318688E+05,      /* J = 25 */
(PID.TID 0000.0001)                 2.487411338750674E+05,      /* J = 26 */
(PID.TID 0000.0001)                 2.597389844902704E+05,      /* J = 27 */
(PID.TID 0000.0001)                 2.708333923190298E+05,      /* J = 28 */
(PID.TID 0000.0001)                 2.819884171965604E+05,      /* J = 29 */
(PID.TID 0000.0001)                 2.931794580570235E+05,      /* J = 30 */
(PID.TID 0000.0001)                 3.043907725488308E+05,      /* J = 31 */
(PID.TID 0000.0001)                 3.156129077489441E+05       /* J = 32 */
(PID.TID 0000.0001)     ;
(PID.TID 0000.0001) rcoord = /* P-point R coordinate (  units of r ) */
(PID.TID 0000.0001)                 6.300000000000000E+07,      /* K =  1 */
(PID.TID 0000.0001)                 5.900000000000000E+07,      /* K =  2 */
(PID.TID 0000.0001)                 5.500000000000000E+07,      /* K =  3 */
(PID.TID 0000.0001)                 5.100000000000000E+07,      /* K =  4 */
(PID.TID 0000.0001)                 4.700000000000000E+07,      /* K =  5 */
(PID.TID 0000.0001)                 4.300000000000000E+07,      /* K =  6 */
(PID.TID 0000.0001)                 3.900000000000000E+07,      /* K =  7 */
(PID.TID 0000.0001)                 3.500000000000000E+07,      /* K =  8 */
(PID.TID 0000.0001)                 3.100000000000000E+07,      /* K =  9 */
(PID.TID 0000.0001)                 2.700000000000000E+07,      /* K = 10 */
(PID.TID 0000.0001)                 2.220000000000000E+07,      /* K = 11 */
(PID.TID 0000.0001)                 1.780000000000000E+07,      /* K = 12 */
(PID.TID 0000.0001)                 1.420000000000000E+07,      /* K = 13 */
(PID.TID 0000.0001)                 1.130000000000000E+07,      /* K = 14 */
(PID.TID 0000.0001)                 9.000000000000000E+06,      /* K = 15 */
(PID.TID 0000.0001)                 7.225000000000000E+06,      /* K = 16 */
(PID.TID 0000.0001)                 5.850000000000000E+06,      /* K = 17 */
(PID.TID 0000.0001)                 4.775000000000000E+06,      /* K = 18 */
(PID.TID 0000.0001)                 3.900000000000000E+06,      /* K = 19 */
(PID.TID 0000.0001)                 3.150000000000000E+06,      /* K = 20 */
(PID.TID 0000.0001)                 2.475000000000000E+06,      /* K = 21 */
(PID.TID 0000.0001)                 1.850000000000000E+06,      /* K = 22 */
(PID.TID 0000.0001)                 1.275000000000000E+06,      /* K = 23 */
(PID.TID 0000.0001)                 7.500000000000000E+05,      /* K = 24 */
(PID.TID 0000.0001)                 2.500000000000000E+05       /* K = 25 */
(PID.TID 0000.0001)     ;
(PID.TID 0000.0001) rF =   /* W-Interf. R coordinate (  units of r ) */
(PID.TID 0000.0001)                 6.700000000000000E+07,      /* K =  1 */
(PID.TID 0000.0001)                 6.100000000000000E+07,      /* K =  2 */
(PID.TID 0000.0001)                 5.700000000000000E+07,      /* K =  3 */
(PID.TID 0000.0001)                 5.300000000000000E+07,      /* K =  4 */
(PID.TID 0000.0001)                 4.900000000000000E+07,      /* K =  5 */
(PID.TID 0000.0001)                 4.500000000000000E+07,      /* K =  6 */
(PID.TID 0000.0001)                 4.100000000000000E+07,      /* K =  7 */
(PID.TID 0000.0001)                 3.700000000000000E+07,      /* K =  8 */
(PID.TID 0000.0001)                 3.300000000000000E+07,      /* K =  9 */
(PID.TID 0000.0001)                 2.900000000000000E+07,      /* K = 10 */
(PID.TID 0000.0001)                 2.460000000000000E+07,      /* K = 11 */
(PID.TID 0000.0001)                 2.000000000000000E+07,      /* K = 12 */
(PID.TID 0000.0001)                 1.600000000000000E+07,      /* K = 13 */
(PID.TID 0000.0001)                 1.275000000000000E+07,      /* K = 14 */
(PID.TID 0000.0001)                 1.015000000000000E+07,      /* K = 15 */
(PID.TID 0000.0001)                 8.112500000000000E+06,      /* K = 16 */
(PID.TID 0000.0001)                 6.537500000000000E+06,      /* K = 17 */
(PID.TID 0000.0001)                 5.312500000000000E+06,      /* K = 18 */
(PID.TID 0000.0001)                 4.337500000000000E+06,      /* K = 19 */
(PID.TID 0000.0001)                 3.525000000000000E+06,      /* K = 20 */
(PID.TID 0000.0001)                 2.812500000000000E+06,      /* K = 21 */
(PID.TID 0000.0001)                 2.162500000000000E+06,      /* K = 22 */
(PID.TID 0000.0001)                 1.562500000000000E+06,      /* K = 23 */
(PID.TID 0000.0001)                 1.012500000000000E+06,      /* K = 24 */
(PID.TID 0000.0001)                 5.000000000000000E+05,      /* K = 25 */
(PID.TID 0000.0001)                 0.000000000000000E+00       /* K = 26 */
(PID.TID 0000.0001)     ;
(PID.TID 0000.0001) deepFacC = /* deep-model grid factor @ cell-Center (-) */
(PID.TID 0000.0001)    25 @  1.000000000000000E+00              /* K =  1: 25 */
(PID.TID 0000.0001)     ;
(PID.TID 0000.0001) deepFacF = /* deep-model grid factor @ W-Interface (-) */
(PID.TID 0000.0001)    26 @  1.000000000000000E+00              /* K =  1: 26 */
(PID.TID 0000.0001)     ;
(PID.TID 0000.0001) rVel2wUnit = /* convert units: rVel [Pa/s] -> wSpeed [m/s] */
(PID.TID 0000.0001)    26 @  1.000000000000000E-04              /* K =  1: 26 */
(PID.TID 0000.0001)     ;
(PID.TID 0000.0001) wUnit2rVel = /* convert units: wSpeed [m/s] -> rVel [Pa/s] */
(PID.TID 0000.0001)    26 @  1.000000000000000E+04              /* K =  1: 26 */
(PID.TID 0000.0001)     ;
(PID.TID 0000.0001) rUnit2z = /* convert units (@ center): dr [Pa] -> dz [m] */
(PID.TID 0000.0001)    25 @  1.000000000000000E-04              /* K =  1: 25 */
(PID.TID 0000.0001)     ;
(PID.TID 0000.0001) z2rUnit = /* convert units (@ center): dz [m] -> dr [Pa] */
(PID.TID 0000.0001)    25 @  1.000000000000000E+04              /* K =  1: 25 */
(PID.TID 0000.0001)     ;
(PID.TID 0000.0001) rotateGrid = /* use rotated grid ( True/False ) */
(PID.TID 0000.0001)                   F
(PID.TID 0000.0001)     ;
(PID.TID 0000.0001) phiEuler = /* Euler angle, rotation about original z-coordinate [rad] */
(PID.TID 0000.0001)                 0.000000000000000E+00
(PID.TID 0000.0001)     ;
(PID.TID 0000.0001) thetaEuler = /* Euler angle, rotation about new x-coordinate [rad] */
(PID.TID 0000.0001)                 0.000000000000000E+00
(PID.TID 0000.0001)     ;
(PID.TID 0000.0001) psiEuler = /* Euler angle, rotation about new z-coordinate [rad] */
(PID.TID 0000.0001)                 0.000000000000000E+00
(PID.TID 0000.0001)     ;
(PID.TID 0000.0001) dxF =  /* dxF(:,1,:,1) ( units: m ) */
(PID.TID 0000.0001)                 1.000000000000000E+04       /* I =  1 */
(PID.TID 0000.0001)     ;
(PID.TID 0000.0001) dxF =  /* dxF(1,:,1,:) ( units: m ) */
(PID.TID 0000.0001)    32 @  1.000000000000000E+04              /* J =  1: 32 */
(PID.TID 0000.0001)     ;
(PID.TID 0000.0001) dyF =  /* dyF(:,1,:,1) ( units: m ) */
(PID.TID 0000.0001)                 1.121845490233872E+04       /* I =  1 */
(PID.TID 0000.0001)     ;
(PID.TID 0000.0001) dyF =  /* dyF(1,:,1,:) ( units: m ) */
(PID.TID 0000.0001)                 1.121845490233872E+04,      /* J =  1 */
(PID.TID 0000.0001)                 1.120417408127598E+04,      /* J =  2 */
(PID.TID 0000.0001)                 1.117790763965009E+04,      /* J =  3 */
(PID.TID 0000.0001)                 1.113214211541110E+04,      /* J =  4 */
(PID.TID 0000.0001)                 1.105667354210767E+04,      /* J =  5 */
(PID.TID 0000.0001)                 1.093902768829823E+04,      /* J =  6 */
(PID.TID 0000.0001)                 1.076592279809904E+04,      /* J =  7 */
(PID.TID 0000.0001)                 1.052599385487605E+04,      /* J =  8 */
(PID.TID 0000.0001)                 1.021361421186628E+04,      /* J =  9 */
(PID.TID 0000.0001)                 9.833098593630379E+03,      /* J = 10 */
(PID.TID 0000.0001)                 9.402036775610259E+03,      /* J = 11 */
(PID.TID 0000.0001)                 8.952270066930356E+03,      /* J = 12 */
(PID.TID 0000.0001)                 8.527336484962452E+03,      /* J = 13 */
(PID.TID 0000.0001)                 8.176138828117387E+03,      /* J = 14 */
(PID.TID 0000.0001)                 7.943896227202051E+03,      /* J = 15 */
(PID.TID 0000.0001)                 7.862624379247893E+03,      /* J = 16 */
(PID.TID 0000.0001)                 7.943896227202051E+03,      /* J = 17 */
(PID.TID 0000.0001)                 8.176138828117387E+03,      /* J = 18 */
(PID.TID 0000.0001)                 8.527336484962452E+03,      /* J = 19 */
(PID.TID 0000.0001)                 8.952270066930356E+03,      /* J = 20 */
(PID.TID 0000.0001)                 9.402036775610259E+03,      /* J = 21 */
(PID.TID 0000.0001)                 9.833098593630379E+03,      /* J = 22 */
(PID.TID 0000.0001)                 1.021361421186628E+04,      /* J = 23 */
(PID.TID 0000.0001)                 1.052599385487605E+04,      /* J = 24 */
(PID.TID 0000.0001)                 1.076592279809904E+04,      /* J = 25 */
(PID.TID 0000.0001)                 1.093902768829823E+04,      /* J = 26 */
(PID.TID 0000.0001)                 1.105667354210767E+04,      /* J = 27 */
(PID.TID 0000.0001)                 1.113214211541110E+04,      /* J = 28 */
(PID.TID 0000.0001)                 1.117790763965009E+04,      /* J = 29 */
(PID.TID 0000.0001)                 1.120417408127598E+04,      /* J = 30 */
(PID.TID 0000.0001)                 1.121845490233872E+04,      /* J = 31 */
(PID.TID 0000.0001)                 1.122581549788791E+04       /* J = 32 */
(PID.TID 0000.0001)     ;
(PID.TID 0000.0001) dxG =  /* dxG(:,1,:,1) ( units: m ) */
(PID.TID 0000.0001)                 1.000000000000000E+04       /* I =  1 */
(PID.TID 0000.0001)     ;
(PID.TID 0000.0001) dxG =  /* dxG(1,:,1,:) ( units: m ) */
(PID.TID 0000.0001)    32 @  1.000000000000000E+04              /* J =  1: 32 */
(PID.TID 0000.0001)     ;
(PID.TID 0000.0001) dyG =  /* dyG(:,1,:,1) ( units: m ) */
(PID.TID 0000.0001)                 1.121845490233872E+04       /* I =  1 */
(PID.TID 0000.0001)     ;
(PID.TID 0000.0001) dyG =  /* dyG(1,:,1,:) ( units: m ) */
(PID.TID 0000.0001)                 1.121845490233872E+04,      /* J =  1 */
(PID.TID 0000.0001)                 1.120417408127598E+04,      /* J =  2 */
(PID.TID 0000.0001)                 1.117790763965009E+04,      /* J =  3 */
(PID.TID 0000.0001)                 1.113214211541110E+04,      /* J =  4 */
(PID.TID 0000.0001)                 1.105667354210767E+04,      /* J =  5 */
(PID.TID 0000.0001)                 1.093902768829823E+04,      /* J =  6 */
(PID.TID 0000.0001)                 1.076592279809904E+04,      /* J =  7 */
(PID.TID 0000.0001)                 1.052599385487605E+04,      /* J =  8 */
(PID.TID 0000.0001)                 1.021361421186628E+04,      /* J =  9 */
(PID.TID 0000.0001)                 9.833098593630379E+03,      /* J = 10 */
(PID.TID 0000.0001)                 9.402036775610259E+03,      /* J = 11 */
(PID.TID 0000.0001)                 8.952270066930356E+03,      /* J = 12 */
(PID.TID 0000.0001)                 8.527336484962452E+03,      /* J = 13 */
(PID.TID 0000.0001)                 8.176138828117387E+03,      /* J = 14 */
(PID.TID 0000.0001)                 7.943896227202051E+03,      /* J = 15 */
(PID.TID 0000.0001)                 7.862624379247893E+03,      /* J = 16 */
(PID.TID 0000.0001)                 7.943896227202051E+03,      /* J = 17 */
(PID.TID 0000.0001)                 8.176138828117387E+03,      /* J = 18 */
(PID.TID 0000.0001)                 8.527336484962452E+03,      /* J = 19 */
(PID.TID 0000.0001)                 8.952270066930356E+03,      /* J = 20 */
(PID.TID 0000.0001)                 9.402036775610259E+03,      /* J = 21 */
(PID.TID 0000.0001)                 9.833098593630379E+03,      /* J = 22 */
(PID.TID 0000.0001)                 1.021361421186628E+04,      /* J = 23 */
(PID.TID 0000.0001)                 1.052599385487605E+04,      /* J = 24 */
(PID.TID 0000.0001)                 1.076592279809904E+04,      /* J = 25 */
(PID.TID 0000.0001)                 1.093902768829823E+04,      /* J = 26 */
(PID.TID 0000.0001)                 1.105667354210767E+04,      /* J = 27 */
(PID.TID 0000.0001)                 1.113214211541110E+04,      /* J = 28 */
(PID.TID 0000.0001)                 1.117790763965009E+04,      /* J = 29 */
(PID.TID 0000.0001)                 1.120417408127598E+04,      /* J = 30 */
(PID.TID 0000.0001)                 1.121845490233872E+04,      /* J = 31 */
(PID.TID 0000.0001)                 1.122581549788791E+04       /* J = 32 */
(PID.TID 0000.0001)     ;
(PID.TID 0000.0001) dxC =  /* dxC(:,1,:,1) ( units: m ) */
(PID.TID 0000.0001)                 1.000000000000000E+04       /* I =  1 */
(PID.TID 0000.0001)     ;
(PID.TID 0000.0001) dxC =  /* dxC(1,:,1,:) ( units: m ) */
(PID.TID 0000.0001)    32 @  1.000000000000000E+04              /* J =  1: 32 */
(PID.TID 0000.0001)     ;
(PID.TID 0000.0001) dyC =  /* dyC(:,1,:,1) ( units: m ) */
(PID.TID 0000.0001)                 1.122213520011331E+04       /* I =  1 */
(PID.TID 0000.0001)     ;
(PID.TID 0000.0001) dyC =  /* dyC(1,:,1,:) ( units: m ) */
(PID.TID 0000.0001)                 1.122213520011331E+04,      /* J =  1 */
(PID.TID 0000.0001)                 1.121131449180735E+04,      /* J =  2 */
(PID.TID 0000.0001)                 1.119104086046303E+04,      /* J =  3 */
(PID.TID 0000.0001)                 1.115502487753059E+04,      /* J =  4 */
(PID.TID 0000.0001)                 1.109440782875938E+04,      /* J =  5 */
(PID.TID 0000.0001)                 1.099785061520295E+04,      /* J =  6 */
(PID.TID 0000.0001)                 1.085247524319864E+04,      /* J =  7 */
(PID.TID 0000.0001)                 1.064595832648755E+04,      /* J =  8 */
(PID.TID 0000.0001)                 1.036980403337117E+04,      /* J =  9 */
(PID.TID 0000.0001)                 1.002335640274833E+04,      /* J = 10 */
(PID.TID 0000.0001)                 9.617567684620319E+03,      /* J = 11 */
(PID.TID 0000.0001)                 9.177153421270308E+03,      /* J = 12 */
(PID.TID 0000.0001)                 8.739803275946404E+03,      /* J = 13 */
(PID.TID 0000.0001)                 8.351737656539919E+03,      /* J = 14 */
(PID.TID 0000.0001)                 8.060017527659718E+03,      /* J = 15 */
(PID.TID 0000.0001)     2 @  7.903260303224972E+03,             /* J = 16: 17 */
(PID.TID 0000.0001)                 8.060017527659718E+03,      /* J = 18 */
(PID.TID 0000.0001)                 8.351737656539919E+03,      /* J = 19 */
(PID.TID 0000.0001)                 8.739803275946404E+03,      /* J = 20 */
(PID.TID 0000.0001)                 9.177153421270308E+03,      /* J = 21 */
(PID.TID 0000.0001)                 9.617567684620319E+03,      /* J = 22 */
(PID.TID 0000.0001)                 1.002335640274833E+04,      /* J = 23 */
(PID.TID 0000.0001)                 1.036980403337117E+04,      /* J = 24 */
(PID.TID 0000.0001)                 1.064595832648755E+04,      /* J = 25 */
(PID.TID 0000.0001)                 1.085247524319864E+04,      /* J = 26 */
(PID.TID 0000.0001)                 1.099785061520295E+04,      /* J = 27 */
(PID.TID 0000.0001)                 1.109440782875938E+04,      /* J = 28 */
(PID.TID 0000.0001)                 1.115502487753059E+04,      /* J = 29 */
(PID.TID 0000.0001)                 1.119104086046303E+04,      /* J = 30 */
(PID.TID 0000.0001)                 1.121131449180735E+04,      /* J = 31 */
(PID.TID 0000.0001)                 1.122213520011331E+04       /* J = 32 */
(PID.TID 0000.0001)     ;
(PID.TID 0000.0001) dxV =  /* dxV(:,1,:,1) ( units: m ) */
(PID.TID 0000.0001)                 1.000000000000000E+04       /* I =  1 */
(PID.TID 0000.0001)     ;
(PID.TID 0000.0001) dxV =  /* dxV(1,:,1,:) ( units: m ) */
(PID.TID 0000.0001)    32 @  1.000000000000000E+04              /* J =  1: 32 */
(PID.TID 0000.0001)     ;
(PID.TID 0000.0001) dyU =  /* dyU(:,1,:,1) ( units: m ) */
(PID.TID 0000.0001)                 1.122213520011331E+04       /* I =  1 */
(PID.TID 0000.0001)     ;
(PID.TID 0000.0001) dyU =  /* dyU(1,:,1,:) ( units: m ) */
(PID.TID 0000.0001)                 1.122213520011331E+04,      /* J =  1 */
(PID.TID 0000.0001)                 1.121131449180735E+04,      /* J =  2 */
(PID.TID 0000.0001)                 1.119104086046303E+04,      /* J =  3 */
(PID.TID 0000.0001)                 1.115502487753059E+04,      /* J =  4 */
(PID.TID 0000.0001)                 1.109440782875938E+04,      /* J =  5 */
(PID.TID 0000.0001)                 1.099785061520295E+04,      /* J =  6 */
(PID.TID 0000.0001)                 1.085247524319864E+04,      /* J =  7 */
(PID.TID 0000.0001)                 1.064595832648755E+04,      /* J =  8 */
(PID.TID 0000.0001)                 1.036980403337117E+04,      /* J =  9 */
(PID.TID 0000.0001)                 1.002335640274833E+04,      /* J = 10 */
(PID.TID 0000.0001)                 9.617567684620319E+03,      /* J = 11 */
(PID.TID 0000.0001)                 9.177153421270308E+03,      /* J = 12 */
(PID.TID 0000.0001)                 8.739803275946404E+03,      /* J = 13 */
(PID.TID 0000.0001)                 8.351737656539919E+03,      /* J = 14 */
(PID.TID 0000.0001)                 8.060017527659718E+03,      /* J = 15 */
(PID.TID 0000.0001)     2 @  7.903260303224972E+03,             /* J = 16: 17 */
(PID.TID 0000.0001)                 8.060017527659718E+03,      /* J = 18 */
(PID.TID 0000.0001)                 8.351737656539919E+03,      /* J = 19 */
(PID.TID 0000.0001)                 8.739803275946404E+03,      /* J = 20 */
(PID.TID 0000.0001)                 9.177153421270308E+03,      /* J = 21 */
(PID.TID 0000.0001)                 9.617567684620319E+03,      /* J = 22 */
(PID.TID 0000.0001)                 1.002335640274833E+04,      /* J = 23 */
(PID.TID 0000.0001)                 1.036980403337117E+04,      /* J = 24 */
(PID.TID 0000.0001)                 1.064595832648755E+04,      /* J = 25 */
(PID.TID 0000.0001)                 1.085247524319864E+04,      /* J = 26 */
(PID.TID 0000.0001)                 1.099785061520295E+04,      /* J = 27 */
(PID.TID 0000.0001)                 1.109440782875938E+04,      /* J = 28 */
(PID.TID 0000.0001)                 1.115502487753059E+04,      /* J = 29 */
(PID.TID 0000.0001)                 1.119104086046303E+04,      /* J = 30 */
(PID.TID 0000.0001)                 1.121131449180735E+04,      /* J = 31 */
(PID.TID 0000.0001)                 1.122213520011331E+04       /* J = 32 */
(PID.TID 0000.0001)     ;
(PID.TID 0000.0001) rA  =  /* rA (:,1,:,1) ( units: m^2 ) */
(PID.TID 0000.0001)                 1.121845490233872E+08       /* I =  1 */
(PID.TID 0000.0001)     ;
(PID.TID 0000.0001) rA  =  /* rA (1,:,1,:) ( units: m^2 ) */
(PID.TID 0000.0001)                 1.121845490233872E+08,      /* J =  1 */
(PID.TID 0000.0001)                 1.120417408127598E+08,      /* J =  2 */
(PID.TID 0000.0001)                 1.117790763965009E+08,      /* J =  3 */
(PID.TID 0000.0001)                 1.113214211541110E+08,      /* J =  4 */
(PID.TID 0000.0001)                 1.105667354210767E+08,      /* J =  5 */
(PID.TID 0000.0001)                 1.093902768829823E+08,      /* J =  6 */
(PID.TID 0000.0001)                 1.076592279809904E+08,      /* J =  7 */
(PID.TID 0000.0001)                 1.052599385487605E+08,      /* J =  8 */
(PID.TID 0000.0001)                 1.021361421186628E+08,      /* J =  9 */
(PID.TID 0000.0001)                 9.833098593630378E+07,      /* J = 10 */
(PID.TID 0000.0001)                 9.402036775610259E+07,      /* J = 11 */
(PID.TID 0000.0001)                 8.952270066930355E+07,      /* J = 12 */
(PID.TID 0000.0001)                 8.527336484962453E+07,      /* J = 13 */
(PID.TID 0000.0001)                 8.176138828117387E+07,      /* J = 14 */
(PID.TID 0000.0001)                 7.943896227202050E+07,      /* J = 15 */
(PID.TID 0000.0001)                 7.862624379247892E+07,      /* J = 16 */
(PID.TID 0000.0001)                 7.943896227202050E+07,      /* J = 17 */
(PID.TID 0000.0001)                 8.176138828117387E+07,      /* J = 18 */
(PID.TID 0000.0001)                 8.527336484962453E+07,      /* J = 19 */
(PID.TID 0000.0001)                 8.952270066930355E+07,      /* J = 20 */
(PID.TID 0000.0001)                 9.402036775610259E+07,      /* J = 21 */
(PID.TID 0000.0001)                 9.833098593630378E+07,      /* J = 22 */
(PID.TID 0000.0001)                 1.021361421186628E+08,      /* J = 23 */
(PID.TID 0000.0001)                 1.052599385487605E+08,      /* J = 24 */
(PID.TID 0000.0001)                 1.076592279809904E+08,      /* J = 25 */
(PID.TID 0000.0001)                 1.093902768829823E+08,      /* J = 26 */
(PID.TID 0000.0001)                 1.105667354210767E+08,      /* J = 27 */
(PID.TID 0000.0001)                 1.113214211541110E+08,      /* J = 28 */
(PID.TID 0000.0001)                 1.117790763965009E+08,      /* J = 29 */
(PID.TID 0000.0001)                 1.120417408127598E+08,      /* J = 30 */
(PID.TID 0000.0001)                 1.121845490233872E+08,      /* J = 31 */
(PID.TID 0000.0001)                 1.122581549788791E+08       /* J = 32 */
(PID.TID 0000.0001)     ;
(PID.TID 0000.0001) rAw =  /* rAw(:,1,:,1) ( units: m^2 ) */
(PID.TID 0000.0001)                 1.121845490233872E+08       /* I =  1 */
(PID.TID 0000.0001)     ;
(PID.TID 0000.0001) rAw =  /* rAw(1,:,1,:) ( units: m^2 ) */
(PID.TID 0000.0001)                 1.121845490233872E+08,      /* J =  1 */
(PID.TID 0000.0001)                 1.120417408127598E+08,      /* J =  2 */
(PID.TID 0000.0001)                 1.117790763965009E+08,      /* J =  3 */
(PID.TID 0000.0001)                 1.113214211541110E+08,      /* J =  4 */
(PID.TID 0000.0001)                 1.105667354210767E+08,      /* J =  5 */
(PID.TID 0000.0001)                 1.093902768829823E+08,      /* J =  6 */
(PID.TID 0000.0001)                 1.076592279809904E+08,      /* J =  7 */
(PID.TID 0000.0001)                 1.052599385487605E+08,      /* J =  8 */
(PID.TID 0000.0001)                 1.021361421186628E+08,      /* J =  9 */
(PID.TID 0000.0001)                 9.833098593630378E+07,      /* J = 10 */
(PID.TID 0000.0001)                 9.402036775610259E+07,      /* J = 11 */
(PID.TID 0000.0001)                 8.952270066930355E+07,      /* J = 12 */
(PID.TID 0000.0001)                 8.527336484962453E+07,      /* J = 13 */
(PID.TID 0000.0001)                 8.176138828117387E+07,      /* J = 14 */
(PID.TID 0000.0001)                 7.943896227202050E+07,      /* J = 15 */
(PID.TID 0000.0001)                 7.862624379247892E+07,      /* J = 16 */
(PID.TID 0000.0001)                 7.943896227202050E+07,      /* J = 17 */
(PID.TID 0000.0001)                 8.176138828117387E+07,      /* J = 18 */
(PID.TID 0000.0001)                 8.527336484962453E+07,      /* J = 19 */
(PID.TID 0000.0001)                 8.952270066930355E+07,      /* J = 20 */
(PID.TID 0000.0001)                 9.402036775610259E+07,      /* J = 21 */
(PID.TID 0000.0001)                 9.833098593630378E+07,      /* J = 22 */
(PID.TID 0000.0001)                 1.021361421186628E+08,      /* J = 23 */
(PID.TID 0000.0001)                 1.052599385487605E+08,      /* J = 24 */
(PID.TID 0000.0001)                 1.076592279809904E+08,      /* J = 25 */
(PID.TID 0000.0001)                 1.093902768829823E+08,      /* J = 26 */
(PID.TID 0000.0001)                 1.105667354210767E+08,      /* J = 27 */
(PID.TID 0000.0001)                 1.113214211541110E+08,      /* J = 28 */
(PID.TID 0000.0001)                 1.117790763965009E+08,      /* J = 29 */
(PID.TID 0000.0001)                 1.120417408127598E+08,      /* J = 30 */
(PID.TID 0000.0001)                 1.121845490233872E+08,      /* J = 31 */
(PID.TID 0000.0001)                 1.122581549788791E+08       /* J = 32 */
(PID.TID 0000.0001)     ;
(PID.TID 0000.0001) rAs =  /* rAs(:,1,:,1) ( units: m^2 ) */
(PID.TID 0000.0001)                 1.122213520011331E+08       /* I =  1 */
(PID.TID 0000.0001)     ;
(PID.TID 0000.0001) rAs =  /* rAs(1,:,1,:) ( units: m^2 ) */
(PID.TID 0000.0001)                 1.122213520011331E+08,      /* J =  1 */
(PID.TID 0000.0001)                 1.121131449180735E+08,      /* J =  2 */
(PID.TID 0000.0001)                 1.119104086046303E+08,      /* J =  3 */
(PID.TID 0000.0001)                 1.115502487753059E+08,      /* J =  4 */
(PID.TID 0000.0001)                 1.109440782875938E+08,      /* J =  5 */
(PID.TID 0000.0001)                 1.099785061520295E+08,      /* J =  6 */
(PID.TID 0000.0001)                 1.085247524319864E+08,      /* J =  7 */
(PID.TID 0000.0001)                 1.064595832648755E+08,      /* J =  8 */
(PID.TID 0000.0001)                 1.036980403337117E+08,      /* J =  9 */
(PID.TID 0000.0001)                 1.002335640274833E+08,      /* J = 10 */
(PID.TID 0000.0001)                 9.617567684620319E+07,      /* J = 11 */
(PID.TID 0000.0001)                 9.177153421270308E+07,      /* J = 12 */
(PID.TID 0000.0001)                 8.739803275946404E+07,      /* J = 13 */
(PID.TID 0000.0001)                 8.351737656539918E+07,      /* J = 14 */
(PID.TID 0000.0001)                 8.060017527659719E+07,      /* J = 15 */
(PID.TID 0000.0001)     2 @  7.903260303224972E+07,             /* J = 16: 17 */
(PID.TID 0000.0001)                 8.060017527659719E+07,      /* J = 18 */
(PID.TID 0000.0001)                 8.351737656539918E+07,      /* J = 19 */
(PID.TID 0000.0001)                 8.739803275946404E+07,      /* J = 20 */
(PID.TID 0000.0001)                 9.177153421270308E+07,      /* J = 21 */
(PID.TID 0000.0001)                 9.617567684620319E+07,      /* J = 22 */
(PID.TID 0000.0001)                 1.002335640274833E+08,      /* J = 23 */
(PID.TID 0000.0001)                 1.036980403337117E+08,      /* J = 24 */
(PID.TID 0000.0001)                 1.064595832648755E+08,      /* J = 25 */
(PID.TID 0000.0001)                 1.085247524319864E+08,      /* J = 26 */
(PID.TID 0000.0001)                 1.099785061520295E+08,      /* J = 27 */
(PID.TID 0000.0001)                 1.109440782875938E+08,      /* J = 28 */
(PID.TID 0000.0001)                 1.115502487753059E+08,      /* J = 29 */
(PID.TID 0000.0001)                 1.119104086046303E+08,      /* J = 30 */
(PID.TID 0000.0001)                 1.121131449180735E+08,      /* J = 31 */
(PID.TID 0000.0001)                 1.122213520011331E+08       /* J = 32 */
(PID.TID 0000.0001)     ;
(PID.TID 0000.0001) globalArea = /* Integrated horizontal Area (m^2) */
(PID.TID 0000.0001)                 3.100000000000000E+09
(PID.TID 0000.0001)     ;
(PID.TID 0000.0001) // =======================================================
(PID.TID 0000.0001) // End of Model config. summary
(PID.TID 0000.0001) // =======================================================
(PID.TID 0000.0001) 
(PID.TID 0000.0001) == Packages configuration : Check & print summary ==
(PID.TID 0000.0001) 
(PID.TID 0000.0001) GMREDI_CHECK: #define GMREDI
(PID.TID 0000.0001) GM_AdvForm =     /* if FALSE => use SkewFlux Form */
(PID.TID 0000.0001)                   T
(PID.TID 0000.0001)     ;
(PID.TID 0000.0001) GM_InMomAsStress = /* if TRUE => apply as Eddy Stress */
(PID.TID 0000.0001)                   F
(PID.TID 0000.0001)     ;
(PID.TID 0000.0001) GM_AdvSeparate = /* Calc Bolus & Euler Adv. separately */
(PID.TID 0000.0001)                   F
(PID.TID 0000.0001)     ;
(PID.TID 0000.0001) GM_ExtraDiag =   /* Tensor Extra Diag (line 1&2) non 0 */
(PID.TID 0000.0001)                   T
(PID.TID 0000.0001)     ;
(PID.TID 0000.0001) GM_isopycK =    /* Background Isopyc. Diffusivity [m^2/s] */
(PID.TID 0000.0001)                 1.000000000000000E+03
(PID.TID 0000.0001)     ;
(PID.TID 0000.0001) GM_advec*K =    /* Backg. GM-Advec(=Bolus) Diffusivity [m^2/s] */
(PID.TID 0000.0001)                 1.000000000000000E+03
(PID.TID 0000.0001)     ;
(PID.TID 0000.0001) GM_skewflx*K =  /* Background GM_SkewFlx Diffusivity [m^2/s] */
(PID.TID 0000.0001)                 0.000000000000000E+00
(PID.TID 0000.0001)     ;
(PID.TID 0000.0001) GM_isoFac_calcK = /* Fraction of dynamic K added to Redi tensor */
(PID.TID 0000.0001)                 1.000000000000000E+00
(PID.TID 0000.0001)     ;
(PID.TID 0000.0001) GM_Kmin_horiz = /* Minimum Horizontal Diffusivity [m^2/s] */
(PID.TID 0000.0001)                 0.000000000000000E+00
(PID.TID 0000.0001)     ;
(PID.TID 0000.0001) GM_Visbeck_alpha = /* Visbeck alpha coeff. [-] */
(PID.TID 0000.0001)                 0.000000000000000E+00
(PID.TID 0000.0001)     ;
(PID.TID 0000.0001) GM_Small_Number =  /* epsilon used in slope calc */
(PID.TID 0000.0001)                 9.999999999999999E-21
(PID.TID 0000.0001)     ;
(PID.TID 0000.0001) GM_slopeSqCutoff = /* Slope^2 cut-off value */
(PID.TID 0000.0001)                 1.000000000000000E+48
(PID.TID 0000.0001)     ;
(PID.TID 0000.0001) GM_taper_scheme =  /* Type of Tapering/Clipping scheme */
(PID.TID 0000.0001)               '                                        '
(PID.TID 0000.0001)     ;
(PID.TID 0000.0001) GM_maxSlope =  /* Maximum Slope (Tapering/Clipping) */
(PID.TID 0000.0001)                 1.000000000000000E-02
(PID.TID 0000.0001)     ;
(PID.TID 0000.0001) GM_facTrL2dz = /* Minimum Trans.Layer Thick. (factor of dz) */
(PID.TID 0000.0001)                 1.000000000000000E+00
(PID.TID 0000.0001)     ;
(PID.TID 0000.0001) GM_facTrL2ML = /* Max.Trans.Layer Thick. (factor of MxL Depth)*/
(PID.TID 0000.0001)                 5.000000000000000E+00
(PID.TID 0000.0001)     ;
(PID.TID 0000.0001) GM_maxTransLay = /* Maximum Transition Layer Thickness [m] */
(PID.TID 0000.0001)                 5.000000000000000E+02
(PID.TID 0000.0001)     ;
(PID.TID 0000.0001) GM_UseBVP = /* if TRUE => use bvp a la Ferrari et al. (2010) */
(PID.TID 0000.0001)                   F
(PID.TID 0000.0001)     ;
(PID.TID 0000.0001) GM_BVP_ModeNumber = /* Vertical mode number for BVP wave speed */
(PID.TID 0000.0001)                       1
(PID.TID 0000.0001)     ;
(PID.TID 0000.0001) GM_BVP_cMin = /* Minimum wave speed for BVP [m/s] */
(PID.TID 0000.0001)                 1.000000000000000E-01
(PID.TID 0000.0001)     ;
(PID.TID 0000.0001) GM_useSubMeso = /* if TRUE => use Sub-Meso param. (B.Fox-Kemper) */
(PID.TID 0000.0001)                   F
(PID.TID 0000.0001)     ;
(PID.TID 0000.0001) subMeso_Ceff = /* efficiency coeff. of Mixed-Layer Eddies [-] */
(PID.TID 0000.0001)                 7.000000000000001E-02
(PID.TID 0000.0001)     ;
(PID.TID 0000.0001) subMeso_invTau = /* inverse of Sub-Meso mixing time-scale [/s] */
(PID.TID 0000.0001)                 2.000000000000000E-06
(PID.TID 0000.0001)     ;
(PID.TID 0000.0001) subMeso_LfMin = /* minimum length-scale "Lf" [m] */
(PID.TID 0000.0001)                 1.000000000000000E+03
(PID.TID 0000.0001)     ;
(PID.TID 0000.0001) subMeso_Lmax = /* maximum grid-scale length [m] */
(PID.TID 0000.0001)                 1.100000000000000E+05
(PID.TID 0000.0001)     ;
(PID.TID 0000.0001) GM_useLeithQG = /* if TRUE => add QG Leith viscosity to GMRedi tensor */
(PID.TID 0000.0001)                   F
(PID.TID 0000.0001)     ;
(PID.TID 0000.0001) GM_useGEOM = /* using GEOMETRIC */
(PID.TID 0000.0001)                   F
(PID.TID 0000.0001)     ;
(PID.TID 0000.0001) GAD_CHECK: #define ALLOW_GENERIC_ADVDIFF
(PID.TID 0000.0001) // =======================================================
(PID.TID 0000.0001) // Check Model config. (CONFIG_CHECK):
(PID.TID 0000.0001) // CONFIG_CHECK : Normal End
(PID.TID 0000.0001) // =======================================================
(PID.TID 0000.0001) 
(PID.TID 0000.0001)  MDS_READ_FIELD: opening global file: Tini_flip.bin
(PID.TID 0000.0001)  MDS_READ_FIELD: opening global file: Sini_Ydir.bin
(PID.TID 0000.0001) Start initial hydrostatic pressure computation
(PID.TID 0000.0001) Pressure is predetermined for buoyancyRelation OCEANICP
(PID.TID 0000.0001) 
(PID.TID 0000.0001)  write diagnostics summary to file ioUnit:      6
Iter.Nb:         0 ; Time(s):  0.0000000000000E+00
------------------------------------------------------------------------
2D/3D diagnostics: Number of lists:     2
------------------------------------------------------------------------
listId=    1 ; file name: surfDiag
 nFlds, nActive,       freq     &     phase        , nLev               
    4  |    4  |   -864000.000000         0.000000 |   1
 levels:   1
 diag# | name   |   ipt  |  iMate | kLev|   count |   mate.C|           
    23 |ETAN    |      1 |      0 |   1 |       0 |
    25 |DETADT2 |      2 |      0 |   1 |       0 |
    73 |PHIBOT  |      3 |      0 |   1 |       0 |
    76 |MXLDEPTH|      4 |      0 |   1 |       0 |
------------------------------------------------------------------------
listId=    2 ; file name: oceDiag
 nFlds, nActive,       freq     &     phase        , nLev               
    8  |    8  |   -864000.000000         0.000000 |  25
 levels:   1   2   3   4   5   6   7   8   9  10  11  12  13  14  15  16  17  18  19  20  21  22  23  24  25
 diag# | name   |   ipt  |  iMate | kLev|   count |   mate.C|           
    77 |DRHODR  |      5 |      0 |  25 |       0 |
    64 |RHOAnoma|     30 |      0 |  25 |       0 |
    26 |THETA   |     55 |      0 |  25 |       0 |
   201 |GM_Kwy  |     80 |      0 |  25 |       0 |
   202 |GM_Kwz  |    105 |      0 |  25 |       0 |
   197 |GM_Kvy  |    130 |      0 |  25 |       0 |
   199 |GM_Kvz  |    155 |      0 |  25 |       0 |
   204 |GM_PsiY |    180 |      0 |  25 |       0 |
------------------------------------------------------------------------
Global & Regional Statistics diagnostics: Number of lists:     1
------------------------------------------------------------------------
listId=   1 ; file name: dynStDiag
 nFlds, nActive,       freq     &     phase        |                    
   13  |   13  |     21600.000000         0.000000 |
 Regions:   0
 diag# | name   |   ipt  |  iMate |    Volume   |   mate-Vol. |         
    23 |ETAN    |      1 |      0 | 0.00000E+00 |
    25 |DETADT2 |      2 |      0 | 0.00000E+00 |
    76 |MXLDEPTH|      3 |      0 | 0.00000E+00 |
    30 |UVEL    |      4 |      0 | 0.00000E+00 |
    31 |VVEL    |     29 |      0 | 0.00000E+00 |
    32 |WVEL    |     54 |      0 | 0.00000E+00 |
    26 |THETA   |     79 |      0 | 0.00000E+00 |
    27 |SALT    |    104 |      0 | 0.00000E+00 |
   204 |GM_PsiY |    129 |      0 | 0.00000E+00 |
   197 |GM_Kvy  |    154 |      0 | 0.00000E+00 |
   199 |GM_Kvz  |    179 |      0 | 0.00000E+00 |
   201 |GM_Kwy  |    204 |      0 | 0.00000E+00 |
   202 |GM_Kwz  |    229 |      0 | 0.00000E+00 |
------------------------------------------------------------------------
(PID.TID 0000.0001) // =======================================================
(PID.TID 0000.0001) // Model current state
(PID.TID 0000.0001) // =======================================================
(PID.TID 0000.0001) 
(PID.TID 0000.0001) // =======================================================
(PID.TID 0000.0001) // Begin MONITOR dynamic field statistics
(PID.TID 0000.0001) // =======================================================
(PID.TID 0000.0001) %MON time_tsnumber                =                     0
(PID.TID 0000.0001) %MON time_secondsf                =   0.0000000000000E+00
(PID.TID 0000.0001) %MON dynstat_eta_max              =   0.0000000000000E+00
(PID.TID 0000.0001) %MON dynstat_eta_min              =   0.0000000000000E+00
(PID.TID 0000.0001) %MON dynstat_eta_mean             =   0.0000000000000E+00
(PID.TID 0000.0001) %MON dynstat_eta_sd               =   0.0000000000000E+00
(PID.TID 0000.0001) %MON dynstat_eta_del2             =   0.0000000000000E+00
(PID.TID 0000.0001) %MON dynstat_uvel_max             =   0.0000000000000E+00
(PID.TID 0000.0001) %MON dynstat_uvel_min             =   0.0000000000000E+00
(PID.TID 0000.0001) %MON dynstat_uvel_mean            =   0.0000000000000E+00
(PID.TID 0000.0001) %MON dynstat_uvel_sd              =   0.0000000000000E+00
(PID.TID 0000.0001) %MON dynstat_uvel_del2            =   0.0000000000000E+00
(PID.TID 0000.0001) %MON dynstat_vvel_max             =   0.0000000000000E+00
(PID.TID 0000.0001) %MON dynstat_vvel_min             =   0.0000000000000E+00
(PID.TID 0000.0001) %MON dynstat_vvel_mean            =   0.0000000000000E+00
(PID.TID 0000.0001) %MON dynstat_vvel_sd              =   0.0000000000000E+00
(PID.TID 0000.0001) %MON dynstat_vvel_del2            =   0.0000000000000E+00
(PID.TID 0000.0001) %MON dynstat_wvel_max             =  -0.0000000000000E+00
(PID.TID 0000.0001) %MON dynstat_wvel_min             =  -0.0000000000000E+00
(PID.TID 0000.0001) %MON dynstat_wvel_mean            =   0.0000000000000E+00
(PID.TID 0000.0001) %MON dynstat_wvel_sd              =   0.0000000000000E+00
(PID.TID 0000.0001) %MON dynstat_wvel_del2            =   0.0000000000000E+00
(PID.TID 0000.0001) %MON dynstat_theta_max            =   2.0568423459062E+01
(PID.TID 0000.0001) %MON dynstat_theta_min            =   1.5559594024634E+01
(PID.TID 0000.0001) %MON dynstat_theta_mean           =   1.7563160569106E+01
(PID.TID 0000.0001) %MON dynstat_theta_sd             =   1.4157859662864E+00
(PID.TID 0000.0001) %MON dynstat_theta_del2           =   1.3832283076989E-04
(PID.TID 0000.0001) %MON dynstat_salt_max             =   1.0000000000000E+00
(PID.TID 0000.0001) %MON dynstat_salt_min             =   3.9497512775329E-01
(PID.TID 0000.0001) %MON dynstat_salt_mean            =   7.4692405417468E-01
(PID.TID 0000.0001) %MON dynstat_salt_sd              =   2.0066334606907E-01
(PID.TID 0000.0001) %MON dynstat_salt_del2            =   2.2833808829094E-04
(PID.TID 0000.0001) %MON advcfl_uvel_max              =   0.0000000000000E+00
(PID.TID 0000.0001) %MON advcfl_vvel_max              =   0.0000000000000E+00
(PID.TID 0000.0001) %MON advcfl_wvel_max              =   0.0000000000000E+00
(PID.TID 0000.0001) %MON advcfl_W_hf_max              =   0.0000000000000E+00
(PID.TID 0000.0001) %MON pe_b_mean                    =   0.0000000000000E+00
(PID.TID 0000.0001) %MON ke_max                       =   0.0000000000000E+00
(PID.TID 0000.0001) %MON ke_mean                      =   0.0000000000000E+00
(PID.TID 0000.0001) %MON ke_vol                       =   7.6260000000000E+16
(PID.TID 0000.0001) // =======================================================
(PID.TID 0000.0001) // End MONITOR dynamic field statistics
(PID.TID 0000.0001) // =======================================================
(PID.TID 0000.0001) SOLVE_FOR_PRESSURE: putPmEinXvector =    F
 cg2d: Sum(rhs),rhsMax =   1.77635683940025E-15  1.59001889435547E-03
(PID.TID 0000.0001)      cg2d_init_res =   3.66943189378592E+00
(PID.TID 0000.0001)      cg2d_iters(min,last) =      -1      29
(PID.TID 0000.0001)      cg2d_last_res =   1.87856717661542E-14
(PID.TID 0000.0001) // =======================================================
(PID.TID 0000.0001) // Begin MONITOR dynamic field statistics
(PID.TID 0000.0001) // =======================================================
(PID.TID 0000.0001) %MON time_tsnumber                =                     1
(PID.TID 0000.0001) %MON time_secondsf                =   1.8000000000000E+03
(PID.TID 0000.0001) %MON dynstat_eta_max              =   1.5577757061499E+02
(PID.TID 0000.0001) %MON dynstat_eta_min              =  -1.5578802445190E+02
(PID.TID 0000.0001) %MON dynstat_eta_mean             =  -6.8817204301075E-15
(PID.TID 0000.0001) %MON dynstat_eta_sd               =   1.1034790520489E+02
(PID.TID 0000.0001) %MON dynstat_eta_del2             =   1.9396252918331E-01
(PID.TID 0000.0001) %MON dynstat_uvel_max             =   0.0000000000000E+00
(PID.TID 0000.0001) %MON dynstat_uvel_min             =   0.0000000000000E+00
(PID.TID 0000.0001) %MON dynstat_uvel_mean            =   0.0000000000000E+00
(PID.TID 0000.0001) %MON dynstat_uvel_sd              =   0.0000000000000E+00
(PID.TID 0000.0001) %MON dynstat_uvel_del2            =   0.0000000000000E+00
(PID.TID 0000.0001) %MON dynstat_vvel_max             =   1.3159304650533E-02
(PID.TID 0000.0001) %MON dynstat_vvel_min             =  -2.8399192395205E-03
(PID.TID 0000.0001) %MON dynstat_vvel_mean            =   2.2960740634920E-04
(PID.TID 0000.0001) %MON dynstat_vvel_sd              =   3.2708413738128E-03
(PID.TID 0000.0001) %MON dynstat_vvel_del2            =   2.6252515693607E-06
(PID.TID 0000.0001) %MON dynstat_wvel_max             =   4.8044519475064E-01
(PID.TID 0000.0001) %MON dynstat_wvel_min             =  -4.8057261800746E-01
(PID.TID 0000.0001) %MON dynstat_wvel_mean            =  -7.2354537232439E-17
(PID.TID 0000.0001) %MON dynstat_wvel_sd              =   2.3409514457711E-01
(PID.TID 0000.0001) %MON dynstat_wvel_del2            =   1.0727456523916E-04
(PID.TID 0000.0001) %MON dynstat_theta_max            =   2.0568356979286E+01
(PID.TID 0000.0001) %MON dynstat_theta_min            =   1.5559631949511E+01
(PID.TID 0000.0001) %MON dynstat_theta_mean           =   1.7563160570396E+01
(PID.TID 0000.0001) %MON dynstat_theta_sd             =   1.4157858227061E+00
(PID.TID 0000.0001) %MON dynstat_theta_del2           =   1.3827375975965E-04
(PID.TID 0000.0001) %MON dynstat_salt_max             =   9.9984962322830E-01
(PID.TID 0000.0001) %MON dynstat_salt_min             =   3.9573387965773E-01
(PID.TID 0000.0001) %MON dynstat_salt_mean            =   7.4692405414469E-01
(PID.TID 0000.0001) %MON dynstat_salt_sd              =   2.0049834950731E-01
(PID.TID 0000.0001) %MON dynstat_salt_del2            =   2.2965688247240E-04
(PID.TID 0000.0001) %MON advcfl_uvel_max              =   0.0000000000000E+00
(PID.TID 0000.0001) %MON advcfl_vvel_max              =   2.9970856914954E-03
(PID.TID 0000.0001) %MON advcfl_wvel_max              =   8.4560392293614E-04
(PID.TID 0000.0001) %MON advcfl_W_hf_max              =   8.9010939256436E-04
(PID.TID 0000.0001) %MON pe_b_mean                    =   2.4749309315259E-07
(PID.TID 0000.0001) %MON ke_max                       =   8.7029874315340E-05
(PID.TID 0000.0001) %MON ke_mean                      =   5.1810275770356E-06
(PID.TID 0000.0001) %MON ke_vol                       =   7.6260000000000E+16
(PID.TID 0000.0001) // =======================================================
(PID.TID 0000.0001) // End MONITOR dynamic field statistics
(PID.TID 0000.0001) // =======================================================
 Computing Diagnostic #     23  ETAN         Counter:       1   Parms: SM      M1      
 Computing Diagnostic #     25  DETADT2      Counter:       1   Parms: SM      M1      
 Computing Diagnostic #     73  PHIBOT       Counter:       1   Parms: SM      M1      
 Computing Diagnostic #     76  MXLDEPTH     Counter:       1   Parms: SM      M1      
 Computing Diagnostic #     77  DRHODR       Counter:       1   Parms: SM      LR      
 Computing Diagnostic #     64  RHOAnoma     Counter:       1   Parms: SMR     MR      
 Computing Diagnostic #     26  THETA        Counter:       1   Parms: SMR     MR      
 Computing Diagnostic #    201  GM_Kwy       Counter:       1   Parms: VM      LR      
           Vector  Mate for  GM_Kwy       Diagnostic #    200  GM_Kwx   not enabled
 Computing Diagnostic #    202  GM_Kwz       Counter:       1   Parms: WM P    LR      
 Computing Diagnostic #    197  GM_Kvy       Counter:       1   Parms: VV P    MR      
           Vector  Mate for  GM_Kvy       Diagnostic #    196  GM_Kux   not enabled
 Computing Diagnostic #    199  GM_Kvz       Counter:       1   Parms: VV      MR      
           Vector  Mate for  GM_Kvz       Diagnostic #    198  GM_Kuz   not enabled
 Computing Diagnostic #    204  GM_PsiY      Counter:       1   Parms: VV      LR      
           Vector  Mate for  GM_PsiY      Diagnostic #    203  GM_PsiX  not enabled
 cg2d: Sum(rhs),rhsMax =   0.00000000000000E+00  1.93459627569848E-03
(PID.TID 0000.0001)      cg2d_init_res =   6.52621796265662E-01
(PID.TID 0000.0001)      cg2d_iters(min,last) =      -1      29
(PID.TID 0000.0001)      cg2d_last_res =   4.10695060654865E-14
(PID.TID 0000.0001) // =======================================================
(PID.TID 0000.0001) // Begin MONITOR dynamic field statistics
(PID.TID 0000.0001) // =======================================================
(PID.TID 0000.0001) %MON time_tsnumber                =                     2
(PID.TID 0000.0001) %MON time_secondsf                =   3.6000000000000E+03
(PID.TID 0000.0001) %MON dynstat_eta_max              =   1.8951386671218E+02
(PID.TID 0000.0001) %MON dynstat_eta_min              =  -1.8947198904209E+02
(PID.TID 0000.0001) %MON dynstat_eta_mean             =  -6.8817204301075E-15
(PID.TID 0000.0001) %MON dynstat_eta_sd               =   1.3422563269429E+02
(PID.TID 0000.0001) %MON dynstat_eta_del2             =   2.3595346113716E-01
(PID.TID 0000.0001) %MON dynstat_uvel_max             =   3.7898523018923E-03
(PID.TID 0000.0001) %MON dynstat_uvel_min             =  -8.1789232119986E-04
(PID.TID 0000.0001) %MON dynstat_uvel_mean            =   6.4145241682951E-05
(PID.TID 0000.0001) %MON dynstat_uvel_sd              =   9.2408534298953E-04
(PID.TID 0000.0001) %MON dynstat_uvel_del2            =   1.4747871930763E-06
(PID.TID 0000.0001) %MON dynstat_vvel_max             =   2.5689783464562E-02
(PID.TID 0000.0001) %MON dynstat_vvel_min             =  -6.2949476487963E-03
(PID.TID 0000.0001) %MON dynstat_vvel_mean            =   4.9684073564462E-05
(PID.TID 0000.0001) %MON dynstat_vvel_sd              =   6.5357301546508E-03
(PID.TID 0000.0001) %MON dynstat_vvel_del2            =   5.1105547707492E-06
(PID.TID 0000.0001) %MON dynstat_wvel_max             =   9.0975978172498E-01
(PID.TID 0000.0001) %MON dynstat_wvel_min             =  -9.0953932995835E-01
(PID.TID 0000.0001) %MON dynstat_wvel_mean            =  -2.4118179077480E-16
(PID.TID 0000.0001) %MON dynstat_wvel_sd              =   4.2486648959984E-01
(PID.TID 0000.0001) %MON dynstat_wvel_del2            =   2.0066473096772E-04
(PID.TID 0000.0001) %MON dynstat_theta_max            =   2.0568279498456E+01
(PID.TID 0000.0001) %MON dynstat_theta_min            =   1.5559685795808E+01
(PID.TID 0000.0001) %MON dynstat_theta_mean           =   1.7563160570649E+01
(PID.TID 0000.0001) %MON dynstat_theta_sd             =   1.4157856800178E+00
(PID.TID 0000.0001) %MON dynstat_theta_del2           =   1.3820099290959E-04
(PID.TID 0000.0001) %MON dynstat_salt_max             =   9.9970129752384E-01
(PID.TID 0000.0001) %MON dynstat_salt_min             =   3.9647383767943E-01
(PID.TID 0000.0001) %MON dynstat_salt_mean            =   7.4692405430535E-01
(PID.TID 0000.0001) %MON dynstat_salt_sd              =   2.0033380759074E-01
(PID.TID 0000.0001) %MON dynstat_salt_del2            =   2.3124263697474E-04
(PID.TID 0000.0001) %MON advcfl_uvel_max              =   6.8217341434061E-04
(PID.TID 0000.0001) %MON advcfl_vvel_max              =   5.8509537155625E-03
(PID.TID 0000.0001) %MON advcfl_wvel_max              =   1.6373566632121E-03
(PID.TID 0000.0001) %MON advcfl_W_hf_max              =   1.7235333296969E-03
(PID.TID 0000.0001) %MON pe_b_mean                    =   3.6618944049152E-07
(PID.TID 0000.0001) %MON ke_max                       =   3.3886534173858E-04
(PID.TID 0000.0001) %MON ke_mean                      =   2.1015186913328E-05
(PID.TID 0000.0001) %MON ke_vol                       =   7.6260000000000E+16
(PID.TID 0000.0001) // =======================================================
(PID.TID 0000.0001) // End MONITOR dynamic field statistics
(PID.TID 0000.0001) // =======================================================
 cg2d: Sum(rhs),rhsMax =   3.55271367880050E-15  1.81671856562929E-03
(PID.TID 0000.0001)      cg2d_init_res =   2.35915529717665E-01
(PID.TID 0000.0001)      cg2d_iters(min,last) =      -1      29
(PID.TID 0000.0001)      cg2d_last_res =   4.10176620863997E-14
(PID.TID 0000.0001) // =======================================================
(PID.TID 0000.0001) // Begin MONITOR dynamic field statistics
(PID.TID 0000.0001) // =======================================================
(PID.TID 0000.0001) %MON time_tsnumber                =                     3
(PID.TID 0000.0001) %MON time_secondsf                =   5.4000000000000E+03
(PID.TID 0000.0001) %MON dynstat_eta_max              =   1.7813647645890E+02
(PID.TID 0000.0001) %MON dynstat_eta_min              =  -1.7796038826565E+02
(PID.TID 0000.0001) %MON dynstat_eta_mean             =  -5.5053763440860E-14
(PID.TID 0000.0001) %MON dynstat_eta_sd               =   1.2612273700477E+02
(PID.TID 0000.0001) %MON dynstat_eta_del2             =   2.2181768637673E-01
(PID.TID 0000.0001) %MON dynstat_uvel_max             =   9.7670092268609E-03
(PID.TID 0000.0001) %MON dynstat_uvel_min             =  -2.3240702614292E-03
(PID.TID 0000.0001) %MON dynstat_uvel_mean            =   5.3970978487035E-05
(PID.TID 0000.0001) %MON dynstat_uvel_sd              =   2.4237151292892E-03
(PID.TID 0000.0001) %MON dynstat_uvel_del2            =   3.7868677329281E-06
(PID.TID 0000.0001) %MON dynstat_vvel_max             =   3.7318444927517E-02
(PID.TID 0000.0001) %MON dynstat_vvel_min             =  -9.3065274577109E-03
(PID.TID 0000.0001) %MON dynstat_vvel_mean            =  -1.6860568341384E-05
(PID.TID 0000.0001) %MON dynstat_vvel_sd              =   9.5268504956577E-03
(PID.TID 0000.0001) %MON dynstat_vvel_del2            =   7.4435939512117E-06
(PID.TID 0000.0001) %MON dynstat_wvel_max             =   1.3080848727624E+00
(PID.TID 0000.0001) %MON dynstat_wvel_min             =  -1.3064511831978E+00
(PID.TID 0000.0001) %MON dynstat_wvel_mean            =   2.8941814892976E-16
(PID.TID 0000.0001) %MON dynstat_wvel_sd              =   6.1072554185916E-01
(PID.TID 0000.0001) %MON dynstat_wvel_del2            =   4.2968462525523E-04
(PID.TID 0000.0001) %MON dynstat_theta_max            =   2.0568192046944E+01
(PID.TID 0000.0001) %MON dynstat_theta_min            =   1.5559758859725E+01
(PID.TID 0000.0001) %MON dynstat_theta_mean           =   1.7563160570575E+01
(PID.TID 0000.0001) %MON dynstat_theta_sd             =   1.4157855371630E+00
(PID.TID 0000.0001) %MON dynstat_theta_del2           =   1.3808834136934E-04
(PID.TID 0000.0001) %MON dynstat_salt_max             =   9.9955474002112E-01
(PID.TID 0000.0001) %MON dynstat_salt_min             =   3.9719600058901E-01
(PID.TID 0000.0001) %MON dynstat_salt_mean            =   7.4692405467938E-01
(PID.TID 0000.0001) %MON dynstat_salt_sd              =   2.0016971128014E-01
(PID.TID 0000.0001) %MON dynstat_salt_del2            =   2.3305103501236E-04
(PID.TID 0000.0001) %MON advcfl_uvel_max              =   1.7580616608350E-03
(PID.TID 0000.0001) %MON advcfl_vvel_max              =   8.4994291333311E-03
(PID.TID 0000.0001) %MON advcfl_wvel_max              =   2.3630186087662E-03
(PID.TID 0000.0001) %MON advcfl_W_hf_max              =   2.4873880092276E-03
(PID.TID 0000.0001) %MON pe_b_mean                    =   3.2331188596695E-07
(PID.TID 0000.0001) %MON ke_max                       =   7.4758468442672E-04
(PID.TID 0000.0001) %MON ke_mean                      =   4.6676978153054E-05
(PID.TID 0000.0001) %MON ke_vol                       =   7.6260000000000E+16
(PID.TID 0000.0001) // =======================================================
(PID.TID 0000.0001) // End MONITOR dynamic field statistics
(PID.TID 0000.0001) // =======================================================
 cg2d: Sum(rhs),rhsMax =   1.77635683940025E-15  1.76617233312621E-03
(PID.TID 0000.0001)      cg2d_init_res =   1.27484900433462E-01
(PID.TID 0000.0001)      cg2d_iters(min,last) =      -1      29
(PID.TID 0000.0001)      cg2d_last_res =   4.89288334599577E-14
(PID.TID 0000.0001) // =======================================================
(PID.TID 0000.0001) // Begin MONITOR dynamic field statistics
(PID.TID 0000.0001) // =======================================================
(PID.TID 0000.0001) %MON time_tsnumber                =                     4
(PID.TID 0000.0001) %MON time_secondsf                =   7.2000000000000E+03
(PID.TID 0000.0001) %MON dynstat_eta_max              =   1.7225306824431E+02
(PID.TID 0000.0001) %MON dynstat_eta_min              =  -1.7189516232454E+02
(PID.TID 0000.0001) %MON dynstat_eta_mean             =  -8.2580645161290E-14
(PID.TID 0000.0001) %MON dynstat_eta_sd               =   1.2188701823120E+02
(PID.TID 0000.0001) %MON dynstat_eta_del2             =   2.1413228630461E-01
(PID.TID 0000.0001) %MON dynstat_uvel_max             =   1.7739219648760E-02
(PID.TID 0000.0001) %MON dynstat_uvel_min             =  -4.3242934807344E-03
(PID.TID 0000.0001) %MON dynstat_uvel_mean            =   4.4055563364448E-05
(PID.TID 0000.0001) %MON dynstat_uvel_sd              =   4.4224985332014E-03
(PID.TID 0000.0001) %MON dynstat_uvel_del2            =   6.8669532466546E-06
(PID.TID 0000.0001) %MON dynstat_vvel_max             =   4.7717704390654E-02
(PID.TID 0000.0001) %MON dynstat_vvel_min             =  -1.1864767367827E-02
(PID.TID 0000.0001) %MON dynstat_vvel_mean            =  -8.8136041220087E-06
(PID.TID 0000.0001) %MON dynstat_vvel_sd              =   1.2173682125287E-02
(PID.TID 0000.0001) %MON dynstat_vvel_del2            =   9.5698080079483E-06
(PID.TID 0000.0001) %MON dynstat_wvel_max             =   1.6913772609322E+00
(PID.TID 0000.0001) %MON dynstat_wvel_min             =  -1.6862409039506E+00
(PID.TID 0000.0001) %MON dynstat_wvel_mean            =  -1.4470907446488E-16
(PID.TID 0000.0001) %MON dynstat_wvel_sd              =   7.8147590457949E-01
(PID.TID 0000.0001) %MON dynstat_wvel_del2            =   9.2554807420752E-04
(PID.TID 0000.0001) %MON dynstat_theta_max            =   2.0568095982111E+01
(PID.TID 0000.0001) %MON dynstat_theta_min            =   1.5559851831857E+01
(PID.TID 0000.0001) %MON dynstat_theta_mean           =   1.7563160570546E+01
(PID.TID 0000.0001) %MON dynstat_theta_sd             =   1.4157853936001E+00
(PID.TID 0000.0001) %MON dynstat_theta_del2           =   1.3791896326095E-04
(PID.TID 0000.0001) %MON dynstat_salt_max             =   9.9940957503145E-01
(PID.TID 0000.0001) %MON dynstat_salt_min             =   3.9790151605071E-01
(PID.TID 0000.0001) %MON dynstat_salt_mean            =   7.4692405519187E-01
(PID.TID 0000.0001) %MON dynstat_salt_sd              =   2.0000605188286E-01
(PID.TID 0000.0001) %MON dynstat_salt_del2            =   2.3504250848947E-04
(PID.TID 0000.0001) %MON advcfl_uvel_max              =   3.1930595367769E-03
(PID.TID 0000.0001) %MON advcfl_vvel_max              =   1.0867903195360E-02
(PID.TID 0000.0001) %MON advcfl_wvel_max              =   3.0555661294659E-03
(PID.TID 0000.0001) %MON advcfl_W_hf_max              =   3.2163853994378E-03
(PID.TID 0000.0001) %MON pe_b_mean                    =   3.0196026856285E-07
(PID.TID 0000.0001) %MON ke_max                       =   1.3015583308727E-03
(PID.TID 0000.0001) %MON ke_mean                      =   8.1197976636337E-05
(PID.TID 0000.0001) %MON ke_vol                       =   7.6260000000000E+16
(PID.TID 0000.0001) // =======================================================
(PID.TID 0000.0001) // End MONITOR dynamic field statistics
(PID.TID 0000.0001) // =======================================================
 cg2d: Sum(rhs),rhsMax =  -1.77635683940025E-15  1.77997396537001E-03
(PID.TID 0000.0001)      cg2d_init_res =   3.15254824372658E-02
(PID.TID 0000.0001)      cg2d_iters(min,last) =      -1      30
(PID.TID 0000.0001)      cg2d_last_res =   8.48751753647267E-17
(PID.TID 0000.0001) // =======================================================
(PID.TID 0000.0001) // Begin MONITOR dynamic field statistics
(PID.TID 0000.0001) // =======================================================
(PID.TID 0000.0001) %MON time_tsnumber                =                     5
(PID.TID 0000.0001) %MON time_secondsf                =   9.0000000000000E+03
(PID.TID 0000.0001) %MON dynstat_eta_max              =   1.7173253467977E+02
(PID.TID 0000.0001) %MON dynstat_eta_min              =  -1.7117084637846E+02
(PID.TID 0000.0001) %MON dynstat_eta_mean             =  -8.9462365591398E-14
(PID.TID 0000.0001) %MON dynstat_eta_sd               =   1.2143687827513E+02
(PID.TID 0000.0001) %MON dynstat_eta_del2             =   2.1278938747598E-01
(PID.TID 0000.0001) %MON dynstat_uvel_max             =   2.7449463776422E-02
(PID.TID 0000.0001) %MON dynstat_uvel_min             =  -6.7358205534779E-03
(PID.TID 0000.0001) %MON dynstat_uvel_mean            =   4.3359699881115E-05
(PID.TID 0000.0001) %MON dynstat_uvel_sd              =   6.8520706192116E-03
(PID.TID 0000.0001) %MON dynstat_uvel_del2            =   1.0615168575760E-05
(PID.TID 0000.0001) %MON dynstat_vvel_max             =   5.6445232582139E-02
(PID.TID 0000.0001) %MON dynstat_vvel_min             =  -1.3999516497713E-02
(PID.TID 0000.0001) %MON dynstat_vvel_mean            =  -9.3663246407623E-07
(PID.TID 0000.0001) %MON dynstat_vvel_sd              =   1.4391823694628E-02
(PID.TID 0000.0001) %MON dynstat_vvel_del2            =   1.1414981903241E-05
(PID.TID 0000.0001) %MON dynstat_wvel_max             =   2.0273193474806E+00
(PID.TID 0000.0001) %MON dynstat_wvel_min             =  -2.0152823981483E+00
(PID.TID 0000.0001) %MON dynstat_wvel_mean            =   1.4470907446488E-16
(PID.TID 0000.0001) %MON dynstat_wvel_sd              =   9.2459912032085E-01
(PID.TID 0000.0001) %MON dynstat_wvel_del2            =   1.6769765758859E-03
(PID.TID 0000.0001) %MON dynstat_theta_max            =   2.0567993072705E+01
(PID.TID 0000.0001) %MON dynstat_theta_min            =   1.5559960866952E+01
(PID.TID 0000.0001) %MON dynstat_theta_mean           =   1.7563160570544E+01
(PID.TID 0000.0001) %MON dynstat_theta_sd             =   1.4157852493998E+00
(PID.TID 0000.0001) %MON dynstat_theta_del2           =   1.3767837677968E-04
(PID.TID 0000.0001) %MON dynstat_salt_max             =   9.9926540750464E-01
(PID.TID 0000.0001) %MON dynstat_salt_min             =   3.9859171484714E-01
(PID.TID 0000.0001) %MON dynstat_salt_mean            =   7.4692405578210E-01
(PID.TID 0000.0001) %MON dynstat_salt_sd              =   1.9984282093316E-01
(PID.TID 0000.0001) %MON dynstat_salt_del2            =   2.3718198004315E-04
(PID.TID 0000.0001) %MON advcfl_uvel_max              =   4.9409034797559E-03
(PID.TID 0000.0001) %MON advcfl_vvel_max              =   1.2855633592935E-02
(PID.TID 0000.0001) %MON advcfl_wvel_max              =   3.6650260954242E-03
(PID.TID 0000.0001) %MON advcfl_W_hf_max              =   3.8579222057097E-03
(PID.TID 0000.0001) %MON pe_b_mean                    =   2.9973405295138E-07
(PID.TID 0000.0001) %MON ke_max                       =   1.9776387038046E-03
(PID.TID 0000.0001) %MON ke_mean                      =   1.2329090022053E-04
(PID.TID 0000.0001) %MON ke_vol                       =   7.6260000000000E+16
(PID.TID 0000.0001) // =======================================================
(PID.TID 0000.0001) // End MONITOR dynamic field statistics
(PID.TID 0000.0001) // =======================================================
 cg2d: Sum(rhs),rhsMax =   5.32907051820075E-15  1.81176307304235E-03
(PID.TID 0000.0001)      cg2d_init_res =   5.23921613587815E-02
(PID.TID 0000.0001)      cg2d_iters(min,last) =      -1      30
(PID.TID 0000.0001)      cg2d_last_res =   1.01754489727288E-16
(PID.TID 0000.0001) // =======================================================
(PID.TID 0000.0001) // Begin MONITOR dynamic field statistics
(PID.TID 0000.0001) // =======================================================
(PID.TID 0000.0001) %MON time_tsnumber                =                     6
(PID.TID 0000.0001) %MON time_secondsf                =   1.0800000000000E+04
(PID.TID 0000.0001) %MON dynstat_eta_max              =   1.7146627038142E+02
(PID.TID 0000.0001) %MON dynstat_eta_min              =  -1.7070705993964E+02
(PID.TID 0000.0001) %MON dynstat_eta_mean             =  -1.1698924731183E-13
(PID.TID 0000.0001) %MON dynstat_eta_sd               =   1.2115998069724E+02
(PID.TID 0000.0001) %MON dynstat_eta_del2             =   2.1127772662977E-01
(PID.TID 0000.0001) %MON dynstat_uvel_max             =   3.8548686424614E-02
(PID.TID 0000.0001) %MON dynstat_uvel_min             =  -9.4855768081635E-03
(PID.TID 0000.0001) %MON dynstat_uvel_mean            =   4.4021398807959E-05
(PID.TID 0000.0001) %MON dynstat_uvel_sd              =   9.6277027250574E-03
(PID.TID 0000.0001) %MON dynstat_uvel_del2            =   1.4897191801243E-05
(PID.TID 0000.0001) %MON dynstat_vvel_max             =   6.3205903956842E-02
(PID.TID 0000.0001) %MON dynstat_vvel_min             =  -1.5650388123762E-02
(PID.TID 0000.0001) %MON dynstat_vvel_mean            =  -5.7599379397755E-07
(PID.TID 0000.0001) %MON dynstat_vvel_sd              =   1.6108616068936E-02
(PID.TID 0000.0001) %MON dynstat_vvel_del2            =   1.2931906105416E-05
(PID.TID 0000.0001) %MON dynstat_wvel_max             =   2.3033407628885E+00
(PID.TID 0000.0001) %MON dynstat_wvel_min             =  -2.2797137333472E+00
(PID.TID 0000.0001) %MON dynstat_wvel_mean            =  -2.4118179077480E-16
(PID.TID 0000.0001) %MON dynstat_wvel_sd              =   1.0347459237769E+00
(PID.TID 0000.0001) %MON dynstat_wvel_del2            =   2.6201766332857E-03
(PID.TID 0000.0001) %MON dynstat_theta_max            =   2.0567885337322E+01
(PID.TID 0000.0001) %MON dynstat_theta_min            =   1.5559899832434E+01
(PID.TID 0000.0001) %MON dynstat_theta_mean           =   1.7563160570544E+01
(PID.TID 0000.0001) %MON dynstat_theta_sd             =   1.4157851047000E+00
(PID.TID 0000.0001) %MON dynstat_theta_del2           =   1.3735774454526E-04
(PID.TID 0000.0001) %MON dynstat_salt_max             =   9.9912187903509E-01
(PID.TID 0000.0001) %MON dynstat_salt_min             =   3.9926801202539E-01
(PID.TID 0000.0001) %MON dynstat_salt_mean            =   7.4692405636155E-01
(PID.TID 0000.0001) %MON dynstat_salt_sd              =   1.9968001009305E-01
(PID.TID 0000.0001) %MON dynstat_salt_del2            =   2.3943854694173E-04
(PID.TID 0000.0001) %MON advcfl_uvel_max              =   6.9387635564304E-03
(PID.TID 0000.0001) %MON advcfl_vvel_max              =   1.4395404270803E-02
(PID.TID 0000.0001) %MON advcfl_wvel_max              =   4.1711751756881E-03
(PID.TID 0000.0001) %MON advcfl_W_hf_max              =   4.3907107112506E-03
(PID.TID 0000.0001) %MON pe_b_mean                    =   2.9836871793814E-07
(PID.TID 0000.0001) %MON ke_max                       =   2.7501448182359E-03
(PID.TID 0000.0001) %MON ke_mean                      =   1.7139581457340E-04
(PID.TID 0000.0001) %MON ke_vol                       =   7.6260000000000E+16
(PID.TID 0000.0001) // =======================================================
(PID.TID 0000.0001) // End MONITOR dynamic field statistics
(PID.TID 0000.0001) // =======================================================
 cg2d: Sum(rhs),rhsMax =   3.55271367880050E-15  1.85702182981272E-03
(PID.TID 0000.0001)      cg2d_init_res =   8.03104774335096E-02
(PID.TID 0000.0001)      cg2d_iters(min,last) =      -1      30
(PID.TID 0000.0001)      cg2d_last_res =   1.38897834018212E-16
(PID.TID 0000.0001) // =======================================================
(PID.TID 0000.0001) // Begin MONITOR dynamic field statistics
(PID.TID 0000.0001) // =======================================================
(PID.TID 0000.0001) %MON time_tsnumber                =                     7
(PID.TID 0000.0001) %MON time_secondsf                =   1.2600000000000E+04
(PID.TID 0000.0001) %MON dynstat_eta_max              =   1.7062161562346E+02
(PID.TID 0000.0001) %MON dynstat_eta_min              =  -1.6969719574304E+02
(PID.TID 0000.0001) %MON dynstat_eta_mean             =  -1.5139784946237E-13
(PID.TID 0000.0001) %MON dynstat_eta_sd               =   1.2047294267594E+02
(PID.TID 0000.0001) %MON dynstat_eta_del2             =   2.0853440784180E-01
(PID.TID 0000.0001) %MON dynstat_uvel_max             =   5.0650649172470E-02
(PID.TID 0000.0001) %MON dynstat_uvel_min             =  -1.2479886237546E-02
(PID.TID 0000.0001) %MON dynstat_uvel_mean            =   4.3958654234808E-05
(PID.TID 0000.0001) %MON dynstat_uvel_sd              =   1.2653132614702E-02
(PID.TID 0000.0001) %MON dynstat_uvel_del2            =   1.9566475741956E-05
(PID.TID 0000.0001) %MON dynstat_vvel_max             =   6.7793530656857E-02
(PID.TID 0000.0001) %MON dynstat_vvel_min             =  -1.6754009045463E-02
(PID.TID 0000.0001) %MON dynstat_vvel_mean            =  -1.4290957151490E-06
(PID.TID 0000.0001) %MON dynstat_vvel_sd              =   1.7269027416413E-02
(PID.TID 0000.0001) %MON dynstat_vvel_del2            =   1.4083381741776E-05
(PID.TID 0000.0001) %MON dynstat_wvel_max             =   2.5092715589465E+00
(PID.TID 0000.0001) %MON dynstat_wvel_min             =  -2.4684710354547E+00
(PID.TID 0000.0001) %MON dynstat_wvel_mean            =  -3.8589086523967E-16
(PID.TID 0000.0001) %MON dynstat_wvel_sd              =   1.1089868827662E+00
(PID.TID 0000.0001) %MON dynstat_wvel_del2            =   3.6637575386470E-03
(PID.TID 0000.0001) %MON dynstat_theta_max            =   2.0567774932738E+01
(PID.TID 0000.0001) %MON dynstat_theta_min            =   1.5559762606291E+01
(PID.TID 0000.0001) %MON dynstat_theta_mean           =   1.7563160570546E+01
(PID.TID 0000.0001) %MON dynstat_theta_sd             =   1.4157849596426E+00
(PID.TID 0000.0001) %MON dynstat_theta_del2           =   1.3695645727521E-04
(PID.TID 0000.0001) %MON dynstat_salt_max             =   9.9897872228992E-01
(PID.TID 0000.0001) %MON dynstat_salt_min             =   3.9993184206859E-01
(PID.TID 0000.0001) %MON dynstat_salt_mean            =   7.4692405685115E-01
(PID.TID 0000.0001) %MON dynstat_salt_sd              =   1.9951761106423E-01
(PID.TID 0000.0001) %MON dynstat_salt_del2            =   2.4178513470016E-04
(PID.TID 0000.0001) %MON advcfl_uvel_max              =   9.1171168510445E-03
(PID.TID 0000.0001) %MON advcfl_vvel_max              =   1.5440255097323E-02
(PID.TID 0000.0001) %MON advcfl_wvel_max              =   4.5570724671361E-03
(PID.TID 0000.0001) %MON advcfl_W_hf_max              =   4.7969183864590E-03
(PID.TID 0000.0001) %MON pe_b_mean                    =   2.9499451050814E-07
(PID.TID 0000.0001) %MON ke_max                       =   3.5915437287204E-03
(PID.TID 0000.0001) %MON ke_mean                      =   2.2376543931773E-04
(PID.TID 0000.0001) %MON ke_vol                       =   7.6260000000000E+16
(PID.TID 0000.0001) // =======================================================
(PID.TID 0000.0001) // End MONITOR dynamic field statistics
(PID.TID 0000.0001) // =======================================================
 cg2d: Sum(rhs),rhsMax =   4.44089209850063E-15  1.92068363206234E-03
(PID.TID 0000.0001)      cg2d_init_res =   1.03272271089706E-01
(PID.TID 0000.0001)      cg2d_iters(min,last) =      -1      30
(PID.TID 0000.0001)      cg2d_last_res =   1.01399611884223E-16
(PID.TID 0000.0001) // =======================================================
(PID.TID 0000.0001) // Begin MONITOR dynamic field statistics
(PID.TID 0000.0001) // =======================================================
(PID.TID 0000.0001) %MON time_tsnumber                =                     8
(PID.TID 0000.0001) %MON time_secondsf                =   1.4400000000000E+04
(PID.TID 0000.0001) %MON dynstat_eta_max              =   1.6957890621101E+02
(PID.TID 0000.0001) %MON dynstat_eta_min              =  -1.6854186760580E+02
(PID.TID 0000.0001) %MON dynstat_eta_mean             =  -1.2387096774194E-13
(PID.TID 0000.0001) %MON dynstat_eta_sd               =   1.1965136905266E+02
(PID.TID 0000.0001) %MON dynstat_eta_del2             =   2.0515677936079E-01
(PID.TID 0000.0001) %MON dynstat_uvel_max             =   6.3341686974967E-02
(PID.TID 0000.0001) %MON dynstat_uvel_min             =  -1.5613364457432E-02
(PID.TID 0000.0001) %MON dynstat_uvel_mean            =   4.3619828205614E-05
(PID.TID 0000.0001) %MON dynstat_uvel_sd              =   1.5824264445280E-02
(PID.TID 0000.0001) %MON dynstat_uvel_del2            =   2.4467108016822E-05
(PID.TID 0000.0001) %MON dynstat_vvel_max             =   7.0069671472459E-02
(PID.TID 0000.0001) %MON dynstat_vvel_min             =  -1.7273113772338E-02
(PID.TID 0000.0001) %MON dynstat_vvel_mean            =  -1.7086118511052E-06
(PID.TID 0000.0001) %MON dynstat_vvel_sd              =   1.7837258747112E-02
(PID.TID 0000.0001) %MON dynstat_vvel_del2            =   1.4837752413686E-05
(PID.TID 0000.0001) %MON dynstat_wvel_max             =   2.6358793603304E+00
(PID.TID 0000.0001) %MON dynstat_wvel_min             =  -2.5722210459131E+00
(PID.TID 0000.0001) %MON dynstat_wvel_mean            =   9.6472716309919E-17
(PID.TID 0000.0001) %MON dynstat_wvel_sd              =   1.1451965170185E+00
(PID.TID 0000.0001) %MON dynstat_wvel_del2            =   4.7065502153293E-03
(PID.TID 0000.0001) %MON dynstat_theta_max            =   2.0567664068042E+01
(PID.TID 0000.0001) %MON dynstat_theta_min            =   1.5559621499641E+01
(PID.TID 0000.0001) %MON dynstat_theta_mean           =   1.7563160570551E+01
(PID.TID 0000.0001) %MON dynstat_theta_sd             =   1.4157848143980E+00
(PID.TID 0000.0001) %MON dynstat_theta_del2           =   1.3648266930283E-04
(PID.TID 0000.0001) %MON dynstat_salt_max             =   9.9883580481001E-01
(PID.TID 0000.0001) %MON dynstat_salt_min             =   4.0058461344134E-01
(PID.TID 0000.0001) %MON dynstat_salt_mean            =   7.4692405719183E-01
(PID.TID 0000.0001) %MON dynstat_salt_sd              =   1.9935561552451E-01
(PID.TID 0000.0001) %MON dynstat_salt_del2            =   2.4419814121784E-04
(PID.TID 0000.0001) %MON advcfl_uvel_max              =   1.1401503655494E-02
(PID.TID 0000.0001) %MON advcfl_vvel_max              =   1.5958655518275E-02
(PID.TID 0000.0001) %MON advcfl_wvel_max              =   4.8077796007409E-03
(PID.TID 0000.0001) %MON advcfl_W_hf_max              =   5.0608206323588E-03
(PID.TID 0000.0001) %MON pe_b_mean                    =   2.9098475845888E-07
(PID.TID 0000.0001) %MON ke_max                       =   4.4721832105508E-03
(PID.TID 0000.0001) %MON ke_mean                      =   2.7853150725286E-04
(PID.TID 0000.0001) %MON ke_vol                       =   7.6260000000000E+16
(PID.TID 0000.0001) // =======================================================
(PID.TID 0000.0001) // End MONITOR dynamic field statistics
(PID.TID 0000.0001) // =======================================================
 cg2d: Sum(rhs),rhsMax =  -8.88178419700125E-16  2.00767794590281E-03
(PID.TID 0000.0001)      cg2d_init_res =   1.17542337640392E-01
(PID.TID 0000.0001)      cg2d_iters(min,last) =      -1      30
(PID.TID 0000.0001)      cg2d_last_res =   8.81798906100943E-17
(PID.TID 0000.0001) // =======================================================
(PID.TID 0000.0001) // Begin MONITOR dynamic field statistics
(PID.TID 0000.0001) // =======================================================
(PID.TID 0000.0001) %MON time_tsnumber                =                     9
(PID.TID 0000.0001) %MON time_secondsf                =   1.6200000000000E+04
(PID.TID 0000.0001) %MON dynstat_eta_max              =   1.6851227221377E+02
(PID.TID 0000.0001) %MON dynstat_eta_min              =  -1.6742761184932E+02
(PID.TID 0000.0001) %MON dynstat_eta_mean             =  -1.5827956989247E-13
(PID.TID 0000.0001) %MON dynstat_eta_sd               =   1.1882361550129E+02
(PID.TID 0000.0001) %MON dynstat_eta_del2             =   2.0157514876996E-01
(PID.TID 0000.0001) %MON dynstat_uvel_max             =   7.6190652891535E-02
(PID.TID 0000.0001) %MON dynstat_uvel_min             =  -1.8776765248781E-02
(PID.TID 0000.0001) %MON dynstat_uvel_mean            =   4.3292320814175E-05
(PID.TID 0000.0001) %MON dynstat_uvel_sd              =   1.9032730139994E-02
(PID.TID 0000.0001) %MON dynstat_uvel_del2            =   2.9436534210399E-05
(PID.TID 0000.0001) %MON dynstat_vvel_max             =   6.9971441802078E-02
(PID.TID 0000.0001) %MON dynstat_vvel_min             =  -1.7193906020193E-02
(PID.TID 0000.0001) %MON dynstat_vvel_mean            =  -1.7209787469041E-06
(PID.TID 0000.0001) %MON dynstat_vvel_sd              =   1.7797787767062E-02
(PID.TID 0000.0001) %MON dynstat_vvel_del2            =   1.5174480465819E-05
(PID.TID 0000.0001) %MON dynstat_wvel_max             =   2.6759947871183E+00
(PID.TID 0000.0001) %MON dynstat_wvel_min             =  -2.5847676345400E+00
(PID.TID 0000.0001) %MON dynstat_wvel_mean            =  -2.8941814892976E-16
(PID.TID 0000.0001) %MON dynstat_wvel_sd              =   1.1423498383570E+00
(PID.TID 0000.0001) %MON dynstat_wvel_del2            =   5.6563430856278E-03
(PID.TID 0000.0001) %MON dynstat_theta_max            =   2.0567554920852E+01
(PID.TID 0000.0001) %MON dynstat_theta_min            =   1.5559482256640E+01
(PID.TID 0000.0001) %MON dynstat_theta_mean           =   1.7563160570560E+01
(PID.TID 0000.0001) %MON dynstat_theta_sd             =   1.4157846691534E+00
(PID.TID 0000.0001) %MON dynstat_theta_del2           =   1.3595171243295E-04
(PID.TID 0000.0001) %MON dynstat_salt_max             =   9.9869315599510E-01
(PID.TID 0000.0001) %MON dynstat_salt_min             =   4.0122766905873E-01
(PID.TID 0000.0001) %MON dynstat_salt_mean            =   7.4692405734524E-01
(PID.TID 0000.0001) %MON dynstat_salt_sd              =   1.9919401508671E-01
(PID.TID 0000.0001) %MON dynstat_salt_del2            =   2.4665708669155E-04
(PID.TID 0000.0001) %MON advcfl_uvel_max              =   1.3714317520476E-02
(PID.TID 0000.0001) %MON advcfl_vvel_max              =   1.5936283307327E-02
(PID.TID 0000.0001) %MON advcfl_wvel_max              =   4.9117896057939E-03
(PID.TID 0000.0001) %MON advcfl_W_hf_max              =   5.1703048482041E-03
(PID.TID 0000.0001) %MON pe_b_mean                    =   2.8697259351217E-07
(PID.TID 0000.0001) %MON ke_max                       =   5.3613284217963E-03
(PID.TID 0000.0001) %MON ke_mean                      =   3.3377240412623E-04
(PID.TID 0000.0001) %MON ke_vol                       =   7.6260000000000E+16
(PID.TID 0000.0001) // =======================================================
(PID.TID 0000.0001) // End MONITOR dynamic field statistics
(PID.TID 0000.0001) // =======================================================
 cg2d: Sum(rhs),rhsMax =   5.32907051820075E-15  2.10979449084994E-03
(PID.TID 0000.0001)      cg2d_init_res =   1.21708886611215E-01
(PID.TID 0000.0001)      cg2d_iters(min,last) =      -1      30
(PID.TID 0000.0001)      cg2d_last_res =   3.06645805953272E-16
(PID.TID 0000.0001) // =======================================================
(PID.TID 0000.0001) // Begin MONITOR dynamic field statistics
(PID.TID 0000.0001) // =======================================================
(PID.TID 0000.0001) %MON time_tsnumber                =                    10
(PID.TID 0000.0001) %MON time_secondsf                =   1.8000000000000E+04
(PID.TID 0000.0001) %MON dynstat_eta_max              =   1.6744604951669E+02
(PID.TID 0000.0001) %MON dynstat_eta_min              =  -1.6638190324284E+02
(PID.TID 0000.0001) %MON dynstat_eta_mean             =  -1.8580645161290E-13
(PID.TID 0000.0001) %MON dynstat_eta_sd               =   1.1801018986774E+02
(PID.TID 0000.0001) %MON dynstat_eta_del2             =   1.9804043349849E-01
(PID.TID 0000.0001) %MON dynstat_uvel_max             =   8.8763393351323E-02
(PID.TID 0000.0001) %MON dynstat_uvel_min             =  -2.1860922145448E-02
(PID.TID 0000.0001) %MON dynstat_uvel_mean            =   4.2990673472668E-05
(PID.TID 0000.0001) %MON dynstat_uvel_sd              =   2.2169580158984E-02
(PID.TID 0000.0001) %MON dynstat_uvel_del2            =   3.4310039854824E-05
(PID.TID 0000.0001) %MON dynstat_vvel_max             =   6.7516461746198E-02
(PID.TID 0000.0001) %MON dynstat_vvel_min             =  -1.6523138580963E-02
(PID.TID 0000.0001) %MON dynstat_vvel_mean            =  -1.6906735002500E-06
(PID.TID 0000.0001) %MON dynstat_vvel_sd              =   1.7155770154028E-02
(PID.TID 0000.0001) %MON dynstat_vvel_del2            =   1.5091050542365E-05
(PID.TID 0000.0001) %MON dynstat_wvel_max             =   2.6255446162115E+00
(PID.TID 0000.0001) %MON dynstat_wvel_min             =  -2.5041423021633E+00
(PID.TID 0000.0001) %MON dynstat_wvel_mean            =  -1.4470907446488E-16
(PID.TID 0000.0001) %MON dynstat_wvel_sd              =   1.1007607671129E+00
(PID.TID 0000.0001) %MON dynstat_wvel_del2            =   6.4441684028683E-03
(PID.TID 0000.0001) %MON dynstat_theta_max            =   2.0567449558545E+01
(PID.TID 0000.0001) %MON dynstat_theta_min            =   1.5559350600078E+01
(PID.TID 0000.0001) %MON dynstat_theta_mean           =   1.7563160570572E+01
(PID.TID 0000.0001) %MON dynstat_theta_sd             =   1.4157845240931E+00
(PID.TID 0000.0001) %MON dynstat_theta_del2           =   1.3538324712382E-04
(PID.TID 0000.0001) %MON dynstat_salt_max             =   9.9855097341913E-01
(PID.TID 0000.0001) %MON dynstat_salt_min             =   4.0186225341200E-01
(PID.TID 0000.0001) %MON dynstat_salt_mean            =   7.4692405729774E-01
(PID.TID 0000.0001) %MON dynstat_salt_sd              =   1.9903280127770E-01
(PID.TID 0000.0001) %MON dynstat_salt_del2            =   2.4914427913656E-04
(PID.TID 0000.0001) %MON advcfl_uvel_max              =   1.5977410803238E-02
(PID.TID 0000.0001) %MON advcfl_vvel_max              =   1.5377151514745E-02
(PID.TID 0000.0001) %MON advcfl_wvel_max              =   4.8623407263880E-03
(PID.TID 0000.0001) %MON advcfl_W_hf_max              =   5.1182533961979E-03
(PID.TID 0000.0001) %MON pe_b_mean                    =   2.8305701041910E-07
(PID.TID 0000.0001) %MON ke_max                       =   6.2284057106632E-03
(PID.TID 0000.0001) %MON ke_mean                      =   3.8758077523558E-04
(PID.TID 0000.0001) %MON ke_vol                       =   7.6260000000000E+16
(PID.TID 0000.0001) // =======================================================
(PID.TID 0000.0001) // End MONITOR dynamic field statistics
(PID.TID 0000.0001) // =======================================================
 cg2d: Sum(rhs),rhsMax =  -8.88178419700125E-16  2.21470261023342E-03
(PID.TID 0000.0001)      cg2d_init_res =   1.16126551270310E-01
(PID.TID 0000.0001)      cg2d_iters(min,last) =      -1      30
(PID.TID 0000.0001)      cg2d_last_res =   2.04966487220742E-16
(PID.TID 0000.0001) // =======================================================
(PID.TID 0000.0001) // Begin MONITOR dynamic field statistics
(PID.TID 0000.0001) // =======================================================
(PID.TID 0000.0001) %MON time_tsnumber                =                    11
(PID.TID 0000.0001) %MON time_secondsf                =   1.9800000000000E+04
(PID.TID 0000.0001) %MON dynstat_eta_max              =   1.6640115727132E+02
(PID.TID 0000.0001) %MON dynstat_eta_min              =  -1.6541948970819E+02
(PID.TID 0000.0001) %MON dynstat_eta_mean             =  -5.5053763440860E-14
(PID.TID 0000.0001) %MON dynstat_eta_sd               =   1.1722721289683E+02
(PID.TID 0000.0001) %MON dynstat_eta_del2             =   1.9472599565271E-01
(PID.TID 0000.0001) %MON dynstat_uvel_max             =   1.0063779015424E-01
(PID.TID 0000.0001) %MON dynstat_uvel_min             =  -2.4760130851584E-02
(PID.TID 0000.0001) %MON dynstat_uvel_mean            =   4.2698814891196E-05
(PID.TID 0000.0001) %MON dynstat_uvel_sd              =   2.5128975579604E-02
(PID.TID 0000.0001) %MON dynstat_uvel_del2            =   3.8925575334653E-05
(PID.TID 0000.0001) %MON dynstat_vvel_max             =   6.2801988248861E-02
(PID.TID 0000.0001) %MON dynstat_vvel_min             =  -1.5287569615317E-02
(PID.TID 0000.0001) %MON dynstat_vvel_mean            =  -1.6269036115829E-06
(PID.TID 0000.0001) %MON dynstat_vvel_sd              =   1.5936741433760E-02
(PID.TID 0000.0001) %MON dynstat_vvel_del2            =   1.4608500232078E-05
(PID.TID 0000.0001) %MON dynstat_wvel_max             =   2.4841541148262E+00
(PID.TID 0000.0001) %MON dynstat_wvel_min             =  -2.3334098263497E+00
(PID.TID 0000.0001) %MON dynstat_wvel_mean            =  -5.7883629785951E-16
(PID.TID 0000.0001) %MON dynstat_wvel_sd              =   1.0220863819313E+00
(PID.TID 0000.0001) %MON dynstat_wvel_del2            =   7.0310101183186E-03
(PID.TID 0000.0001) %MON dynstat_theta_max            =   2.0567349868678E+01
(PID.TID 0000.0001) %MON dynstat_theta_min            =   1.5559231851694E+01
(PID.TID 0000.0001) %MON dynstat_theta_mean           =   1.7563160570586E+01
(PID.TID 0000.0001) %MON dynstat_theta_sd             =   1.4157843793816E+00
(PID.TID 0000.0001) %MON dynstat_theta_del2           =   1.3479833513279E-04
(PID.TID 0000.0001) %MON dynstat_salt_max             =   9.9840960769865E-01
(PID.TID 0000.0001) %MON dynstat_salt_min             =   4.0248948739711E-01
(PID.TID 0000.0001) %MON dynstat_salt_mean            =   7.4692405706245E-01
(PID.TID 0000.0001) %MON dynstat_salt_sd              =   1.9887196553651E-01
(PID.TID 0000.0001) %MON dynstat_salt_del2            =   2.5164450137979E-04
(PID.TID 0000.0001) %MON advcfl_uvel_max              =   1.8114802227762E-02
(PID.TID 0000.0001) %MON advcfl_vvel_max              =   1.4303410809058E-02
(PID.TID 0000.0001) %MON advcfl_wvel_max              =   4.6582348298416E-03
(PID.TID 0000.0001) %MON advcfl_W_hf_max              =   4.9034050840438E-03
(PID.TID 0000.0001) %MON pe_b_mean                    =   2.7931340332438E-07
(PID.TID 0000.0001) %MON ke_max                       =   7.0440623750560E-03
(PID.TID 0000.0001) %MON ke_mean                      =   4.3812790263566E-04
(PID.TID 0000.0001) %MON ke_vol                       =   7.6260000000000E+16
(PID.TID 0000.0001) // =======================================================
(PID.TID 0000.0001) // End MONITOR dynamic field statistics
(PID.TID 0000.0001) // =======================================================
 cg2d: Sum(rhs),rhsMax =  -2.66453525910038E-15  2.31258381938983E-03
(PID.TID 0000.0001)      cg2d_init_res =   1.02647610616094E-01
(PID.TID 0000.0001)      cg2d_iters(min,last) =      -1      30
(PID.TID 0000.0001)      cg2d_last_res =   2.89123950323737E-16
(PID.TID 0000.0001) // =======================================================
(PID.TID 0000.0001) // Begin MONITOR dynamic field statistics
(PID.TID 0000.0001) // =======================================================
(PID.TID 0000.0001) %MON time_tsnumber                =                    12
(PID.TID 0000.0001) %MON time_secondsf                =   2.1600000000000E+04
(PID.TID 0000.0001) %MON dynstat_eta_max              =   1.6541337291637E+02
(PID.TID 0000.0001) %MON dynstat_eta_min              =  -1.6456195982543E+02
(PID.TID 0000.0001) %MON dynstat_eta_mean             =  -4.8172043010753E-14
(PID.TID 0000.0001) %MON dynstat_eta_sd               =   1.1649939501852E+02
(PID.TID 0000.0001) %MON dynstat_eta_del2             =   1.9171185917868E-01
(PID.TID 0000.0001) %MON dynstat_uvel_max             =   1.1141799830406E-01
(PID.TID 0000.0001) %MON dynstat_uvel_min             =  -2.7375687568624E-02
(PID.TID 0000.0001) %MON dynstat_uvel_mean            =   4.2421614525175E-05
(PID.TID 0000.0001) %MON dynstat_uvel_sd              =   2.7811751285445E-02
(PID.TID 0000.0001) %MON dynstat_uvel_del2            =   4.3128594729383E-05
(PID.TID 0000.0001) %MON dynstat_vvel_max             =   5.6000878517839E-02
(PID.TID 0000.0001) %MON dynstat_vvel_min             =  -1.3533203385564E-02
(PID.TID 0000.0001) %MON dynstat_vvel_mean            =  -1.5118575219013E-06
(PID.TID 0000.0001) %MON dynstat_vvel_sd              =   1.4185635934458E-02
(PID.TID 0000.0001) %MON dynstat_vvel_del2            =   1.3775257843907E-05
(PID.TID 0000.0001) %MON dynstat_wvel_max             =   2.2668820020923E+00
(PID.TID 0000.0001) %MON dynstat_wvel_min             =  -2.0932497591153E+00
(PID.TID 0000.0001) %MON dynstat_wvel_mean            =   9.6472716309919E-17
(PID.TID 0000.0001) %MON dynstat_wvel_sd              =   9.0925916462316E-01
(PID.TID 0000.0001) %MON dynstat_wvel_del2            =   7.4064243232272E-03
(PID.TID 0000.0001) %MON dynstat_theta_max            =   2.0567257499447E+01
(PID.TID 0000.0001) %MON dynstat_theta_min            =   1.5559130596301E+01
(PID.TID 0000.0001) %MON dynstat_theta_mean           =   1.7563160570602E+01
(PID.TID 0000.0001) %MON dynstat_theta_sd             =   1.4157842351496E+00
(PID.TID 0000.0001) %MON dynstat_theta_del2           =   1.3421731646985E-04
(PID.TID 0000.0001) %MON dynstat_salt_max             =   9.9826952790306E-01
(PID.TID 0000.0001) %MON dynstat_salt_min             =   4.0311035007238E-01
(PID.TID 0000.0001) %MON dynstat_salt_mean            =   7.4692405667685E-01
(PID.TID 0000.0001) %MON dynstat_salt_sd              =   1.9871149922967E-01
(PID.TID 0000.0001) %MON dynstat_salt_del2            =   2.5414472297694E-04
(PID.TID 0000.0001) %MON advcfl_uvel_max              =   2.0055239694731E-02
(PID.TID 0000.0001) %MON advcfl_vvel_max              =   1.2754430129421E-02
(PID.TID 0000.0001) %MON advcfl_wvel_max              =   4.3042680592391E-03
(PID.TID 0000.0001) %MON advcfl_W_hf_max              =   4.5308084834096E-03
(PID.TID 0000.0001) %MON pe_b_mean                    =   2.7585587479029E-07
(PID.TID 0000.0001) %MON ke_max                       =   7.7810994049784E-03
(PID.TID 0000.0001) %MON ke_mean                      =   4.8372263570803E-04
(PID.TID 0000.0001) %MON ke_vol                       =   7.6260000000000E+16
(PID.TID 0000.0001) // =======================================================
(PID.TID 0000.0001) // End MONITOR dynamic field statistics
(PID.TID 0000.0001) // =======================================================
 Compute Stats, Diag. #     23  ETAN      vol(   0 ): 3.720E+10  Parms: SM      M1      
 Compute Stats, Diag. #     25  DETADT2   vol(   0 ): 3.720E+10  Parms: SM      M1      
 Compute Stats, Diag. #     76  MXLDEPTH  vol(   0 ): 3.720E+10  Parms: SM      M1      
 Compute Stats, Diag. #     30  UVEL      vol(   0 ): 9.151E+17  Parms: UUR     MR      
 Compute Stats, Diag. #     31  VVEL      vol(   0 ): 8.820E+17  Parms: VVR     MR      
 Compute Stats, Diag. #     32  WVEL      vol(   0 ): 9.951E+17  Parms: WM      LR      
 Compute Stats, Diag. #     26  THETA     vol(   0 ): 9.151E+17  Parms: SMR     MR      
 Compute Stats, Diag. #     27  SALT      vol(   0 ): 9.151E+17  Parms: SMR     MR      
 Compute Stats, Diag. #    204  GM_PsiY   vol(   0 ): 9.591E+17  Parms: VV      LR      
 Compute Stats, Diag. #    197  GM_Kvy    vol(   0 ): 8.820E+17  Parms: VV P    MR      
 Compute Stats, Diag. #    199  GM_Kvz    vol(   0 ): 8.820E+17  Parms: VV      MR      
 Compute Stats, Diag. #    201  GM_Kwy    vol(   0 ): 9.951E+17  Parms: VM      LR      
 Compute Stats, Diag. #    202  GM_Kwz    vol(   0 ): 9.951E+17  Parms: WM P    LR      
 cg2d: Sum(rhs),rhsMax =   1.06581410364015E-14  2.40403420945127E-03
(PID.TID 0000.0001)      cg2d_init_res =   8.38454180981806E-02
(PID.TID 0000.0001)      cg2d_iters(min,last) =      -1      29
(PID.TID 0000.0001)      cg2d_last_res =   6.22622008209742E-14
(PID.TID 0000.0001) // =======================================================
(PID.TID 0000.0001) // Begin MONITOR dynamic field statistics
(PID.TID 0000.0001) // =======================================================
(PID.TID 0000.0001) %MON time_tsnumber                =                    13
(PID.TID 0000.0001) %MON time_secondsf                =   2.3400000000000E+04
(PID.TID 0000.0001) %MON dynstat_eta_max              =   1.6452073903736E+02
(PID.TID 0000.0001) %MON dynstat_eta_min              =  -1.6382746699204E+02
(PID.TID 0000.0001) %MON dynstat_eta_mean             =   6.8817204301075E-15
(PID.TID 0000.0001) %MON dynstat_eta_sd               =   1.1585139344039E+02
(PID.TID 0000.0001) %MON dynstat_eta_del2             =   1.8899378263108E-01
(PID.TID 0000.0001) %MON dynstat_uvel_max             =   1.2074759341985E-01
(PID.TID 0000.0001) %MON dynstat_uvel_min             =  -2.9619265107845E-02
(PID.TID 0000.0001) %MON dynstat_uvel_mean            =   4.2169879397606E-05
(PID.TID 0000.0001) %MON dynstat_uvel_sd              =   3.0128730463963E-02
(PID.TID 0000.0001) %MON dynstat_uvel_del2            =   4.6776956653756E-05
(PID.TID 0000.0001) %MON dynstat_vvel_max             =   4.7355232379514E-02
(PID.TID 0000.0001) %MON dynstat_vvel_min             =  -1.1323652873452E-02
(PID.TID 0000.0001) %MON dynstat_vvel_mean            =  -1.3456724127886E-06
(PID.TID 0000.0001) %MON dynstat_vvel_sd              =   1.1965171172207E-02
(PID.TID 0000.0001) %MON dynstat_vvel_del2            =   1.2670379049738E-05
(PID.TID 0000.0001) %MON dynstat_wvel_max             =   1.9758262858915E+00
(PID.TID 0000.0001) %MON dynstat_wvel_min             =  -1.7814913683564E+00
(PID.TID 0000.0001) %MON dynstat_wvel_mean            =   0.0000000000000E+00
(PID.TID 0000.0001) %MON dynstat_wvel_sd              =   7.6639827165810E-01
(PID.TID 0000.0001) %MON dynstat_wvel_del2            =   7.5809669919368E-03
(PID.TID 0000.0001) %MON dynstat_theta_max            =   2.0567173809872E+01
(PID.TID 0000.0001) %MON dynstat_theta_min            =   1.5559050424887E+01
(PID.TID 0000.0001) %MON dynstat_theta_mean           =   1.7563160570618E+01
(PID.TID 0000.0001) %MON dynstat_theta_sd             =   1.4157840914841E+00
(PID.TID 0000.0001) %MON dynstat_theta_del2           =   1.3365874273041E-04
(PID.TID 0000.0001) %MON dynstat_salt_max             =   9.9813127190471E-01
(PID.TID 0000.0001) %MON dynstat_salt_min             =   4.0372566608474E-01
(PID.TID 0000.0001) %MON dynstat_salt_mean            =   7.4692405619696E-01
(PID.TID 0000.0001) %MON dynstat_salt_sd              =   1.9855139368136E-01
(PID.TID 0000.0001) %MON dynstat_salt_del2            =   2.5663383908842E-04
(PID.TID 0000.0001) %MON advcfl_uvel_max              =   2.1734566815573E-02
(PID.TID 0000.0001) %MON advcfl_vvel_max              =   1.0785348705817E-02
(PID.TID 0000.0001) %MON advcfl_wvel_max              =   3.8112685094920E-03
(PID.TID 0000.0001) %MON advcfl_W_hf_max              =   4.0118615889390E-03
(PID.TID 0000.0001) %MON pe_b_mean                    =   2.7279563744064E-07
(PID.TID 0000.0001) %MON ke_max                       =   8.4153036656532E-03
(PID.TID 0000.0001) %MON ke_mean                      =   5.2286327658875E-04
(PID.TID 0000.0001) %MON ke_vol                       =   7.6260000000000E+16
(PID.TID 0000.0001) // =======================================================
(PID.TID 0000.0001) // End MONITOR dynamic field statistics
(PID.TID 0000.0001) // =======================================================
 cg2d: Sum(rhs),rhsMax =   0.00000000000000E+00  2.48359573378385E-03
(PID.TID 0000.0001)      cg2d_init_res =   6.36229155830139E-02
(PID.TID 0000.0001)      cg2d_iters(min,last) =      -1      29
(PID.TID 0000.0001)      cg2d_last_res =   3.84806976022763E-14
(PID.TID 0000.0001) // =======================================================
(PID.TID 0000.0001) // Begin MONITOR dynamic field statistics
(PID.TID 0000.0001) // =======================================================
(PID.TID 0000.0001) %MON time_tsnumber                =                    14
(PID.TID 0000.0001) %MON time_secondsf                =   2.5200000000000E+04
(PID.TID 0000.0001) %MON dynstat_eta_max              =   1.6375792947783E+02
(PID.TID 0000.0001) %MON dynstat_eta_min              =  -1.6322806849431E+02
(PID.TID 0000.0001) %MON dynstat_eta_mean             =  -2.7526881720430E-14
(PID.TID 0000.0001) %MON dynstat_eta_sd               =   1.1530432595497E+02
(PID.TID 0000.0001) %MON dynstat_eta_del2             =   1.8654603946811E-01
(PID.TID 0000.0001) %MON dynstat_uvel_max             =   1.2832130448024E-01
(PID.TID 0000.0001) %MON dynstat_uvel_min             =  -3.1415898000478E-02
(PID.TID 0000.0001) %MON dynstat_uvel_mean            =   4.1952510576992E-05
(PID.TID 0000.0001) %MON dynstat_uvel_sd              =   3.2003680023232E-02
(PID.TID 0000.0001) %MON dynstat_uvel_del2            =   4.9745811777041E-05
(PID.TID 0000.0001) %MON dynstat_vvel_max             =   3.7167810688031E-02
(PID.TID 0000.0001) %MON dynstat_vvel_min             =  -8.7736275305688E-03
(PID.TID 0000.0001) %MON dynstat_vvel_mean            =  -1.1357017456060E-06
(PID.TID 0000.0001) %MON dynstat_vvel_sd              =   9.3536931435453E-03
(PID.TID 0000.0001) %MON dynstat_vvel_del2            =   1.1408445071329E-05
(PID.TID 0000.0001) %MON dynstat_wvel_max             =   1.6173943760722E+00
(PID.TID 0000.0001) %MON dynstat_wvel_min             =  -1.4109167679736E+00
(PID.TID 0000.0001) %MON dynstat_wvel_mean            =   1.9294543261984E-16
(PID.TID 0000.0001) %MON dynstat_wvel_sd              =   5.9872057159026E-01
(PID.TID 0000.0001) %MON dynstat_wvel_del2            =   7.5758822991340E-03
(PID.TID 0000.0001) %MON dynstat_theta_max            =   2.0567099829517E+01
(PID.TID 0000.0001) %MON dynstat_theta_min            =   1.5558981249349E+01
(PID.TID 0000.0001) %MON dynstat_theta_mean           =   1.7563160570633E+01
(PID.TID 0000.0001) %MON dynstat_theta_sd             =   1.4157839484231E+00
(PID.TID 0000.0001) %MON dynstat_theta_del2           =   1.3313907514013E-04
(PID.TID 0000.0001) %MON dynstat_salt_max             =   9.9799538791025E-01
(PID.TID 0000.0001) %MON dynstat_salt_min             =   4.0433609772149E-01
(PID.TID 0000.0001) %MON dynstat_salt_mean            =   7.4692405568915E-01
(PID.TID 0000.0001) %MON dynstat_salt_sd              =   1.9839164021578E-01
(PID.TID 0000.0001) %MON dynstat_salt_del2            =   2.5910243737303E-04
(PID.TID 0000.0001) %MON advcfl_uvel_max              =   2.3097834806443E-02
(PID.TID 0000.0001) %MON advcfl_vvel_max              =   8.4651215664954E-03
(PID.TID 0000.0001) %MON advcfl_wvel_max              =   3.1957187257030E-03
(PID.TID 0000.0001) %MON advcfl_W_hf_max              =   3.3639144481085E-03
(PID.TID 0000.0001) %MON pe_b_mean                    =   2.7022535739693E-07
(PID.TID 0000.0001) %MON ke_max                       =   8.9261588043026E-03
(PID.TID 0000.0001) %MON ke_mean                      =   5.5428133860751E-04
(PID.TID 0000.0001) %MON ke_vol                       =   7.6260000000000E+16
(PID.TID 0000.0001) // =======================================================
(PID.TID 0000.0001) // End MONITOR dynamic field statistics
(PID.TID 0000.0001) // =======================================================
 cg2d: Sum(rhs),rhsMax =   6.21724893790088E-15  2.54025439444061E-03
(PID.TID 0000.0001)      cg2d_init_res =   4.73771411929614E-02
(PID.TID 0000.0001)      cg2d_iters(min,last) =      -1      30
(PID.TID 0000.0001)      cg2d_last_res =   2.22847546083669E-16
(PID.TID 0000.0001) // =======================================================
(PID.TID 0000.0001) // Begin MONITOR dynamic field statistics
(PID.TID 0000.0001) // =======================================================
(PID.TID 0000.0001) %MON time_tsnumber                =                    15
(PID.TID 0000.0001) %MON time_secondsf                =   2.7000000000000E+04
(PID.TID 0000.0001) %MON dynstat_eta_max              =   1.6315474393026E+02
(PID.TID 0000.0001) %MON dynstat_eta_min              =  -1.6277142618016E+02
(PID.TID 0000.0001) %MON dynstat_eta_mean             =  -2.0645161290323E-14
(PID.TID 0000.0001) %MON dynstat_eta_sd               =   1.1487537532904E+02
(PID.TID 0000.0001) %MON dynstat_eta_del2             =   1.8439100921208E-01
(PID.TID 0000.0001) %MON dynstat_uvel_max             =   1.3389494790870E-01
(PID.TID 0000.0001) %MON dynstat_uvel_min             =  -3.2706475994968E-02
(PID.TID 0000.0001) %MON dynstat_uvel_mean            =   4.1776369235255E-05
(PID.TID 0000.0001) %MON dynstat_uvel_sd              =   3.3375809295654E-02
(PID.TID 0000.0001) %MON dynstat_uvel_del2            =   5.1932268244224E-05
(PID.TID 0000.0001) %MON dynstat_vvel_max             =   2.5791446901841E-02
(PID.TID 0000.0001) %MON dynstat_vvel_min             =  -5.9587106320652E-03
(PID.TID 0000.0001) %MON dynstat_vvel_mean            =  -8.9009729064297E-07
(PID.TID 0000.0001) %MON dynstat_vvel_sd              =   6.4427374979410E-03
(PID.TID 0000.0001) %MON dynstat_vvel_del2            =   1.0147666633647E-05
(PID.TID 0000.0001) %MON dynstat_wvel_max             =   1.2047431894347E+00
(PID.TID 0000.0001) %MON dynstat_wvel_min             =  -9.9618551934308E-01
(PID.TID 0000.0001) %MON dynstat_wvel_mean            =  -4.8236358154959E-17
(PID.TID 0000.0001) %MON dynstat_wvel_sd              =   4.1257724250995E-01
(PID.TID 0000.0001) %MON dynstat_wvel_del2            =   7.4137027969735E-03
(PID.TID 0000.0001) %MON dynstat_theta_max            =   2.0567036228008E+01
(PID.TID 0000.0001) %MON dynstat_theta_min            =   1.5558934177926E+01
(PID.TID 0000.0001) %MON dynstat_theta_mean           =   1.7563160570646E+01
(PID.TID 0000.0001) %MON dynstat_theta_sd             =   1.4157838059570E+00
(PID.TID 0000.0001) %MON dynstat_theta_del2           =   1.3267266024838E-04
(PID.TID 0000.0001) %MON dynstat_salt_max             =   9.9786237442035E-01
(PID.TID 0000.0001) %MON dynstat_salt_min             =   4.0494214092942E-01
(PID.TID 0000.0001) %MON dynstat_salt_mean            =   7.4692405522087E-01
(PID.TID 0000.0001) %MON dynstat_salt_sd              =   1.9823223020904E-01
(PID.TID 0000.0001) %MON dynstat_salt_del2            =   2.6154259300919E-04
(PID.TID 0000.0001) %MON advcfl_uvel_max              =   2.4101090623565E-02
(PID.TID 0000.0001) %MON advcfl_vvel_max              =   5.8741079810277E-03
(PID.TID 0000.0001) %MON advcfl_wvel_max              =   2.4789962686707E-03
(PID.TID 0000.0001) %MON advcfl_W_hf_max              =   2.6094697564955E-03
(PID.TID 0000.0001) %MON pe_b_mean                    =   2.6821853367862E-07
(PID.TID 0000.0001) %MON ke_max                       =   9.2974176191888E-03
(PID.TID 0000.0001) %MON ke_mean                      =   5.7697655617838E-04
(PID.TID 0000.0001) %MON ke_vol                       =   7.6260000000000E+16
(PID.TID 0000.0001) // =======================================================
(PID.TID 0000.0001) // End MONITOR dynamic field statistics
(PID.TID 0000.0001) // =======================================================
 cg2d: Sum(rhs),rhsMax =   6.21724893790088E-15  2.56964847752258E-03
(PID.TID 0000.0001)      cg2d_init_res =   4.18093078196754E-02
(PID.TID 0000.0001)      cg2d_iters(min,last) =      -1      30
(PID.TID 0000.0001)      cg2d_last_res =   1.00146163800142E-16
(PID.TID 0000.0001) // =======================================================
(PID.TID 0000.0001) // Begin MONITOR dynamic field statistics
(PID.TID 0000.0001) // =======================================================
(PID.TID 0000.0001) %MON time_tsnumber                =                    16
(PID.TID 0000.0001) %MON time_secondsf                =   2.8800000000000E+04
(PID.TID 0000.0001) %MON dynstat_eta_max              =   1.6273473343592E+02
(PID.TID 0000.0001) %MON dynstat_eta_min              =  -1.6246243671664E+02
(PID.TID 0000.0001) %MON dynstat_eta_mean             =  -3.4408602150538E-14
(PID.TID 0000.0001) %MON dynstat_eta_sd               =   1.1457755685758E+02
(PID.TID 0000.0001) %MON dynstat_eta_del2             =   1.8263225285545E-01
(PID.TID 0000.0001) %MON dynstat_uvel_max             =   1.3729323394930E-01
(PID.TID 0000.0001) %MON dynstat_uvel_min             =  -3.3449674509205E-02
(PID.TID 0000.0001) %MON dynstat_uvel_mean            =   4.1646811330684E-05
(PID.TID 0000.0001) %MON dynstat_uvel_sd              =   3.4201730427974E-02
(PID.TID 0000.0001) %MON dynstat_uvel_del2            =   5.3259559728732E-05
(PID.TID 0000.0001) %MON dynstat_vvel_max             =   1.3616823541640E-02
(PID.TID 0000.0001) %MON dynstat_vvel_min             =  -2.9914519337076E-03
(PID.TID 0000.0001) %MON dynstat_vvel_mean            =  -6.1749064586330E-07
(PID.TID 0000.0001) %MON dynstat_vvel_sd              =   3.3359267502478E-03
(PID.TID 0000.0001) %MON dynstat_vvel_del2            =   9.0954684346329E-06
(PID.TID 0000.0001) %MON dynstat_wvel_max             =   7.7485422499712E-01
(PID.TID 0000.0001) %MON dynstat_wvel_min             =  -5.8074169186747E-01
(PID.TID 0000.0001) %MON dynstat_wvel_mean            =   9.6472716309919E-17
(PID.TID 0000.0001) %MON dynstat_wvel_sd              =   2.1668411060855E-01
(PID.TID 0000.0001) %MON dynstat_wvel_del2            =   7.1122812719645E-03
(PID.TID 0000.0001) %MON dynstat_theta_max            =   2.0566983295116E+01
(PID.TID 0000.0001) %MON dynstat_theta_min            =   1.5558913276459E+01
(PID.TID 0000.0001) %MON dynstat_theta_mean           =   1.7563160570655E+01
(PID.TID 0000.0001) %MON dynstat_theta_sd             =   1.4157836640345E+00
(PID.TID 0000.0001) %MON dynstat_theta_del2           =   1.3227163513711E-04
(PID.TID 0000.0001) %MON dynstat_salt_max             =   9.9773262590350E-01
(PID.TID 0000.0001) %MON dynstat_salt_min             =   4.0554412503467E-01
(PID.TID 0000.0001) %MON dynstat_salt_mean            =   7.4692405485138E-01
(PID.TID 0000.0001) %MON dynstat_salt_sd              =   1.9807315514807E-01
(PID.TID 0000.0001) %MON dynstat_salt_del2            =   2.6394769082206E-04
(PID.TID 0000.0001) %MON advcfl_uvel_max              =   2.4712782110874E-02
(PID.TID 0000.0001) %MON advcfl_vvel_max              =   3.1012874983948E-03
(PID.TID 0000.0001) %MON advcfl_wvel_max              =   1.6863154797678E-03
(PID.TID 0000.0001) %MON advcfl_W_hf_max              =   1.7750689260714E-03
(PID.TID 0000.0001) %MON pe_b_mean                    =   2.6682960437912E-07
(PID.TID 0000.0001) %MON ke_max                       =   9.5175298486566E-03
(PID.TID 0000.0001) %MON ke_mean                      =   5.9024289264689E-04
(PID.TID 0000.0001) %MON ke_vol                       =   7.6260000000000E+16
(PID.TID 0000.0001) // =======================================================
(PID.TID 0000.0001) // End MONITOR dynamic field statistics
(PID.TID 0000.0001) // =======================================================
 cg2d: Sum(rhs),rhsMax =   8.88178419700125E-16  2.56998741968326E-03
(PID.TID 0000.0001)      cg2d_init_res =   4.83767146787147E-02
(PID.TID 0000.0001)      cg2d_iters(min,last) =      -1      30
(PID.TID 0000.0001)      cg2d_last_res =   1.07696356171444E-16
(PID.TID 0000.0001) // =======================================================
(PID.TID 0000.0001) // Begin MONITOR dynamic field statistics
(PID.TID 0000.0001) // =======================================================
(PID.TID 0000.0001) %MON time_tsnumber                =                    17
(PID.TID 0000.0001) %MON time_secondsf                =   3.0600000000000E+04
(PID.TID 0000.0001) %MON dynstat_eta_max              =   1.6251370721772E+02
(PID.TID 0000.0001) %MON dynstat_eta_min              =  -1.6230415715431E+02
(PID.TID 0000.0001) %MON dynstat_eta_mean             =  -6.8817204301075E-15
(PID.TID 0000.0001) %MON dynstat_eta_sd               =   1.1441935875185E+02
(PID.TID 0000.0001) %MON dynstat_eta_del2             =   1.8143759103706E-01
(PID.TID 0000.0001) %MON dynstat_uvel_max             =   1.3841520107947E-01
(PID.TID 0000.0001) %MON dynstat_uvel_min             =  -3.3623261573932E-02
(PID.TID 0000.0001) %MON dynstat_uvel_mean            =   4.1567638618372E-05
(PID.TID 0000.0001) %MON dynstat_uvel_sd              =   3.4456817545039E-02
(PID.TID 0000.0001) %MON dynstat_uvel_del2            =   5.3680418928927E-05
(PID.TID 0000.0001) %MON dynstat_vvel_max             =   1.2645502973591E-03
(PID.TID 0000.0001) %MON dynstat_vvel_min             =  -1.8691648153233E-03
(PID.TID 0000.0001) %MON dynstat_vvel_mean            =  -3.2727629161960E-07
(PID.TID 0000.0001) %MON dynstat_vvel_sd              =   3.1738230462167E-04
(PID.TID 0000.0001) %MON dynstat_vvel_del2            =   8.4842392009777E-06
(PID.TID 0000.0001) %MON dynstat_wvel_max             =   3.5543094859249E-01
(PID.TID 0000.0001) %MON dynstat_wvel_min             =  -3.7877295219203E-01
(PID.TID 0000.0001) %MON dynstat_wvel_mean            =   3.7684654808562E-18
(PID.TID 0000.0001) %MON dynstat_wvel_sd              =   6.2763699687298E-02
(PID.TID 0000.0001) %MON dynstat_wvel_del2            =   6.6830845044281E-03
(PID.TID 0000.0001) %MON dynstat_theta_max            =   2.0566940932555E+01
(PID.TID 0000.0001) %MON dynstat_theta_min            =   1.5558919520710E+01
(PID.TID 0000.0001) %MON dynstat_theta_mean           =   1.7563160570660E+01
(PID.TID 0000.0001) %MON dynstat_theta_sd             =   1.4157835225732E+00
(PID.TID 0000.0001) %MON dynstat_theta_del2           =   1.3194569346425E-04
(PID.TID 0000.0001) %MON dynstat_salt_max             =   9.9760639056448E-01
(PID.TID 0000.0001) %MON dynstat_salt_min             =   4.0614221620676E-01
(PID.TID 0000.0001) %MON dynstat_salt_mean            =   7.4692405462387E-01
(PID.TID 0000.0001) %MON dynstat_salt_sd              =   1.9791440669415E-01
(PID.TID 0000.0001) %MON dynstat_salt_del2            =   2.6631227220829E-04
(PID.TID 0000.0001) %MON advcfl_uvel_max              =   2.4914736194305E-02
(PID.TID 0000.0001) %MON advcfl_vvel_max              =   3.0009832210493E-04
(PID.TID 0000.0001) %MON advcfl_wvel_max              =   8.8084416422150E-04
(PID.TID 0000.0001) %MON advcfl_W_hf_max              =   9.1472278592233E-04
(PID.TID 0000.0001) %MON pe_b_mean                    =   2.6609328571514E-07
(PID.TID 0000.0001) %MON ke_max                       =   9.5799250752278E-03
(PID.TID 0000.0001) %MON ke_mean                      =   5.9368554475092E-04
(PID.TID 0000.0001) %MON ke_vol                       =   7.6260000000000E+16
(PID.TID 0000.0001) // =======================================================
(PID.TID 0000.0001) // End MONITOR dynamic field statistics
(PID.TID 0000.0001) // =======================================================
 cg2d: Sum(rhs),rhsMax =  -3.55271367880050E-15  2.54211366915320E-03
(PID.TID 0000.0001)      cg2d_init_res =   6.02779774349597E-02
(PID.TID 0000.0001)      cg2d_iters(min,last) =      -1      30
(PID.TID 0000.0001)      cg2d_last_res =   2.71251803559455E-16
(PID.TID 0000.0001) // =======================================================
(PID.TID 0000.0001) // Begin MONITOR dynamic field statistics
(PID.TID 0000.0001) // =======================================================
(PID.TID 0000.0001) %MON time_tsnumber                =                    18
(PID.TID 0000.0001) %MON time_secondsf                =   3.2400000000000E+04
(PID.TID 0000.0001) %MON dynstat_eta_max              =   1.6249861244781E+02
(PID.TID 0000.0001) %MON dynstat_eta_min              =  -1.6229822941607E+02
(PID.TID 0000.0001) %MON dynstat_eta_mean             =  -2.0645161290323E-14
(PID.TID 0000.0001) %MON dynstat_eta_sd               =   1.1440449032774E+02
(PID.TID 0000.0001) %MON dynstat_eta_del2             =   1.8098583468987E-01
(PID.TID 0000.0001) %MON dynstat_uvel_max             =   1.3723711846443E-01
(PID.TID 0000.0001) %MON dynstat_uvel_min             =  -3.3224740030371E-02
(PID.TID 0000.0001) %MON dynstat_uvel_mean            =   4.1540936702355E-05
(PID.TID 0000.0001) %MON dynstat_uvel_sd              =   3.4135922464944E-02
(PID.TID 0000.0001) %MON dynstat_uvel_del2            =   5.3179376777210E-05
(PID.TID 0000.0001) %MON dynstat_vvel_max             =   3.4277586728647E-03
(PID.TID 0000.0001) %MON dynstat_vvel_min             =  -1.1486782404111E-02
(PID.TID 0000.0001) %MON dynstat_vvel_mean            =  -2.9394278148053E-08
(PID.TID 0000.0001) %MON dynstat_vvel_sd              =   3.0887683830698E-03
(PID.TID 0000.0001) %MON dynstat_vvel_del2            =   8.4766499306984E-06
(PID.TID 0000.0001) %MON dynstat_wvel_max             =   6.1055392604785E-01
(PID.TID 0000.0001) %MON dynstat_wvel_min             =  -7.4349679523724E-01
(PID.TID 0000.0001) %MON dynstat_wvel_mean            =   1.2059089538740E-16
(PID.TID 0000.0001) %MON dynstat_wvel_sd              =   2.1323663539948E-01
(PID.TID 0000.0001) %MON dynstat_wvel_del2            =   6.1334287122090E-03
(PID.TID 0000.0001) %MON dynstat_theta_max            =   2.0566908658756E+01
(PID.TID 0000.0001) %MON dynstat_theta_min            =   1.5558952695106E+01
(PID.TID 0000.0001) %MON dynstat_theta_mean           =   1.7563160570661E+01
(PID.TID 0000.0001) %MON dynstat_theta_sd             =   1.4157833814725E+00
(PID.TID 0000.0001) %MON dynstat_theta_del2           =   1.3170186976014E-04
(PID.TID 0000.0001) %MON dynstat_salt_max             =   9.9748374488876E-01
(PID.TID 0000.0001) %MON dynstat_salt_min             =   4.0673642486540E-01
(PID.TID 0000.0001) %MON dynstat_salt_mean            =   7.4692405455982E-01
(PID.TID 0000.0001) %MON dynstat_salt_sd              =   1.9775597674871E-01
(PID.TID 0000.0001) %MON dynstat_salt_del2            =   2.6863190332702E-04
(PID.TID 0000.0001) %MON advcfl_uvel_max              =   2.4702681323597E-02
(PID.TID 0000.0001) %MON advcfl_vvel_max              =   2.6161618792896E-03
(PID.TID 0000.0001) %MON advcfl_wvel_max              =   1.5792924247090E-03
(PID.TID 0000.0001) %MON advcfl_W_hf_max              =   1.6624130786411E-03
(PID.TID 0000.0001) %MON pe_b_mean                    =   2.6602413429167E-07
(PID.TID 0000.0001) %MON ke_max                       =   9.4831528244571E-03
(PID.TID 0000.0001) %MON ke_mean                      =   5.8722908083389E-04
(PID.TID 0000.0001) %MON ke_vol                       =   7.6260000000000E+16
(PID.TID 0000.0001) // =======================================================
(PID.TID 0000.0001) // End MONITOR dynamic field statistics
(PID.TID 0000.0001) // =======================================================
 cg2d: Sum(rhs),rhsMax =  -6.21724893790088E-15  2.48923711098306E-03
(PID.TID 0000.0001)      cg2d_init_res =   7.21506564797264E-02
(PID.TID 0000.0001)      cg2d_iters(min,last) =      -1      30
(PID.TID 0000.0001)      cg2d_last_res =   4.07792251450134E-16
(PID.TID 0000.0001) // =======================================================
(PID.TID 0000.0001) // Begin MONITOR dynamic field statistics
(PID.TID 0000.0001) // =======================================================
(PID.TID 0000.0001) %MON time_tsnumber                =                    19
(PID.TID 0000.0001) %MON time_secondsf                =   3.4200000000000E+04
(PID.TID 0000.0001) %MON dynstat_eta_max              =   1.6268700954291E+02
(PID.TID 0000.0001) %MON dynstat_eta_min              =  -1.6244486327879E+02
(PID.TID 0000.0001) %MON dynstat_eta_mean             =  -1.3763440860215E-14
(PID.TID 0000.0001) %MON dynstat_eta_sd               =   1.1453180214963E+02
(PID.TID 0000.0001) %MON dynstat_eta_del2             =   1.8140468891037E-01
(PID.TID 0000.0001) %MON dynstat_uvel_max             =   1.3381278064459E-01
(PID.TID 0000.0001) %MON dynstat_uvel_min             =  -3.2271307219665E-02
(PID.TID 0000.0001) %MON dynstat_uvel_mean            =   4.1567002799145E-05
(PID.TID 0000.0001) %MON dynstat_uvel_sd              =   3.3253426732126E-02
(PID.TID 0000.0001) %MON dynstat_uvel_del2            =   5.1773766667368E-05
(PID.TID 0000.0001) %MON dynstat_vvel_max             =   6.3903595513057E-03
(PID.TID 0000.0001) %MON dynstat_vvel_min             =  -2.3525288097754E-02
(PID.TID 0000.0001) %MON dynstat_vvel_mean            =   2.6603447996300E-07
(PID.TID 0000.0001) %MON dynstat_vvel_sd              =   6.1489808816108E-03
(PID.TID 0000.0001) %MON dynstat_vvel_del2            =   9.0506185318172E-06
(PID.TID 0000.0001) %MON dynstat_wvel_max             =   9.5607357644448E-01
(PID.TID 0000.0001) %MON dynstat_wvel_min             =  -1.0915692987115E+00
(PID.TID 0000.0001) %MON dynstat_wvel_mean            =   7.2354537232439E-17
(PID.TID 0000.0001) %MON dynstat_wvel_sd              =   4.0547333168589E-01
(PID.TID 0000.0001) %MON dynstat_wvel_del2            =   5.4723768186793E-03
(PID.TID 0000.0001) %MON dynstat_theta_max            =   2.0566885627517E+01
(PID.TID 0000.0001) %MON dynstat_theta_min            =   1.5559011383492E+01
(PID.TID 0000.0001) %MON dynstat_theta_mean           =   1.7563160570657E+01
(PID.TID 0000.0001) %MON dynstat_theta_sd             =   1.4157832406275E+00
(PID.TID 0000.0001) %MON dynstat_theta_del2           =   1.3154458239271E-04
(PID.TID 0000.0001) %MON dynstat_salt_max             =   9.9736458739071E-01
(PID.TID 0000.0001) %MON dynstat_salt_min             =   4.0732661720278E-01
(PID.TID 0000.0001) %MON dynstat_salt_mean            =   7.4692405465655E-01
(PID.TID 0000.0001) %MON dynstat_salt_sd              =   1.9759785751940E-01
(PID.TID 0000.0001) %MON dynstat_salt_del2            =   2.7090306015436E-04
(PID.TID 0000.0001) %MON advcfl_uvel_max              =   2.4086300516026E-02
(PID.TID 0000.0001) %MON advcfl_vvel_max              =   5.3579810042038E-03
(PID.TID 0000.0001) %MON advcfl_wvel_max              =   2.2390484704719E-03
(PID.TID 0000.0001) %MON advcfl_W_hf_max              =   2.3568931268126E-03
(PID.TID 0000.0001) %MON pe_b_mean                    =   2.6661653869191E-07
(PID.TID 0000.0001) %MON ke_max                       =   9.2308826996996E-03
(PID.TID 0000.0001) %MON ke_mean                      =   5.7111689740872E-04
(PID.TID 0000.0001) %MON ke_vol                       =   7.6260000000000E+16
(PID.TID 0000.0001) // =======================================================
(PID.TID 0000.0001) // End MONITOR dynamic field statistics
(PID.TID 0000.0001) // =======================================================
 cg2d: Sum(rhs),rhsMax =   0.00000000000000E+00  2.41640990635804E-03
(PID.TID 0000.0001)      cg2d_init_res =   8.17476564389256E-02
(PID.TID 0000.0001)      cg2d_iters(min,last) =      -1      30
(PID.TID 0000.0001)      cg2d_last_res =   4.88169197879869E-16
(PID.TID 0000.0001) // =======================================================
(PID.TID 0000.0001) // Begin MONITOR dynamic field statistics
(PID.TID 0000.0001) // =======================================================
(PID.TID 0000.0001) %MON time_tsnumber                =                    20
(PID.TID 0000.0001) %MON time_secondsf                =   3.6000000000000E+04
(PID.TID 0000.0001) %MON dynstat_eta_max              =   1.6306719868289E+02
(PID.TID 0000.0001) %MON dynstat_eta_min              =  -1.6274240666392E+02
(PID.TID 0000.0001) %MON dynstat_eta_mean             =  -6.1935483870968E-14
(PID.TID 0000.0001) %MON dynstat_eta_sd               =   1.1479536153029E+02
(PID.TID 0000.0001) %MON dynstat_eta_del2             =   1.8272625252869E-01
(PID.TID 0000.0001) %MON dynstat_uvel_max             =   1.2827120361746E-01
(PID.TID 0000.0001) %MON dynstat_uvel_min             =  -3.0799138160037E-02
(PID.TID 0000.0001) %MON dynstat_uvel_mean            =   4.1644351963983E-05
(PID.TID 0000.0001) %MON dynstat_uvel_sd              =   3.1842632279546E-02
(PID.TID 0000.0001) %MON dynstat_uvel_del2            =   4.9513309901989E-05
(PID.TID 0000.0001) %MON dynstat_vvel_max             =   9.1175332018843E-03
(PID.TID 0000.0001) %MON dynstat_vvel_min             =  -3.4697613401292E-02
(PID.TID 0000.0001) %MON dynstat_vvel_mean            =   5.4904721820748E-07
(PID.TID 0000.0001) %MON dynstat_vvel_sd              =   8.9873474633340E-03
(PID.TID 0000.0001) %MON dynstat_vvel_del2            =   1.0017278229278E-05
(PID.TID 0000.0001) %MON dynstat_wvel_max             =   1.2764441994277E+00
(PID.TID 0000.0001) %MON dynstat_wvel_min             =  -1.4041107804807E+00
(PID.TID 0000.0001) %MON dynstat_wvel_mean            =   4.8236358154959E-17
(PID.TID 0000.0001) %MON dynstat_wvel_sd              =   5.8592318723829E-01
(PID.TID 0000.0001) %MON dynstat_wvel_del2            =   4.7213196165339E-03
(PID.TID 0000.0001) %MON dynstat_theta_max            =   2.0566870660733E+01
(PID.TID 0000.0001) %MON dynstat_theta_min            =   1.5559081869525E+01
(PID.TID 0000.0001) %MON dynstat_theta_mean           =   1.7563160570649E+01
(PID.TID 0000.0001) %MON dynstat_theta_sd             =   1.4157830999419E+00
(PID.TID 0000.0001) %MON dynstat_theta_del2           =   1.3147611667990E-04
(PID.TID 0000.0001) %MON dynstat_salt_max             =   9.9724865149694E-01
(PID.TID 0000.0001) %MON dynstat_salt_min             =   4.0791253081147E-01
(PID.TID 0000.0001) %MON dynstat_salt_mean            =   7.4692405488804E-01
(PID.TID 0000.0001) %MON dynstat_salt_sd              =   1.9744004158435E-01
(PID.TID 0000.0001) %MON dynstat_salt_del2            =   2.7312302571347E-04
(PID.TID 0000.0001) %MON advcfl_uvel_max              =   2.3088816651143E-02
(PID.TID 0000.0001) %MON advcfl_vvel_max              =   7.9025239870740E-03
(PID.TID 0000.0001) %MON advcfl_wvel_max              =   2.8140710606713E-03
(PID.TID 0000.0001) %MON advcfl_W_hf_max              =   2.9621800638646E-03
(PID.TID 0000.0001) %MON pe_b_mean                    =   2.6784502091197E-07
(PID.TID 0000.0001) %MON ke_max                       =   8.8317671476108E-03
(PID.TID 0000.0001) %MON ke_mean                      =   5.4590217087725E-04
(PID.TID 0000.0001) %MON ke_vol                       =   7.6260000000000E+16
(PID.TID 0000.0001) // =======================================================
(PID.TID 0000.0001) // End MONITOR dynamic field statistics
(PID.TID 0000.0001) // =======================================================
(PID.TID 0000.0001) DIAGSTATS_CLOSE_IO: close file: dynStDiag.0000000000.txt , unit=     9
(PID.TID 0000.0001) %CHECKPOINT        20 ckptA
(PID.TID 0000.0001)   Seconds in section "ALL                    [THE_MODEL_MAIN]":
(PID.TID 0000.0001)           User time:  0.95919099915772676
(PID.TID 0000.0001)         System time:   1.8319999799132347E-002
(PID.TID 0000.0001)     Wall clock time:  0.99366402626037598
(PID.TID 0000.0001)          No. starts:           1
(PID.TID 0000.0001)           No. stops:           1
(PID.TID 0000.0001)   Seconds in section "INITIALISE_FIXED       [THE_MODEL_MAIN]":
(PID.TID 0000.0001)           User time:   2.6780999731272459E-002
(PID.TID 0000.0001)         System time:   4.3759997934103012E-003
(PID.TID 0000.0001)     Wall clock time:   3.9675951004028320E-002
(PID.TID 0000.0001)          No. starts:           1
(PID.TID 0000.0001)           No. stops:           1
(PID.TID 0000.0001)   Seconds in section "THE_MAIN_LOOP          [THE_MODEL_MAIN]":
(PID.TID 0000.0001)           User time:  0.93233999982476234
(PID.TID 0000.0001)         System time:   1.3936000410467386E-002
(PID.TID 0000.0001)     Wall clock time:  0.95392322540283203
(PID.TID 0000.0001)          No. starts:           1
(PID.TID 0000.0001)           No. stops:           1
(PID.TID 0000.0001)   Seconds in section "INITIALISE_VARIA    [THE_MAIN_LOOP]":
(PID.TID 0000.0001)           User time:   9.3890000134706497E-003
(PID.TID 0000.0001)         System time:   8.9699998497962952E-003
(PID.TID 0000.0001)     Wall clock time:   2.6005029678344727E-002
(PID.TID 0000.0001)          No. starts:           1
(PID.TID 0000.0001)           No. stops:           1
(PID.TID 0000.0001)   Seconds in section "MAIN LOOP           [THE_MAIN_LOOP]":
(PID.TID 0000.0001)           User time:  0.92292400076985359
(PID.TID 0000.0001)         System time:   4.9520004540681839E-003
(PID.TID 0000.0001)     Wall clock time:  0.92788004875183105
(PID.TID 0000.0001)          No. starts:           1
(PID.TID 0000.0001)           No. stops:           1
(PID.TID 0000.0001)   Seconds in section "MAIN_DO_LOOP        [THE_MAIN_LOOP]":
(PID.TID 0000.0001)           User time:  0.92274290695786476
(PID.TID 0000.0001)         System time:   4.9400003626942635E-003
(PID.TID 0000.0001)     Wall clock time:  0.92768740653991699
(PID.TID 0000.0001)          No. starts:          20
(PID.TID 0000.0001)           No. stops:          20
(PID.TID 0000.0001)   Seconds in section "FORWARD_STEP        [MAIN_DO_LOOP]":
(PID.TID 0000.0001)           User time:  0.92238203436136246
(PID.TID 0000.0001)         System time:   4.9250004813075066E-003
(PID.TID 0000.0001)     Wall clock time:  0.92731118202209473
(PID.TID 0000.0001)          No. starts:          20
(PID.TID 0000.0001)           No. stops:          20
(PID.TID 0000.0001)   Seconds in section "DO_STATEVARS_DIAGS  [FORWARD_STEP]":
(PID.TID 0000.0001)           User time:   8.9309327304363251E-003
(PID.TID 0000.0001)         System time:   3.0799861997365952E-004
(PID.TID 0000.0001)     Wall clock time:   9.2704296112060547E-003
(PID.TID 0000.0001)          No. starts:          60
(PID.TID 0000.0001)           No. stops:          60
(PID.TID 0000.0001)   Seconds in section "LOAD_FIELDS_DRIVER  [FORWARD_STEP]":
(PID.TID 0000.0001)           User time:   5.6392326951026917E-004
(PID.TID 0000.0001)         System time:   1.4999881386756897E-005
(PID.TID 0000.0001)     Wall clock time:   5.7673454284667969E-004
(PID.TID 0000.0001)          No. starts:          20
(PID.TID 0000.0001)           No. stops:          20
(PID.TID 0000.0001)   Seconds in section "EXTERNAL_FLDS_LOAD [LOAD_FLDS_DRIVER]":
(PID.TID 0000.0001)           User time:   1.8992274999618530E-004
(PID.TID 0000.0001)         System time:   5.9995800256729126E-006
(PID.TID 0000.0001)     Wall clock time:   1.9860267639160156E-004
(PID.TID 0000.0001)          No. starts:          20
(PID.TID 0000.0001)           No. stops:          20
(PID.TID 0000.0001)   Seconds in section "DO_ATMOSPHERIC_PHYS [FORWARD_STEP]":
(PID.TID 0000.0001)           User time:   1.8103048205375671E-004
(PID.TID 0000.0001)         System time:   4.0000304579734802E-006
(PID.TID 0000.0001)     Wall clock time:   1.8763542175292969E-004
(PID.TID 0000.0001)          No. starts:          20
(PID.TID 0000.0001)           No. stops:          20
(PID.TID 0000.0001)   Seconds in section "DO_OCEANIC_PHYS     [FORWARD_STEP]":
(PID.TID 0000.0001)           User time:  0.15525800362229347
(PID.TID 0000.0001)         System time:   0.0000000000000000
(PID.TID 0000.0001)     Wall clock time:  0.15528273582458496
(PID.TID 0000.0001)          No. starts:          20
(PID.TID 0000.0001)           No. stops:          20
(PID.TID 0000.0001)   Seconds in section "DYNAMICS            [FORWARD_STEP]":
(PID.TID 0000.0001)           User time:  0.24476902559399605
(PID.TID 0000.0001)         System time:   0.0000000000000000
(PID.TID 0000.0001)     Wall clock time:  0.24479484558105469
(PID.TID 0000.0001)          No. starts:          20
(PID.TID 0000.0001)           No. stops:          20
(PID.TID 0000.0001)   Seconds in section "SOLVE_FOR_PRESSURE  [FORWARD_STEP]":
(PID.TID 0000.0001)           User time:   1.8468029797077179E-002
(PID.TID 0000.0001)         System time:   0.0000000000000000
(PID.TID 0000.0001)     Wall clock time:   1.8483400344848633E-002
(PID.TID 0000.0001)          No. starts:          20
(PID.TID 0000.0001)           No. stops:          20
(PID.TID 0000.0001)   Seconds in section "MOM_CORRECTION_STEP [FORWARD_STEP]":
(PID.TID 0000.0001)           User time:   1.1836066842079163E-002
(PID.TID 0000.0001)         System time:   0.0000000000000000
(PID.TID 0000.0001)     Wall clock time:   1.1856555938720703E-002
(PID.TID 0000.0001)          No. starts:          20
(PID.TID 0000.0001)           No. stops:          20
(PID.TID 0000.0001)   Seconds in section "INTEGR_CONTINUITY   [FORWARD_STEP]":
(PID.TID 0000.0001)           User time:   7.2490051388740540E-003
(PID.TID 0000.0001)         System time:   3.6999955773353577E-004
(PID.TID 0000.0001)     Wall clock time:   7.6277256011962891E-003
(PID.TID 0000.0001)          No. starts:          20
(PID.TID 0000.0001)           No. stops:          20
(PID.TID 0000.0001)   Seconds in section "BLOCKING_EXCHANGES  [FORWARD_STEP]":
(PID.TID 0000.0001)           User time:   3.3607967197895050E-002
(PID.TID 0000.0001)         System time:   1.0639997199177742E-003
(PID.TID 0000.0001)     Wall clock time:   3.4691810607910156E-002
(PID.TID 0000.0001)          No. starts:          40
(PID.TID 0000.0001)           No. stops:          40
(PID.TID 0000.0001)   Seconds in section "THERMODYNAMICS      [FORWARD_STEP]":
(PID.TID 0000.0001)           User time:  0.40937489271163940
(PID.TID 0000.0001)         System time:   1.0009994730353355E-003
(PID.TID 0000.0001)     Wall clock time:  0.41040802001953125
(PID.TID 0000.0001)          No. starts:          20
(PID.TID 0000.0001)           No. stops:          20
(PID.TID 0000.0001)   Seconds in section "TRC_CORRECTION_STEP [FORWARD_STEP]":
(PID.TID 0000.0001)           User time:   1.9409507513046265E-004
(PID.TID 0000.0001)         System time:   0.0000000000000000
(PID.TID 0000.0001)     Wall clock time:   1.9955635070800781E-004
(PID.TID 0000.0001)          No. starts:          20
(PID.TID 0000.0001)           No. stops:          20
(PID.TID 0000.0001)   Seconds in section "MONITOR             [FORWARD_STEP]":
(PID.TID 0000.0001)           User time:   2.3342072963714600E-002
(PID.TID 0000.0001)         System time:   0.0000000000000000
(PID.TID 0000.0001)     Wall clock time:   2.3356676101684570E-002
(PID.TID 0000.0001)          No. starts:          20
(PID.TID 0000.0001)           No. stops:          20
(PID.TID 0000.0001)   Seconds in section "DO_THE_MODEL_IO     [FORWARD_STEP]":
(PID.TID 0000.0001)           User time:   4.8660561442375183E-003
(PID.TID 0000.0001)         System time:   1.3750009238719940E-003
(PID.TID 0000.0001)     Wall clock time:   6.2468051910400391E-003
(PID.TID 0000.0001)          No. starts:          20
(PID.TID 0000.0001)           No. stops:          20
(PID.TID 0000.0001)   Seconds in section "DO_WRITE_PICKUP     [FORWARD_STEP]":
(PID.TID 0000.0001)           User time:   1.7394125461578369E-004
(PID.TID 0000.0001)         System time:   6.9699995219707489E-004
(PID.TID 0000.0001)     Wall clock time:   8.6784362792968750E-004
(PID.TID 0000.0001)          No. starts:          20
(PID.TID 0000.0001)           No. stops:          20
(PID.TID 0000.0001) // ======================================================
(PID.TID 0000.0001) // Tile <-> Tile communication statistics
(PID.TID 0000.0001) // ======================================================
(PID.TID 0000.0001) // o Tile number: 000001
(PID.TID 0000.0001) //         No. X exchanges =              0
(PID.TID 0000.0001) //            Max. X spins =              0
(PID.TID 0000.0001) //            Min. X spins =     1000000000
(PID.TID 0000.0001) //          Total. X spins =              0
(PID.TID 0000.0001) //            Avg. X spins =       0.00E+00
(PID.TID 0000.0001) //         No. Y exchanges =              0
(PID.TID 0000.0001) //            Max. Y spins =              0
(PID.TID 0000.0001) //            Min. Y spins =     1000000000
(PID.TID 0000.0001) //          Total. Y spins =              0
(PID.TID 0000.0001) //            Avg. Y spins =       0.00E+00
(PID.TID 0000.0001) // o Tile number: 000002
(PID.TID 0000.0001) //         No. X exchanges =              0
(PID.TID 0000.0001) //            Max. X spins =              0
(PID.TID 0000.0001) //            Min. X spins =     1000000000
(PID.TID 0000.0001) //          Total. X spins =              0
(PID.TID 0000.0001) //            Avg. X spins =       0.00E+00
(PID.TID 0000.0001) //         No. Y exchanges =              0
(PID.TID 0000.0001) //            Max. Y spins =              0
(PID.TID 0000.0001) //            Min. Y spins =     1000000000
(PID.TID 0000.0001) //          Total. Y spins =              0
(PID.TID 0000.0001) //            Avg. Y spins =       0.00E+00
(PID.TID 0000.0001) // o Thread number: 000001
(PID.TID 0000.0001) //            No. barriers =          10426
(PID.TID 0000.0001) //      Max. barrier spins =              1
(PID.TID 0000.0001) //      Min. barrier spins =              1
(PID.TID 0000.0001) //     Total barrier spins =          10426
(PID.TID 0000.0001) //      Avg. barrier spins =       1.00E+00
PROGRAM MAIN: Execution ended Normally
