(PID.TID 0000.0001) 
(PID.TID 0000.0001) // ======================================================
(PID.TID 0000.0001) //                      MITgcm UV
(PID.TID 0000.0001) //                      =========
(PID.TID 0000.0001) // ======================================================
(PID.TID 0000.0001) // execution environment starting up...
(PID.TID 0000.0001) 
(PID.TID 0000.0001) // MITgcmUV version:  checkpoint68f
(PID.TID 0000.0001) // Build user:        jm_c
(PID.TID 0000.0001) // Build host:        villon
(PID.TID 0000.0001) // Build date:        Tue Jan 25 09:48:05 EST 2022
(PID.TID 0000.0001) 
(PID.TID 0000.0001) // =======================================================
(PID.TID 0000.0001) // Execution Environment parameter file "eedata"
(PID.TID 0000.0001) // =======================================================
(PID.TID 0000.0001) ># Example "eedata" file
(PID.TID 0000.0001) ># Lines beginning "#" are comments
(PID.TID 0000.0001) >#  nTx      :: No. threads per process in X
(PID.TID 0000.0001) >#  nTy      :: No. threads per process in Y
(PID.TID 0000.0001) ># debugMode :: print debug msg (sequence of S/R calls)
(PID.TID 0000.0001) > &EEPARMS
(PID.TID 0000.0001) > /
(PID.TID 0000.0001) ># Note: Some systems use & as the namelist terminator (as shown here).
(PID.TID 0000.0001) >#       Other systems use a / character.
(PID.TID 0000.0001) 
(PID.TID 0000.0001) // =======================================================
(PID.TID 0000.0001) // Computational Grid Specification ( see files "SIZE.h" )
(PID.TID 0000.0001) //                                  ( and "eedata"       )
(PID.TID 0000.0001) // =======================================================
(PID.TID 0000.0001)      nPx =    1 ; /* No. processes in X */
(PID.TID 0000.0001)      nPy =    1 ; /* No. processes in Y */
(PID.TID 0000.0001)      nSx =    1 ; /* No. tiles in X per process */
(PID.TID 0000.0001)      nSy =    2 ; /* No. tiles in Y per process */
(PID.TID 0000.0001)      sNx =    1 ; /* Tile size in X */
(PID.TID 0000.0001)      sNy =   16 ; /* Tile size in Y */
(PID.TID 0000.0001)      OLx =    3 ; /* Tile overlap distance in X */
(PID.TID 0000.0001)      OLy =    3 ; /* Tile overlap distance in Y */
(PID.TID 0000.0001)      nTx =    1 ; /* No. threads in X per process */
(PID.TID 0000.0001)      nTy =    1 ; /* No. threads in Y per process */
(PID.TID 0000.0001)       Nr =   25 ; /* No. levels in the vertical   */
(PID.TID 0000.0001)       Nx =    1 ; /* Total domain size in X ( = nPx*nSx*sNx ) */
(PID.TID 0000.0001)       Ny =   32 ; /* Total domain size in Y ( = nPy*nSy*sNy ) */
(PID.TID 0000.0001)   nTiles =    2 ; /* Total no. tiles per process ( = nSx*nSy ) */
(PID.TID 0000.0001)   nProcs =    1 ; /* Total no. processes ( = nPx*nPy ) */
(PID.TID 0000.0001) nThreads =    1 ; /* Total no. threads per process ( = nTx*nTy ) */
(PID.TID 0000.0001) usingMPI =    F ; /* Flag used to control whether MPI is in use */
(PID.TID 0000.0001)                   /*  note: To execute a program with MPI calls */
(PID.TID 0000.0001)                   /*  it must be launched appropriately e.g     */
(PID.TID 0000.0001)                   /*  "mpirun -np 64 ......"                    */
(PID.TID 0000.0001) useCoupler=   F ; /* Flag used to control communications with   */
(PID.TID 0000.0001)                   /*  other model components, through a coupler */
(PID.TID 0000.0001) useNest2W_parent =    F ;/* Control 2-W Nesting comm */
(PID.TID 0000.0001) useNest2W_child  =    F ;/* Control 2-W Nesting comm */
(PID.TID 0000.0001) debugMode =    F ; /* print debug msg. (sequence of S/R calls)  */
(PID.TID 0000.0001) printMapIncludesZeros=    F ; /* print zeros in Std.Output maps */
(PID.TID 0000.0001) maxLengthPrt1D=   65 /* maxLength of 1D array printed to StdOut */
(PID.TID 0000.0001) 
(PID.TID 0000.0001) // ======================================================
(PID.TID 0000.0001) // Mapping of tiles to threads
(PID.TID 0000.0001) // ======================================================
(PID.TID 0000.0001) // -o- Thread   1, tiles (   1:   1,   1:   2)
(PID.TID 0000.0001) 
(PID.TID 0000.0001) // ======================================================
(PID.TID 0000.0001) // Tile <-> Tile connectvity table
(PID.TID 0000.0001) // ======================================================
(PID.TID 0000.0001) // Tile number: 000001 (process no. = 000000)
(PID.TID 0000.0001) //        WEST: Tile = 000001, Process = 000000, Comm = put
(PID.TID 0000.0001) //                bi = 000001, bj = 000001
(PID.TID 0000.0001) //        EAST: Tile = 000001, Process = 000000, Comm = put
(PID.TID 0000.0001) //                bi = 000001, bj = 000001
(PID.TID 0000.0001) //       SOUTH: Tile = 000002, Process = 000000, Comm = put
(PID.TID 0000.0001) //                bi = 000001, bj = 000002
(PID.TID 0000.0001) //       NORTH: Tile = 000002, Process = 000000, Comm = put
(PID.TID 0000.0001) //                bi = 000001, bj = 000002
(PID.TID 0000.0001) // Tile number: 000002 (process no. = 000000)
(PID.TID 0000.0001) //        WEST: Tile = 000002, Process = 000000, Comm = put
(PID.TID 0000.0001) //                bi = 000001, bj = 000002
(PID.TID 0000.0001) //        EAST: Tile = 000002, Process = 000000, Comm = put
(PID.TID 0000.0001) //                bi = 000001, bj = 000002
(PID.TID 0000.0001) //       SOUTH: Tile = 000001, Process = 000000, Comm = put
(PID.TID 0000.0001) //                bi = 000001, bj = 000001
(PID.TID 0000.0001) //       NORTH: Tile = 000001, Process = 000000, Comm = put
(PID.TID 0000.0001) //                bi = 000001, bj = 000001
(PID.TID 0000.0001) 
(PID.TID 0000.0001)  INI_PARMS: opening model parameter file "data"
(PID.TID 0000.0001)  OPEN_COPY_DATA_FILE: opening file data
(PID.TID 0000.0001) // =======================================================
(PID.TID 0000.0001) // Parameter file "data"
(PID.TID 0000.0001) // =======================================================
(PID.TID 0000.0001) ># ====================
(PID.TID 0000.0001) ># | Model parameters |
(PID.TID 0000.0001) ># ====================
(PID.TID 0000.0001) >#
(PID.TID 0000.0001) ># Continuous equation parameters
(PID.TID 0000.0001) > &PARM01
(PID.TID 0000.0001) > tRef= 10*10.0, 9.9, 9.8, 9.7, 9.5, 9.4, 9.2, 9.0, 8.7, 8.4, 8.0, 7.6, 7.1, 6.5, 5.8, 5.2,
(PID.TID 0000.0001) > viscAr=2.E-4,
(PID.TID 0000.0001) > viscA4=12.E5,
(PID.TID 0000.0001) > no_slip_sides=.FALSE.,
(PID.TID 0000.0001) > no_slip_bottom=.TRUE.,
(PID.TID 0000.0001) > bottomDragLinear=1.E-3,
(PID.TID 0000.0001) >#bottomDragQuadratic=1.E-3,
(PID.TID 0000.0001) > diffKrT=2.E-5,
(PID.TID 0000.0001) > diffKrS=2.E-5,
(PID.TID 0000.0001) >#diffKrNrT=6*1.E-2, 19*2.E-5,
(PID.TID 0000.0001) >#diffKrNrS=6*1.E-2, 19*2.E-5,
(PID.TID 0000.0001) > diffKhT=0.E3,
(PID.TID 0000.0001) > diffKhS=0.E3,
(PID.TID 0000.0001) > beta=0.E-11,
(PID.TID 0000.0001) > f0  =1.E-4,
(PID.TID 0000.0001) > gravity=9.81,
(PID.TID 0000.0001) > eosType='LINEAR',
(PID.TID 0000.0001) > tAlpha=2.E-4,
(PID.TID 0000.0001) > sBeta =0.E-4,
(PID.TID 0000.0001) > rhoConst=1000.,
(PID.TID 0000.0001) > rhoNil=1000.,
(PID.TID 0000.0001) > rigidLid=.FALSE.,
(PID.TID 0000.0001) > implicitFreeSurface=.TRUE.,
(PID.TID 0000.0001) > implicitDiffusion=.TRUE.,
(PID.TID 0000.0001) > hFacMin= 0.05,
(PID.TID 0000.0001) >#hMixCriteria=-0.04,
(PID.TID 0000.0001) > hMixCriteria= 1.5,
(PID.TID 0000.0001) > readBinaryPrec=64,
(PID.TID 0000.0001) > writeBinaryPrec=64,
(PID.TID 0000.0001) > debugLevel=3,
(PID.TID 0000.0001) > plotLevel=0,
(PID.TID 0000.0001) > /
(PID.TID 0000.0001) >
(PID.TID 0000.0001) ># Elliptic solver parameters
(PID.TID 0000.0001) > &PARM02
(PID.TID 0000.0001) > cg2dMaxIters=1000,
(PID.TID 0000.0001) > cg2dTargetResidual=1.E-13,
(PID.TID 0000.0001) > /
(PID.TID 0000.0001) >
(PID.TID 0000.0001) ># Time stepping parameters
(PID.TID 0000.0001) > &PARM03
(PID.TID 0000.0001) > startTime=0.,
(PID.TID 0000.0001) >#nTimeSteps=8641,
(PID.TID 0000.0001) > nTimeSteps=25,
(PID.TID 0000.0001) > deltaT=3600.,
(PID.TID 0000.0001) > cAdjFreq=-1.,
(PID.TID 0000.0001) > abEps=0.1,
(PID.TID 0000.0001) > pChkptFreq=0.,
(PID.TID 0000.0001) > chkptFreq =0.,
(PID.TID 0000.0001) > dumpFreq=2592000.,
(PID.TID 0000.0001) >#monitorFreq=864000.,
(PID.TID 0000.0001) > monitorSelect=1,
(PID.TID 0000.0001) > monitorFreq=1.,
(PID.TID 0000.0001) > /
(PID.TID 0000.0001) >
(PID.TID 0000.0001) ># Gridding parameters
(PID.TID 0000.0001) > &PARM04
(PID.TID 0000.0001) > usingCartesianGrid=.TRUE.,
(PID.TID 0000.0001) > delR= 8*20.,  24.,  29.,  35.,  41.,  50.,  60.,  72.,
(PID.TID 0000.0001) >          86., 103., 124., 148., 178., 213., 256., 3*307.,
(PID.TID 0000.0001) > delX=1*1.E5,
(PID.TID 0000.0001) > delY=32*1.E5,
(PID.TID 0000.0001) > /
(PID.TID 0000.0001) >
(PID.TID 0000.0001) ># Input datasets
(PID.TID 0000.0001) > &PARM05
(PID.TID 0000.0001) > hydrogThetaFile='t_ini.bin',
(PID.TID 0000.0001) > hydrogSaltFile ='s_ini.bin',
(PID.TID 0000.0001) > uVelInitFile   ='u_ini.bin',
(PID.TID 0000.0001) > bathyFile      ='topo_slp.bin',
(PID.TID 0000.0001) > topoFile       ='top_bump.bin',
(PID.TID 0000.0001) > /
(PID.TID 0000.0001) 
(PID.TID 0000.0001)  INI_PARMS ; starts to read PARM01
(PID.TID 0000.0001)  INI_PARMS ; read PARM01 : OK
(PID.TID 0000.0001)  INI_PARMS ; starts to read PARM02
(PID.TID 0000.0001)  INI_PARMS ; read PARM02 : OK
(PID.TID 0000.0001)  INI_PARMS ; starts to read PARM03
(PID.TID 0000.0001)  INI_PARMS ; read PARM03 : OK
(PID.TID 0000.0001)  INI_PARMS ; starts to read PARM04
(PID.TID 0000.0001)  INI_PARMS ; read PARM04 : OK
(PID.TID 0000.0001)  INI_PARMS ; starts to read PARM05
(PID.TID 0000.0001)  INI_PARMS ; read PARM05 : OK
(PID.TID 0000.0001)  INI_PARMS: finished reading file "data"
(PID.TID 0000.0001)  PACKAGES_BOOT: opening data.pkg
(PID.TID 0000.0001)  OPEN_COPY_DATA_FILE: opening file data.pkg
(PID.TID 0000.0001) // =======================================================
(PID.TID 0000.0001) // Parameter file "data.pkg"
(PID.TID 0000.0001) // =======================================================
(PID.TID 0000.0001) ># Packages (lines beginning "#" are comments)
(PID.TID 0000.0001) > &PACKAGES
(PID.TID 0000.0001) >  useGMRedi=.TRUE.,
(PID.TID 0000.0001) >  useDiagnostics=.TRUE.,
(PID.TID 0000.0001) > /
(PID.TID 0000.0001) 
(PID.TID 0000.0001)  PACKAGES_BOOT: finished reading data.pkg
(PID.TID 0000.0001)  PACKAGES_BOOT: On/Off package Summary
 --------  pkgs with a standard "usePKG" On/Off switch in "data.pkg":  --------
 pkg/gmredi               compiled   and   used ( useGMRedi                = T )
 pkg/diagnostics          compiled   and   used ( useDiagnostics           = T )
 -------- pkgs without standard "usePKG" On/Off switch in "data.pkg":  --------
 pkg/generic_advdiff      compiled   and   used ( useGAD                   = T )
 pkg/mom_common           compiled   and   used ( momStepping              = T )
 pkg/mom_vecinv           compiled but not used ( +vectorInvariantMomentum = F )
 pkg/mom_fluxform         compiled   and   used ( & not vectorInvariantMom = T )
 pkg/monitor              compiled   and   used ( monitorFreq > 0.         = T )
 pkg/debug                compiled but not used ( debugMode                = F )
 pkg/rw                   compiled   and   used
 pkg/mdsio                compiled   and   used
(PID.TID 0000.0001)  PACKAGES_BOOT: End of package Summary
(PID.TID 0000.0001) 
(PID.TID 0000.0001)  GM_READPARMS: opening data.gmredi
(PID.TID 0000.0001)  OPEN_COPY_DATA_FILE: opening file data.gmredi
(PID.TID 0000.0001) // =======================================================
(PID.TID 0000.0001) // Parameter file "data.gmredi"
(PID.TID 0000.0001) // =======================================================
(PID.TID 0000.0001) ># GM-Redi parameters
(PID.TID 0000.0001) > &GM_PARM01
(PID.TID 0000.0001) > GM_AdvForm=.TRUE.,
(PID.TID 0000.0001) >#GM_useBVP = .TRUE.,
(PID.TID 0000.0001) > GM_BVP_modeNumber=5,
(PID.TID 0000.0001) > GM_background_K=1000.,
(PID.TID 0000.0001) >#GM_isopycK    = 1000.,
(PID.TID 0000.0001) >#GM_taper_scheme='orig',
(PID.TID 0000.0001) >#GM_taper_scheme='linear',
(PID.TID 0000.0001) >#GM_taper_scheme='gkw91',
(PID.TID 0000.0001) > GM_taper_scheme='ac02',
(PID.TID 0000.0001) >#GM_taper_scheme='dm95',
(PID.TID 0000.0001) >#GM_taper_scheme='ldd97',
(PID.TID 0000.0001) >#GM_taper_scheme='fm07',
(PID.TID 0000.0001) > GM_maxSlope    =1.E-02,
(PID.TID 0000.0001) > GM_facTrL2dz   = 0.,
(PID.TID 0000.0001) >#GM_facTrL2ML   = 5.,
(PID.TID 0000.0001) >#GM_maxTransLay = 500.,
(PID.TID 0000.0001) >#GM_useSubMeso = .TRUE.,
(PID.TID 0000.0001) >#subMeso_Ceff  = 3.e-2,
(PID.TID 0000.0001) >#subMeso_LfMin = 5.e+3,
(PID.TID 0000.0001) > /
(PID.TID 0000.0001) >
(PID.TID 0000.0001) 
(PID.TID 0000.0001)  GM_READPARMS: finished reading data.gmredi
(PID.TID 0000.0001)  DIAGNOSTICS_READPARMS: opening data.diagnostics
(PID.TID 0000.0001)  OPEN_COPY_DATA_FILE: opening file data.diagnostics
(PID.TID 0000.0001) // =======================================================
(PID.TID 0000.0001) // Parameter file "data.diagnostics"
(PID.TID 0000.0001) // =======================================================
(PID.TID 0000.0001) ># Diagnostic Package Choices
(PID.TID 0000.0001) >#--------------------
(PID.TID 0000.0001) >#  dumpAtLast (logical): always write output at the end of simulation (default=F)
(PID.TID 0000.0001) >#  diag_mnc   (logical): write to NetCDF files (default=useMNC)
(PID.TID 0000.0001) >#--for each output-stream:
(PID.TID 0000.0001) >#  fileName(n) : prefix of the output file name (max 80c long) for outp.stream n
(PID.TID 0000.0001) >#  frequency(n):< 0 : write snap-shot output every |frequency| seconds
(PID.TID 0000.0001) >#               > 0 : write time-average output every frequency seconds
(PID.TID 0000.0001) >#  timePhase(n)     : write at time = timePhase + multiple of |frequency|
(PID.TID 0000.0001) >#    averagingFreq  : frequency (in s) for periodic averaging interval
(PID.TID 0000.0001) >#    averagingPhase : phase     (in s) for periodic averaging interval
(PID.TID 0000.0001) >#    repeatCycle    : number of averaging intervals in 1 cycle
(PID.TID 0000.0001) >#  levels(:,n) : list of levels to write to file (Notes: declared as REAL)
(PID.TID 0000.0001) >#                when this entry is missing, select all common levels of this list
(PID.TID 0000.0001) >#  fields(:,n) : list of selected diagnostics fields (8.c) in outp.stream n
(PID.TID 0000.0001) >#                (see "available_diagnostics.log" file for the full list of diags)
(PID.TID 0000.0001) >#  missing_value(n) : missing value for real-type fields in output file "n"
(PID.TID 0000.0001) >#  fileFlags(n)     : specific code (8c string) for output file "n"
(PID.TID 0000.0001) >#--------------------
(PID.TID 0000.0001) > &DIAGNOSTICS_LIST
(PID.TID 0000.0001) ># diag_mnc     = .FALSE.,
(PID.TID 0000.0001) >  fields(1:4,1) = 'ETAN    ','DETADT2 ','PHIBOT  ',
(PID.TID 0000.0001) >                  'MXLDEPTH',
(PID.TID 0000.0001) >#                 'GM_BVPcW','GM_BVPcS',
(PID.TID 0000.0001) >#                 'SubMesLf','SubMpsiY',
(PID.TID 0000.0001) >#                 'GM_hTrsL','GM_baseS','GM_rLamb',
(PID.TID 0000.0001) >#                 'GM_VisbK',
(PID.TID 0000.0001) >   levels(1,1) = 1.,
(PID.TID 0000.0001) >  fileName(1) = 'surfDiag',
(PID.TID 0000.0001) >  frequency(1) = -86400.,
(PID.TID 0000.0001) >  timePhase(1) = 0.,
(PID.TID 0000.0001) >
(PID.TID 0000.0001) >  fields(1:7,2)  = 'UVEL    ','VVEL    ','WVEL    ','PHIHYD  ',
(PID.TID 0000.0001) >                   'THETA   ','THETASQ ','UVELSQ  ',
(PID.TID 0000.0001) ># do not specify levels => all levels are selected
(PID.TID 0000.0001) ># fileName(2) = 'dynDiag',
(PID.TID 0000.0001) >  frequency(2) = -864000.,
(PID.TID 0000.0001) >  timePhase(2) = 0.,
(PID.TID 0000.0001) >
(PID.TID 0000.0001) >  fields(1:8,3)  = 'DRHODR  ','RHOAnoma',
(PID.TID 0000.0001) >                   'GM_Kwy  ','GM_Kwz  ',
(PID.TID 0000.0001) >                   'GM_Kvy  ','GM_Kvz  ',
(PID.TID 0000.0001) >                   'GM_PsiY ','THETA   ',
(PID.TID 0000.0001) >  fileName(3) = 'oceDiag',
(PID.TID 0000.0001) >  frequency(3) = -86400.,
(PID.TID 0000.0001) >  timePhase(3) = 0.,
(PID.TID 0000.0001) >
(PID.TID 0000.0001) >  fields(1:5,4)  = 'ADVy_TH ','ADVr_TH ',
(PID.TID 0000.0001) >                   'DFyE_TH ','DFrE_TH ',
(PID.TID 0000.0001) >                   'DFrI_TH ',
(PID.TID 0000.0001) >#                  'ADVx_SLT',
(PID.TID 0000.0001) >#  fileName(4) = 'flxDiag',
(PID.TID 0000.0001) >  frequency(4) = 1728000.,
(PID.TID 0000.0001) > /
(PID.TID 0000.0001) >
(PID.TID 0000.0001) >#--------------------
(PID.TID 0000.0001) ># Parameter for Diagnostics of per level statistics:
(PID.TID 0000.0001) >#--------------------
(PID.TID 0000.0001) >#  diagSt_mnc (logical): write stat-diags to NetCDF files (default=diag_mnc)
(PID.TID 0000.0001) >#  diagSt_regMaskFile : file containing the region-mask to read-in
(PID.TID 0000.0001) >#  nSetRegMskFile   : number of region-mask sets within the region-mask file
(PID.TID 0000.0001) >#  set_regMask(i)   : region-mask set-index that identifies the region "i"
(PID.TID 0000.0001) >#  val_regMask(i)   : region "i" identifier value in the region mask
(PID.TID 0000.0001) >#--for each output-stream:
(PID.TID 0000.0001) >#  stat_fName(n) : prefix of the output file name (max 80c long) for outp.stream n
(PID.TID 0000.0001) >#  stat_freq(n):< 0 : write snap-shot output every |stat_freq| seconds
(PID.TID 0000.0001) >#               > 0 : write time-average output every stat_freq seconds
(PID.TID 0000.0001) >#  stat_phase(n)    : write at time = stat_phase + multiple of |stat_freq|
(PID.TID 0000.0001) >#  stat_region(:,n) : list of "regions" (default: 1 region only=global)
(PID.TID 0000.0001) >#  stat_fields(:,n) : list of selected diagnostics fields (8.c) in outp.stream n
(PID.TID 0000.0001) >#                (see "available_diagnostics.log" file for the full list of diags)
(PID.TID 0000.0001) >#--------------------
(PID.TID 0000.0001) > &DIAG_STATIS_PARMS
(PID.TID 0000.0001) ># stat_fields(1:13,1) = 'ETAN    ','UVEL    ','VVEL    ','WVEL    ', 'THETA   ',
(PID.TID 0000.0001) >#                       'MXLDEPTH','SubMesLf','SubMpsiY','GM_PsiY ',
(PID.TID 0000.0001) >#                       'GM_Kwy  ','GM_Kwz  ','GM_Kvy  ','GM_Kvz  ',
(PID.TID 0000.0001) >##                      'GM_hTrsL','GM_baseS','GM_rLamb',
(PID.TID 0000.0001) >## stat_fName(1) = 'dynStDiag',
(PID.TID 0000.0001) >#   stat_freq(1) = 18000.,
(PID.TID 0000.0001) >## stat_phase(1) = 0.,
(PID.TID 0000.0001) > /
(PID.TID 0000.0001) 
(PID.TID 0000.0001) S/R DIAGNOSTICS_READPARMS, read namelist "diagnostics_list": start
(PID.TID 0000.0001) S/R DIAGNOSTICS_READPARMS, read namelist "diagnostics_list": OK
(PID.TID 0000.0001) S/R DIAGNOSTICS_READPARMS, read namelist "DIAG_STATIS_PARMS": start
(PID.TID 0000.0001) S/R DIAGNOSTICS_READPARMS, read namelist "DIAG_STATIS_PARMS": OK
(PID.TID 0000.0001)  DIAGNOSTICS_READPARMS: global parameter summary:
(PID.TID 0000.0001)  dumpAtLast = /* always write time-ave diags at the end */
(PID.TID 0000.0001)                   F
(PID.TID 0000.0001)     ;
(PID.TID 0000.0001)  diag_mnc =   /* write NetCDF output files */
(PID.TID 0000.0001)                   F
(PID.TID 0000.0001)     ;
(PID.TID 0000.0001)  useMissingValue = /* put MissingValue where mask = 0 */
(PID.TID 0000.0001)                   F
(PID.TID 0000.0001)     ;
(PID.TID 0000.0001)  diagCG_maxIters = /* max number of iters in diag_cg2d */
(PID.TID 0000.0001)                    1000
(PID.TID 0000.0001)     ;
(PID.TID 0000.0001)  diagCG_resTarget = /* residual target for diag_cg2d */
(PID.TID 0000.0001)                 1.000000000000000E-13
(PID.TID 0000.0001)     ;
(PID.TID 0000.0001)  diagCG_pcOffDFac = /* preconditioner off-diagonal factor */
(PID.TID 0000.0001)                 9.611687812379854E-01
(PID.TID 0000.0001)     ;
(PID.TID 0000.0001) -----------------------------------------------------
(PID.TID 0000.0001)  DIAGNOSTICS_READPARMS: active diagnostics summary:
(PID.TID 0000.0001) -----------------------------------------------------
(PID.TID 0000.0001) Creating Output Stream: surfDiag
(PID.TID 0000.0001) Output Frequency:     -86400.000000 ; Phase:           0.000000
(PID.TID 0000.0001)  Averaging Freq.:          0.000000 , Phase:           0.000000 , Cycle:   1
(PID.TID 0000.0001)  missing value: -9.990000000000E+02
(PID.TID 0000.0001)  Levels:       1.
(PID.TID 0000.0001)  Fields:    ETAN     DETADT2  PHIBOT   MXLDEPTH
(PID.TID 0000.0001) Creating Output Stream: oceDiag
(PID.TID 0000.0001) Output Frequency:     -86400.000000 ; Phase:           0.000000
(PID.TID 0000.0001)  Averaging Freq.:          0.000000 , Phase:           0.000000 , Cycle:   1
(PID.TID 0000.0001)  missing value: -9.990000000000E+02
(PID.TID 0000.0001)  Levels:    will be set later
(PID.TID 0000.0001)  Fields:    DRHODR   RHOAnoma GM_Kwy   GM_Kwz   GM_Kvy   GM_Kvz   GM_PsiY  THETA
(PID.TID 0000.0001) -----------------------------------------------------
(PID.TID 0000.0001)  DIAGNOSTICS_READPARMS: statistics diags. summary:
(PID.TID 0000.0001) -----------------------------------------------------
(PID.TID 0000.0001) 
(PID.TID 0000.0001) SET_PARMS: done
(PID.TID 0000.0001) Enter INI_VERTICAL_GRID: setInterFDr=    T ; setCenterDr=    F
(PID.TID 0000.0001) %MON XC_max                       =   5.0000000000000E+04
(PID.TID 0000.0001) %MON XC_min                       =   5.0000000000000E+04
(PID.TID 0000.0001) %MON XC_mean                      =   5.0000000000000E+04
(PID.TID 0000.0001) %MON XC_sd                        =   0.0000000000000E+00
(PID.TID 0000.0001) %MON XG_max                       =   0.0000000000000E+00
(PID.TID 0000.0001) %MON XG_min                       =   0.0000000000000E+00
(PID.TID 0000.0001) %MON XG_mean                      =   0.0000000000000E+00
(PID.TID 0000.0001) %MON XG_sd                        =   0.0000000000000E+00
(PID.TID 0000.0001) %MON DXC_max                      =   1.0000000000000E+05
(PID.TID 0000.0001) %MON DXC_min                      =   1.0000000000000E+05
(PID.TID 0000.0001) %MON DXC_mean                     =   1.0000000000000E+05
(PID.TID 0000.0001) %MON DXC_sd                       =   0.0000000000000E+00
(PID.TID 0000.0001) %MON DXF_max                      =   1.0000000000000E+05
(PID.TID 0000.0001) %MON DXF_min                      =   1.0000000000000E+05
(PID.TID 0000.0001) %MON DXF_mean                     =   1.0000000000000E+05
(PID.TID 0000.0001) %MON DXF_sd                       =   0.0000000000000E+00
(PID.TID 0000.0001) %MON DXG_max                      =   1.0000000000000E+05
(PID.TID 0000.0001) %MON DXG_min                      =   1.0000000000000E+05
(PID.TID 0000.0001) %MON DXG_mean                     =   1.0000000000000E+05
(PID.TID 0000.0001) %MON DXG_sd                       =   0.0000000000000E+00
(PID.TID 0000.0001) %MON DXV_max                      =   1.0000000000000E+05
(PID.TID 0000.0001) %MON DXV_min                      =   1.0000000000000E+05
(PID.TID 0000.0001) %MON DXV_mean                     =   1.0000000000000E+05
(PID.TID 0000.0001) %MON DXV_sd                       =   0.0000000000000E+00
(PID.TID 0000.0001) %MON YC_max                       =   3.1500000000000E+06
(PID.TID 0000.0001) %MON YC_min                       =   5.0000000000000E+04
(PID.TID 0000.0001) %MON YC_mean                      =   1.6000000000000E+06
(PID.TID 0000.0001) %MON YC_sd                        =   9.2330926563097E+05
(PID.TID 0000.0001) %MON YG_max                       =   3.1000000000000E+06
(PID.TID 0000.0001) %MON YG_min                       =   0.0000000000000E+00
(PID.TID 0000.0001) %MON YG_mean                      =   1.5500000000000E+06
(PID.TID 0000.0001) %MON YG_sd                        =   9.2330926563097E+05
(PID.TID 0000.0001) %MON DYC_max                      =   1.0000000000000E+05
(PID.TID 0000.0001) %MON DYC_min                      =   1.0000000000000E+05
(PID.TID 0000.0001) %MON DYC_mean                     =   1.0000000000000E+05
(PID.TID 0000.0001) %MON DYC_sd                       =   0.0000000000000E+00
(PID.TID 0000.0001) %MON DYF_max                      =   1.0000000000000E+05
(PID.TID 0000.0001) %MON DYF_min                      =   1.0000000000000E+05
(PID.TID 0000.0001) %MON DYF_mean                     =   1.0000000000000E+05
(PID.TID 0000.0001) %MON DYF_sd                       =   0.0000000000000E+00
(PID.TID 0000.0001) %MON DYG_max                      =   1.0000000000000E+05
(PID.TID 0000.0001) %MON DYG_min                      =   1.0000000000000E+05
(PID.TID 0000.0001) %MON DYG_mean                     =   1.0000000000000E+05
(PID.TID 0000.0001) %MON DYG_sd                       =   0.0000000000000E+00
(PID.TID 0000.0001) %MON DYU_max                      =   1.0000000000000E+05
(PID.TID 0000.0001) %MON DYU_min                      =   1.0000000000000E+05
(PID.TID 0000.0001) %MON DYU_mean                     =   1.0000000000000E+05
(PID.TID 0000.0001) %MON DYU_sd                       =   0.0000000000000E+00
(PID.TID 0000.0001) %MON RA_max                       =   1.0000000000000E+10
(PID.TID 0000.0001) %MON RA_min                       =   1.0000000000000E+10
(PID.TID 0000.0001) %MON RA_mean                      =   1.0000000000000E+10
(PID.TID 0000.0001) %MON RA_sd                        =   0.0000000000000E+00
(PID.TID 0000.0001) %MON RAW_max                      =   1.0000000000000E+10
(PID.TID 0000.0001) %MON RAW_min                      =   1.0000000000000E+10
(PID.TID 0000.0001) %MON RAW_mean                     =   1.0000000000000E+10
(PID.TID 0000.0001) %MON RAW_sd                       =   0.0000000000000E+00
(PID.TID 0000.0001) %MON RAS_max                      =   1.0000000000000E+10
(PID.TID 0000.0001) %MON RAS_min                      =   1.0000000000000E+10
(PID.TID 0000.0001) %MON RAS_mean                     =   1.0000000000000E+10
(PID.TID 0000.0001) %MON RAS_sd                       =   0.0000000000000E+00
(PID.TID 0000.0001) %MON RAZ_max                      =   1.0000000000000E+10
(PID.TID 0000.0001) %MON RAZ_min                      =   1.0000000000000E+10
(PID.TID 0000.0001) %MON RAZ_mean                     =   1.0000000000000E+10
(PID.TID 0000.0001) %MON RAZ_sd                       =   0.0000000000000E+00
(PID.TID 0000.0001) %MON AngleCS_max                  =   1.0000000000000E+00
(PID.TID 0000.0001) %MON AngleCS_min                  =   1.0000000000000E+00
(PID.TID 0000.0001) %MON AngleCS_mean                 =   1.0000000000000E+00
(PID.TID 0000.0001) %MON AngleCS_sd                   =   0.0000000000000E+00
(PID.TID 0000.0001) %MON AngleSN_max                  =   0.0000000000000E+00
(PID.TID 0000.0001) %MON AngleSN_min                  =   0.0000000000000E+00
(PID.TID 0000.0001) %MON AngleSN_mean                 =   0.0000000000000E+00
(PID.TID 0000.0001) %MON AngleSN_sd                   =   0.0000000000000E+00
(PID.TID 0000.0001)  MDS_WRITEVEC_LOC: open file: RhoRef.data
(PID.TID 0000.0001)  MDS_READ_FIELD: opening global file: topo_slp.bin
(PID.TID 0000.0001)  MDS_READ_FIELD: opening global file: top_bump.bin
(PID.TID 0000.0001) GAD_INIT_FIXED: GAD_OlMinSize=  1  0  1
(PID.TID 0000.0001) 
(PID.TID 0000.0001) // ===================================
(PID.TID 0000.0001) // GAD parameters :
(PID.TID 0000.0001) // ===================================
(PID.TID 0000.0001) tempAdvScheme =   /* Temp. Horiz.Advection scheme selector */
(PID.TID 0000.0001)                       2
(PID.TID 0000.0001)     ;
(PID.TID 0000.0001) tempVertAdvScheme =   /* Temp. Vert. Advection scheme selector */
(PID.TID 0000.0001)                       2
(PID.TID 0000.0001)     ;
(PID.TID 0000.0001) tempMultiDimAdvec =   /* use Muti-Dim Advec method for Temp */
(PID.TID 0000.0001)                   F
(PID.TID 0000.0001)     ;
(PID.TID 0000.0001) tempSOM_Advection = /* use 2nd Order Moment Advection for Temp */
(PID.TID 0000.0001)                   F
(PID.TID 0000.0001)     ;
(PID.TID 0000.0001) AdamsBashforthGt = /* apply Adams-Bashforth extrapolation on Gt */
(PID.TID 0000.0001)                   T
(PID.TID 0000.0001)     ;
(PID.TID 0000.0001) AdamsBashforth_T = /* apply Adams-Bashforth extrapolation on Temp */
(PID.TID 0000.0001)                   F
(PID.TID 0000.0001)     ;
(PID.TID 0000.0001) saltAdvScheme =   /* Salt. Horiz.advection scheme selector */
(PID.TID 0000.0001)                       2
(PID.TID 0000.0001)     ;
(PID.TID 0000.0001) saltVertAdvScheme =   /* Salt. Vert. Advection scheme selector */
(PID.TID 0000.0001)                       2
(PID.TID 0000.0001)     ;
(PID.TID 0000.0001) saltMultiDimAdvec =   /* use Muti-Dim Advec method for Salt */
(PID.TID 0000.0001)                   F
(PID.TID 0000.0001)     ;
(PID.TID 0000.0001) saltSOM_Advection = /* use 2nd Order Moment Advection for Salt */
(PID.TID 0000.0001)                   F
(PID.TID 0000.0001)     ;
(PID.TID 0000.0001) AdamsBashforthGs = /* apply Adams-Bashforth extrapolation on Gs */
(PID.TID 0000.0001)                   T
(PID.TID 0000.0001)     ;
(PID.TID 0000.0001) AdamsBashforth_S = /* apply Adams-Bashforth extrapolation on Salt */
(PID.TID 0000.0001)                   F
(PID.TID 0000.0001)     ;
(PID.TID 0000.0001) // ===================================
(PID.TID 0000.0001) ------------------------------------------------------------
(PID.TID 0000.0001) DIAGNOSTICS_SET_LEVELS: done
(PID.TID 0000.0001)  Total Nb of available Diagnostics: ndiagt=   212
(PID.TID 0000.0001)  write list of available Diagnostics to file: available_diagnostics.log
(PID.TID 0000.0001) SETDIAG: Allocate  1 x  1 Levels for Diagnostic #    23 ETAN
(PID.TID 0000.0001) SETDIAG: Allocate  1 x  1 Levels for Diagnostic #    25 DETADT2
(PID.TID 0000.0001) SETDIAG: Allocate  1 x  1 Levels for Diagnostic #    73 PHIBOT
(PID.TID 0000.0001) SETDIAG: Allocate  1 x  1 Levels for Diagnostic #    76 MXLDEPTH
(PID.TID 0000.0001) SETDIAG: Allocate 25 x  1 Levels for Diagnostic #    77 DRHODR
(PID.TID 0000.0001) SETDIAG: Allocate 25 x  1 Levels for Diagnostic #    64 RHOAnoma
(PID.TID 0000.0001) SETDIAG: Allocate 25 x  1 Levels for Diagnostic #   202 GM_Kwy
(PID.TID 0000.0001) SETDIAG: Allocate 25 x  1 Levels for Diagnostic #   203 GM_Kwz
(PID.TID 0000.0001) SETDIAG: Allocate 25 x  1 Levels for Diagnostic #   198 GM_Kvy
(PID.TID 0000.0001) SETDIAG: Allocate 25 x  1 Levels for Diagnostic #   200 GM_Kvz
(PID.TID 0000.0001) SETDIAG: Allocate 25 x  1 Levels for Diagnostic #   205 GM_PsiY
(PID.TID 0000.0001) SETDIAG: Allocate 25 x  1 Levels for Diagnostic #    26 THETA
(PID.TID 0000.0001)   space allocated for all diagnostics:     204 levels
(PID.TID 0000.0001) DIAGNOSTICS_SET_POINTERS: Set levels for Outp.Stream: oceDiag
(PID.TID 0000.0001)  Levels:       1.   2.   3.   4.   5.   6.   7.   8.   9.  10.  11.  12.  13.  14.  15.  16.  17.  18.  19.  20.
(PID.TID 0000.0001)  Levels:      21.  22.  23.  24.  25.
(PID.TID 0000.0001) DIAGNOSTICS_SET_POINTERS: done
(PID.TID 0000.0001) ------------------------------------------------------------
(PID.TID 0000.0001) DIAGSTATS_SET_REGIONS: define no region
(PID.TID 0000.0001) ------------------------------------------------------------
(PID.TID 0000.0001)   space allocated for all stats-diags:       0 levels
(PID.TID 0000.0001) DIAGSTATS_SET_POINTERS: done
(PID.TID 0000.0001) ------------------------------------------------------------
(PID.TID 0000.0001) %MON fCori_max                    =   1.0000000000000E-04
(PID.TID 0000.0001) %MON fCori_min                    =   1.0000000000000E-04
(PID.TID 0000.0001) %MON fCori_mean                   =   1.0000000000000E-04
(PID.TID 0000.0001) %MON fCori_sd                     =   2.7105054312138E-20
(PID.TID 0000.0001) %MON fCoriG_max                   =   1.0000000000000E-04
(PID.TID 0000.0001) %MON fCoriG_min                   =   1.0000000000000E-04
(PID.TID 0000.0001) %MON fCoriG_mean                  =   1.0000000000000E-04
(PID.TID 0000.0001) %MON fCoriG_sd                    =   2.7105054312138E-20
(PID.TID 0000.0001) %MON fCoriCos_max                 =   0.0000000000000E+00
(PID.TID 0000.0001) %MON fCoriCos_min                 =   0.0000000000000E+00
(PID.TID 0000.0001) %MON fCoriCos_mean                =   0.0000000000000E+00
(PID.TID 0000.0001) %MON fCoriCos_sd                  =   0.0000000000000E+00
(PID.TID 0000.0001) INI_CG2D: CG2D normalisation factor =  4.0004203225612011E-04
(PID.TID 0000.0001) 
(PID.TID 0000.0001) // =======================================================
(PID.TID 0000.0001) // Model configuration
(PID.TID 0000.0001) // =======================================================
(PID.TID 0000.0001) //
(PID.TID 0000.0001) // "Physical" paramters ( PARM01 in namelist )
(PID.TID 0000.0001) //
(PID.TID 0000.0001) buoyancyRelation = /* Type of relation to get Buoyancy */
(PID.TID 0000.0001)               'OCEANIC'
(PID.TID 0000.0001)     ;
(PID.TID 0000.0001) fluidIsAir   =  /* fluid major constituent is Air */
(PID.TID 0000.0001)                   F
(PID.TID 0000.0001)     ;
(PID.TID 0000.0001) fluidIsWater =  /* fluid major constituent is Water */
(PID.TID 0000.0001)                   T
(PID.TID 0000.0001)     ;
(PID.TID 0000.0001) usingPCoords =  /* use p (or p*) vertical coordinate */
(PID.TID 0000.0001)                   F
(PID.TID 0000.0001)     ;
(PID.TID 0000.0001) usingZCoords =  /* use z (or z*) vertical coordinate */
(PID.TID 0000.0001)                   T
(PID.TID 0000.0001)     ;
(PID.TID 0000.0001) tRef =   /* Reference temperature profile ( oC or K ) */
(PID.TID 0000.0001)    10 @  1.000000000000000E+01,             /* K =  1: 10 */
(PID.TID 0000.0001)                 9.900000000000000E+00,      /* K = 11 */
(PID.TID 0000.0001)                 9.800000000000001E+00,      /* K = 12 */
(PID.TID 0000.0001)                 9.699999999999999E+00,      /* K = 13 */
(PID.TID 0000.0001)                 9.500000000000000E+00,      /* K = 14 */
(PID.TID 0000.0001)                 9.400000000000000E+00,      /* K = 15 */
(PID.TID 0000.0001)                 9.199999999999999E+00,      /* K = 16 */
(PID.TID 0000.0001)                 9.000000000000000E+00,      /* K = 17 */
(PID.TID 0000.0001)                 8.699999999999999E+00,      /* K = 18 */
(PID.TID 0000.0001)                 8.400000000000000E+00,      /* K = 19 */
(PID.TID 0000.0001)                 8.000000000000000E+00,      /* K = 20 */
(PID.TID 0000.0001)                 7.600000000000000E+00,      /* K = 21 */
(PID.TID 0000.0001)                 7.100000000000000E+00,      /* K = 22 */
(PID.TID 0000.0001)                 6.500000000000000E+00,      /* K = 23 */
(PID.TID 0000.0001)                 5.800000000000000E+00,      /* K = 24 */
(PID.TID 0000.0001)                 5.200000000000000E+00       /* K = 25 */
(PID.TID 0000.0001)     ;
(PID.TID 0000.0001) sRef =   /* Reference salinity profile ( g/kg ) */
(PID.TID 0000.0001)    25 @  3.000000000000000E+01              /* K =  1: 25 */
(PID.TID 0000.0001)     ;
(PID.TID 0000.0001) useStrainTensionVisc= /* Use StrainTension Form of Viscous Operator */
(PID.TID 0000.0001)                   F
(PID.TID 0000.0001)     ;
(PID.TID 0000.0001) useVariableVisc = /* Use variable horizontal viscosity */
(PID.TID 0000.0001)                   F
(PID.TID 0000.0001)     ;
(PID.TID 0000.0001) useHarmonicVisc = /* Use harmonic horizontal viscosity */
(PID.TID 0000.0001)                   F
(PID.TID 0000.0001)     ;
(PID.TID 0000.0001) useBiharmonicVisc= /* Use biharmonic horiz.  viscosity */
(PID.TID 0000.0001)                   T
(PID.TID 0000.0001)     ;
(PID.TID 0000.0001) useSmag3D = /* Use isotropic 3-D Smagorinsky viscosity */
(PID.TID 0000.0001)                   F
(PID.TID 0000.0001)     ;
(PID.TID 0000.0001) viscAh  =   /* Lateral harmonic viscosity ( m^2/s ) */
(PID.TID 0000.0001)                 0.000000000000000E+00
(PID.TID 0000.0001)     ;
(PID.TID 0000.0001) viscA4  =   /* Lateral biharmonic viscosity ( m^4/s ) */
(PID.TID 0000.0001)                 1.200000000000000E+06
(PID.TID 0000.0001)     ;
(PID.TID 0000.0001) no_slip_sides =  /* Viscous BCs: No-slip sides */
(PID.TID 0000.0001)                   F
(PID.TID 0000.0001)     ;
(PID.TID 0000.0001) sideDragFactor = /* side-drag scaling factor (non-dim) */
(PID.TID 0000.0001)                 2.000000000000000E+00
(PID.TID 0000.0001)     ;
(PID.TID 0000.0001) viscArNr = /* vertical profile of vertical viscosity ( m^2/s )*/
(PID.TID 0000.0001)    25 @  2.000000000000000E-04              /* K =  1: 25 */
(PID.TID 0000.0001)     ;
(PID.TID 0000.0001) no_slip_bottom =  /* Viscous BCs: No-slip bottom */
(PID.TID 0000.0001)                   T
(PID.TID 0000.0001)     ;
(PID.TID 0000.0001) bottomVisc_pCell = /* Partial-cell in bottom Visc. BC */
(PID.TID 0000.0001)                   F
(PID.TID 0000.0001)     ;
(PID.TID 0000.0001) bottomDragLinear = /* linear bottom-drag coefficient ( m/s ) */
(PID.TID 0000.0001)                 1.000000000000000E-03
(PID.TID 0000.0001)     ;
(PID.TID 0000.0001) bottomDragQuadratic = /* quadratic bottom-drag coefficient (-) */
(PID.TID 0000.0001)                 0.000000000000000E+00
(PID.TID 0000.0001)     ;
(PID.TID 0000.0001) selectBotDragQuadr = /* select quadratic bottom drag options */
(PID.TID 0000.0001)                      -1
(PID.TID 0000.0001)     ;
(PID.TID 0000.0001) diffKhT =   /* Laplacian diffusion of heat laterally ( m^2/s ) */
(PID.TID 0000.0001)                 0.000000000000000E+00
(PID.TID 0000.0001)     ;
(PID.TID 0000.0001) diffK4T =   /* Biharmonic diffusion of heat laterally ( m^4/s ) */
(PID.TID 0000.0001)                 0.000000000000000E+00
(PID.TID 0000.0001)     ;
(PID.TID 0000.0001) diffKhS =   /* Laplacian diffusion of salt laterally ( m^2/s ) */
(PID.TID 0000.0001)                 0.000000000000000E+00
(PID.TID 0000.0001)     ;
(PID.TID 0000.0001) diffK4S =   /* Biharmonic diffusion of salt laterally ( m^4/s ) */
(PID.TID 0000.0001)                 0.000000000000000E+00
(PID.TID 0000.0001)     ;
(PID.TID 0000.0001) diffKrNrT = /* vertical profile of vertical diffusion of Temp ( m^2/s )*/
(PID.TID 0000.0001)    25 @  2.000000000000000E-05              /* K =  1: 25 */
(PID.TID 0000.0001)     ;
(PID.TID 0000.0001) diffKrNrS = /* vertical profile of vertical diffusion of Salt ( m^2/s )*/
(PID.TID 0000.0001)    25 @  2.000000000000000E-05              /* K =  1: 25 */
(PID.TID 0000.0001)     ;
(PID.TID 0000.0001) diffKrBL79surf = /* Surface diffusion for Bryan and Lewis 79 ( m^2/s ) */
(PID.TID 0000.0001)                 0.000000000000000E+00
(PID.TID 0000.0001)     ;
(PID.TID 0000.0001) diffKrBL79deep = /* Deep diffusion for Bryan and Lewis 1979 ( m^2/s ) */
(PID.TID 0000.0001)                 0.000000000000000E+00
(PID.TID 0000.0001)     ;
(PID.TID 0000.0001) diffKrBL79scl = /* Depth scale for Bryan and Lewis 1979 ( m ) */
(PID.TID 0000.0001)                 2.000000000000000E+02
(PID.TID 0000.0001)     ;
(PID.TID 0000.0001) diffKrBL79Ho = /* Turning depth for Bryan and Lewis 1979 ( m ) */
(PID.TID 0000.0001)                -2.000000000000000E+03
(PID.TID 0000.0001)     ;
(PID.TID 0000.0001) ivdc_kappa = /* Implicit Vertical Diffusivity for Convection ( m^2/s) */
(PID.TID 0000.0001)                 0.000000000000000E+00
(PID.TID 0000.0001)     ;
(PID.TID 0000.0001) hMixCriteria=  /* Criteria for mixed-layer diagnostic */
(PID.TID 0000.0001)                 1.500000000000000E+00
(PID.TID 0000.0001)     ;
(PID.TID 0000.0001) dRhoSmall =  /* Parameter for mixed-layer diagnostic */
(PID.TID 0000.0001)                 1.000000000000000E-06
(PID.TID 0000.0001)     ;
(PID.TID 0000.0001) hMixSmooth=  /* Smoothing parameter for mixed-layer diagnostic */
(PID.TID 0000.0001)                 0.000000000000000E+00
(PID.TID 0000.0001)     ;
(PID.TID 0000.0001) eosType =  /* Type of Equation of State */
(PID.TID 0000.0001)               'LINEAR'
(PID.TID 0000.0001)     ;
(PID.TID 0000.0001) tAlpha = /* Linear EOS thermal expansion coefficient ( 1/oC ) */
(PID.TID 0000.0001)                 2.000000000000000E-04
(PID.TID 0000.0001)     ;
(PID.TID 0000.0001) sBeta  = /* Linear EOS haline contraction coefficient ( 1/(g/kg) ) */
(PID.TID 0000.0001)                 0.000000000000000E+00
(PID.TID 0000.0001)     ;
(PID.TID 0000.0001) rhoNil    = /* Reference density for Linear EOS ( kg/m^3 ) */
(PID.TID 0000.0001)                 1.000000000000000E+03
(PID.TID 0000.0001)     ;
(PID.TID 0000.0001) selectP_inEOS_Zc = /* select pressure to use in EOS (0,1,2,3) */
(PID.TID 0000.0001)                       0
(PID.TID 0000.0001)     0= -g*rhoConst*z ; 1= pRef (from tRef,sRef); 2= Hyd P ; 3= Hyd+NH P
(PID.TID 0000.0001)     ;
(PID.TID 0000.0001) surf_pRef = /* Surface reference pressure ( Pa ) */
(PID.TID 0000.0001)                 1.013250000000000E+05
(PID.TID 0000.0001)     ;
(PID.TID 0000.0001) HeatCapacity_Cp =  /* Specific heat capacity ( J/kg/K ) */
(PID.TID 0000.0001)                 3.994000000000000E+03
(PID.TID 0000.0001)     ;
(PID.TID 0000.0001) celsius2K = /* 0 degree Celsius converted to Kelvin ( K ) */
(PID.TID 0000.0001)                 2.731500000000000E+02
(PID.TID 0000.0001)     ;
(PID.TID 0000.0001) rhoConst  = /* Reference density (Boussinesq)  ( kg/m^3 ) */
(PID.TID 0000.0001)                 1.000000000000000E+03
(PID.TID 0000.0001)     ;
(PID.TID 0000.0001) rhoFacC = /* normalized Reference density @ cell-Center (-) */
(PID.TID 0000.0001)    25 @  1.000000000000000E+00              /* K =  1: 25 */
(PID.TID 0000.0001)     ;
(PID.TID 0000.0001) rhoFacF = /* normalized Reference density @ W-Interface (-) */
(PID.TID 0000.0001)    26 @  1.000000000000000E+00              /* K =  1: 26 */
(PID.TID 0000.0001)     ;
(PID.TID 0000.0001) rhoConstFresh = /* Fresh-water reference density ( kg/m^3 ) */
(PID.TID 0000.0001)                 1.000000000000000E+03
(PID.TID 0000.0001)     ;
(PID.TID 0000.0001) gravity =   /* Gravitational acceleration ( m/s^2 ) */
(PID.TID 0000.0001)                 9.810000000000000E+00
(PID.TID 0000.0001)     ;
(PID.TID 0000.0001) gBaro =   /* Barotropic gravity ( m/s^2 ) */
(PID.TID 0000.0001)                 9.810000000000000E+00
(PID.TID 0000.0001)     ;
(PID.TID 0000.0001) gravFacC = /* gravity factor (vs surf.) @ cell-Center (-) */
(PID.TID 0000.0001)    25 @  1.000000000000000E+00              /* K =  1: 25 */
(PID.TID 0000.0001)     ;
(PID.TID 0000.0001) gravFacF = /* gravity factor (vs surf.) @ W-Interface (-) */
(PID.TID 0000.0001)    26 @  1.000000000000000E+00              /* K =  1: 26 */
(PID.TID 0000.0001)     ;
(PID.TID 0000.0001) rotationPeriod =   /* Rotation Period ( s ) */
(PID.TID 0000.0001)                 8.616400000000000E+04
(PID.TID 0000.0001)     ;
(PID.TID 0000.0001) omega =   /* Angular velocity ( rad/s ) */
(PID.TID 0000.0001)                 7.292123516990375E-05
(PID.TID 0000.0001)     ;
(PID.TID 0000.0001) f0 =   /* Reference coriolis parameter ( 1/s ) */
(PID.TID 0000.0001)                 1.000000000000000E-04
(PID.TID 0000.0001)     ;
(PID.TID 0000.0001) beta =   /* Beta ( 1/(m.s) ) */
(PID.TID 0000.0001)                 0.000000000000000E+00
(PID.TID 0000.0001)     ;
(PID.TID 0000.0001) fPrime =   /* Second coriolis parameter ( 1/s ) */
(PID.TID 0000.0001)                 0.000000000000000E+00
(PID.TID 0000.0001)     ;
(PID.TID 0000.0001) rigidLid =   /* Rigid lid on/off flag */
(PID.TID 0000.0001)                   F
(PID.TID 0000.0001)     ;
(PID.TID 0000.0001) implicitFreeSurface =   /* Implicit free surface on/off flag */
(PID.TID 0000.0001)                   T
(PID.TID 0000.0001)     ;
(PID.TID 0000.0001) freeSurfFac =   /* Implicit free surface factor */
(PID.TID 0000.0001)                 1.000000000000000E+00
(PID.TID 0000.0001)     ;
(PID.TID 0000.0001) implicSurfPress =  /* Surface Pressure implicit factor (0-1) */
(PID.TID 0000.0001)                 1.000000000000000E+00
(PID.TID 0000.0001)     ;
(PID.TID 0000.0001) implicDiv2DFlow =  /* Barot. Flow Div. implicit factor (0-1) */
(PID.TID 0000.0001)                 1.000000000000000E+00
(PID.TID 0000.0001)     ;
(PID.TID 0000.0001) uniformLin_PhiSurf = /* use uniform Bo_surf on/off flag */
(PID.TID 0000.0001)                   T
(PID.TID 0000.0001)     ;
(PID.TID 0000.0001) uniformFreeSurfLev = /* free-surface level-index is uniform */
(PID.TID 0000.0001)                   T
(PID.TID 0000.0001)     ;
(PID.TID 0000.0001) sIceLoadFac =  /* scale factor for sIceLoad (0-1) */
(PID.TID 0000.0001)                 1.000000000000000E+00
(PID.TID 0000.0001)     ;
(PID.TID 0000.0001) hFacMin =   /* minimum partial cell factor (hFac) */
(PID.TID 0000.0001)                 5.000000000000000E-02
(PID.TID 0000.0001)     ;
(PID.TID 0000.0001) hFacMinDr = /* minimum partial cell thickness ( m) */
(PID.TID 0000.0001)                 0.000000000000000E+00
(PID.TID 0000.0001)     ;
(PID.TID 0000.0001) exactConserv =  /* Exact Volume Conservation on/off flag */
(PID.TID 0000.0001)                   F
(PID.TID 0000.0001)     ;
(PID.TID 0000.0001) linFSConserveTr = /* Tracer correction for Lin Free Surface on/off flag */
(PID.TID 0000.0001)                   F
(PID.TID 0000.0001)     ;
(PID.TID 0000.0001) nonlinFreeSurf = /* Non-linear Free Surf. options (-1,0,1,2,3)*/
(PID.TID 0000.0001)                       0
(PID.TID 0000.0001)      -1,0= Off ; 1,2,3= On, 2=+rescale gU,gV, 3=+update cg2d solv.
(PID.TID 0000.0001)     ;
(PID.TID 0000.0001) hFacInf =   /* lower threshold for hFac (nonlinFreeSurf only)*/
(PID.TID 0000.0001)                 2.000000000000000E-01
(PID.TID 0000.0001)     ;
(PID.TID 0000.0001) hFacSup =   /* upper threshold for hFac (nonlinFreeSurf only)*/
(PID.TID 0000.0001)                 2.000000000000000E+00
(PID.TID 0000.0001)     ;
(PID.TID 0000.0001) select_rStar = /* r* Vertical coord. options (=0 r coord.; >0 uses r*)*/
(PID.TID 0000.0001)                       0
(PID.TID 0000.0001)     ;
(PID.TID 0000.0001) useRealFreshWaterFlux = /* Real Fresh Water Flux on/off flag*/
(PID.TID 0000.0001)                   F
(PID.TID 0000.0001)     ;
(PID.TID 0000.0001) temp_EvPrRn = /* Temp. of Evap/Prec/R (UNSET=use local T)(oC)*/
(PID.TID 0000.0001)                 1.234567000000000E+05
(PID.TID 0000.0001)     ;
(PID.TID 0000.0001) salt_EvPrRn = /* Salin. of Evap/Prec/R (UNSET=use local S)(g/kg)*/
(PID.TID 0000.0001)                 0.000000000000000E+00
(PID.TID 0000.0001)     ;
(PID.TID 0000.0001) selectAddFluid = /* option for mass source/sink of fluid (=0: off) */
(PID.TID 0000.0001)                       0
(PID.TID 0000.0001)     ;
(PID.TID 0000.0001) temp_addMass = /* Temp. of addMass array (UNSET=use local T)(oC)*/
(PID.TID 0000.0001)                 1.234567000000000E+05
(PID.TID 0000.0001)     ;
(PID.TID 0000.0001) salt_addMass = /* Salin. of addMass array (UNSET=use local S)(g/kg)*/
(PID.TID 0000.0001)                 0.000000000000000E+00
(PID.TID 0000.0001)     ;
(PID.TID 0000.0001) convertFW2Salt = /* convert F.W. Flux to Salt Flux (-1=use local S)(g/kg)*/
(PID.TID 0000.0001)                 3.500000000000000E+01
(PID.TID 0000.0001)     ;
(PID.TID 0000.0001) use3Dsolver = /* use 3-D pressure solver on/off flag */
(PID.TID 0000.0001)                   F
(PID.TID 0000.0001)     ;
(PID.TID 0000.0001) nonHydrostatic =  /* Non-Hydrostatic on/off flag */
(PID.TID 0000.0001)                   F
(PID.TID 0000.0001)     ;
(PID.TID 0000.0001) nh_Am2 = /* Non-Hydrostatic terms scaling factor */
(PID.TID 0000.0001)                 1.000000000000000E+00
(PID.TID 0000.0001)     ;
(PID.TID 0000.0001) implicitNHPress = /* Non-Hyd Pressure implicit factor (0-1)*/
(PID.TID 0000.0001)                 1.000000000000000E+00
(PID.TID 0000.0001)     ;
(PID.TID 0000.0001) selectNHfreeSurf = /* Non-Hyd (free-)Surface option */
(PID.TID 0000.0001)                       0
(PID.TID 0000.0001)     ;
(PID.TID 0000.0001) quasiHydrostatic = /* Quasi-Hydrostatic on/off flag */
(PID.TID 0000.0001)                   F
(PID.TID 0000.0001)     ;
(PID.TID 0000.0001) calc_wVelocity = /* vertical velocity calculation on/off flag */
(PID.TID 0000.0001)                   T
(PID.TID 0000.0001)     ;
(PID.TID 0000.0001) momStepping =  /* Momentum equation on/off flag */
(PID.TID 0000.0001)                   T
(PID.TID 0000.0001)     ;
(PID.TID 0000.0001) vectorInvariantMomentum= /* Vector-Invariant Momentum on/off */
(PID.TID 0000.0001)                   F
(PID.TID 0000.0001)     ;
(PID.TID 0000.0001) momAdvection =  /* Momentum advection on/off flag */
(PID.TID 0000.0001)                   T
(PID.TID 0000.0001)     ;
(PID.TID 0000.0001) momViscosity =  /* Momentum viscosity on/off flag */
(PID.TID 0000.0001)                   T
(PID.TID 0000.0001)     ;
(PID.TID 0000.0001) momImplVertAdv= /* Momentum implicit vert. advection on/off*/
(PID.TID 0000.0001)                   F
(PID.TID 0000.0001)     ;
(PID.TID 0000.0001) implicitViscosity = /* Implicit viscosity on/off flag */
(PID.TID 0000.0001)                   F
(PID.TID 0000.0001)     ;
(PID.TID 0000.0001) selectImplicitDrag= /* Implicit bot Drag options (0,1,2)*/
(PID.TID 0000.0001)                       0
(PID.TID 0000.0001)     0= Expl. ; 1= Impl. on provis. Vel ; 2= Fully Impl (with surf.P)
(PID.TID 0000.0001)     ;
(PID.TID 0000.0001) metricTerms =  /* metric-Terms on/off flag */
(PID.TID 0000.0001)                   F
(PID.TID 0000.0001)     ;
(PID.TID 0000.0001) useNHMTerms = /* Non-Hydrostatic Metric-Terms on/off */
(PID.TID 0000.0001)                   F
(PID.TID 0000.0001)     ;
(PID.TID 0000.0001) selectCoriMap = /* Coriolis Map options (0,1,2,3)*/
(PID.TID 0000.0001)                       1
(PID.TID 0000.0001)     0= f-Plane ; 1= Beta-Plane ; 2= Spherical ; 3= read from file
(PID.TID 0000.0001)     ;
(PID.TID 0000.0001) use3dCoriolis = /* 3-D Coriolis on/off flag */
(PID.TID 0000.0001)                   F
(PID.TID 0000.0001)     ;
(PID.TID 0000.0001) useCoriolis =  /* Coriolis on/off flag */
(PID.TID 0000.0001)                   T
(PID.TID 0000.0001)     ;
(PID.TID 0000.0001) useCDscheme =  /* CD scheme on/off flag */
(PID.TID 0000.0001)                   F
(PID.TID 0000.0001)     ;
(PID.TID 0000.0001) selectCoriScheme= /* Scheme selector for Coriolis-Term */
(PID.TID 0000.0001)                       0
(PID.TID 0000.0001)    = 0 : original discretization (simple averaging, no hFac)
(PID.TID 0000.0001)    = 1 : Wet-point averaging (Jamar & Ozer 1986)
(PID.TID 0000.0001)    = 2 : energy conserving scheme (no hFac weight)
(PID.TID 0000.0001)    = 3 : energy conserving scheme using Wet-point averaging
(PID.TID 0000.0001)     ;
(PID.TID 0000.0001) momForcing =  /* Momentum forcing on/off flag */
(PID.TID 0000.0001)                   T
(PID.TID 0000.0001)     ;
(PID.TID 0000.0001) momTidalForcing = /* Momentum Tidal forcing on/off flag */
(PID.TID 0000.0001)                   T
(PID.TID 0000.0001)     ;
(PID.TID 0000.0001) momPressureForcing =  /* Momentum pressure term on/off flag */
(PID.TID 0000.0001)                   T
(PID.TID 0000.0001)     ;
(PID.TID 0000.0001) implicitIntGravWave= /* Implicit Internal Gravity Wave flag */
(PID.TID 0000.0001)                   F
(PID.TID 0000.0001)     ;
(PID.TID 0000.0001) staggerTimeStep =    /* Stagger time stepping on/off flag */
(PID.TID 0000.0001)                   F
(PID.TID 0000.0001)     ;
(PID.TID 0000.0001) doResetHFactors = /* reset thickness factors @ each time-step */
(PID.TID 0000.0001)                   F
(PID.TID 0000.0001)     ;
(PID.TID 0000.0001) multiDimAdvection =  /* enable/disable Multi-Dim Advection */
(PID.TID 0000.0001)                   T
(PID.TID 0000.0001)     ;
(PID.TID 0000.0001) useMultiDimAdvec =   /* Multi-Dim Advection is/is-not used */
(PID.TID 0000.0001)                   F
(PID.TID 0000.0001)     ;
(PID.TID 0000.0001) implicitDiffusion = /* Implicit Diffusion on/off flag */
(PID.TID 0000.0001)                   T
(PID.TID 0000.0001)     ;
(PID.TID 0000.0001) tempStepping =  /* Temperature equation on/off flag */
(PID.TID 0000.0001)                   T
(PID.TID 0000.0001)     ;
(PID.TID 0000.0001) tempAdvection = /* Temperature advection on/off flag */
(PID.TID 0000.0001)                   T
(PID.TID 0000.0001)     ;
(PID.TID 0000.0001) tempImplVertAdv = /* Temp. implicit vert. advection on/off */
(PID.TID 0000.0001)                   F
(PID.TID 0000.0001)     ;
(PID.TID 0000.0001) tempForcing  =  /* Temperature forcing on/off flag */
(PID.TID 0000.0001)                   T
(PID.TID 0000.0001)     ;
(PID.TID 0000.0001) doThetaClimRelax = /* apply SST relaxation on/off flag */
(PID.TID 0000.0001)                   F
(PID.TID 0000.0001)     ;
(PID.TID 0000.0001) tempIsActiveTr = /* Temp. is a dynamically Active Tracer */
(PID.TID 0000.0001)                   T
(PID.TID 0000.0001)     ;
(PID.TID 0000.0001) saltStepping =  /* Salinity equation on/off flag */
(PID.TID 0000.0001)                   T
(PID.TID 0000.0001)     ;
(PID.TID 0000.0001) saltAdvection = /* Salinity advection on/off flag */
(PID.TID 0000.0001)                   T
(PID.TID 0000.0001)     ;
(PID.TID 0000.0001) saltImplVertAdv = /* Sali. implicit vert. advection on/off */
(PID.TID 0000.0001)                   F
(PID.TID 0000.0001)     ;
(PID.TID 0000.0001) saltForcing  =  /* Salinity forcing on/off flag */
(PID.TID 0000.0001)                   T
(PID.TID 0000.0001)     ;
(PID.TID 0000.0001) doSaltClimRelax = /* apply SSS relaxation on/off flag */
(PID.TID 0000.0001)                   F
(PID.TID 0000.0001)     ;
(PID.TID 0000.0001) saltIsActiveTr = /* Salt  is a dynamically Active Tracer */
(PID.TID 0000.0001)                   F
(PID.TID 0000.0001)     ;
(PID.TID 0000.0001)  readBinaryPrec = /* Precision used for reading binary files */
(PID.TID 0000.0001)                      64
(PID.TID 0000.0001)     ;
(PID.TID 0000.0001) writeBinaryPrec = /* Precision used for writing binary files */
(PID.TID 0000.0001)                      64
(PID.TID 0000.0001)     ;
(PID.TID 0000.0001)  rwSuffixType =   /* select format of mds file suffix */
(PID.TID 0000.0001)                       0
(PID.TID 0000.0001)    = 0 : myIter (I10.10) ;   = 1 : 100*myTime (100th sec) ;
(PID.TID 0000.0001)    = 2 : myTime (seconds);   = 3 : myTime/360 (10th of hr);
(PID.TID 0000.0001)    = 4 : myTime/3600 (hours)
(PID.TID 0000.0001)     ;
(PID.TID 0000.0001)  globalFiles = /* write "global" (=not per tile) files */
(PID.TID 0000.0001)                   F
(PID.TID 0000.0001)     ;
(PID.TID 0000.0001)  useSingleCpuIO = /* only master MPI process does I/O */
(PID.TID 0000.0001)                   F
(PID.TID 0000.0001)     ;
(PID.TID 0000.0001)  useSingleCpuInput = /* only master process reads input */
(PID.TID 0000.0001)                   F
(PID.TID 0000.0001)     ;
(PID.TID 0000.0001) /* debLev[*]  : level of debug & auxiliary message printing */
(PID.TID 0000.0001) debLevZero =  0 ; /* level of disabled aux. msg printing */
(PID.TID 0000.0001)    debLevA =  1 ; /* level of minimum  aux. msg printing */
(PID.TID 0000.0001)    debLevB =  2 ; /* level of low aux. print (report read-file opening)*/
(PID.TID 0000.0001)    debLevC =  3 ; /* level of moderate debug prt (most pkgs debug msg) */
(PID.TID 0000.0001)    debLevD =  4 ; /* level of enhanced debug prt (add DEBUG_STATS prt) */
(PID.TID 0000.0001)    debLevE =  5 ; /* level of extensive debug printing */
(PID.TID 0000.0001) debugLevel =  /* select debug printing level */
(PID.TID 0000.0001)                       3
(PID.TID 0000.0001)     ;
(PID.TID 0000.0001)  plotLevel =  /* select PLOT_FIELD printing level */
(PID.TID 0000.0001)                       0
(PID.TID 0000.0001)     ;
(PID.TID 0000.0001) //
(PID.TID 0000.0001) // Elliptic solver(s) paramters ( PARM02 in namelist )
(PID.TID 0000.0001) //
(PID.TID 0000.0001) cg2dMaxIters =   /* Upper limit on 2d con. grad iterations  */
(PID.TID 0000.0001)                    1000
(PID.TID 0000.0001)     ;
(PID.TID 0000.0001) cg2dMinItersNSA =   /* Minimum number of iterations of 2d con. grad solver  */
(PID.TID 0000.0001)                       0
(PID.TID 0000.0001)     ;
(PID.TID 0000.0001) cg2dUseMinResSol= /* use cg2d last-iter(=0) / min-resid.(=1) solution */
(PID.TID 0000.0001)                       0
(PID.TID 0000.0001)     ;
(PID.TID 0000.0001) cg2dTargetResidual =   /* 2d con. grad target residual  */
(PID.TID 0000.0001)                 1.000000000000000E-13
(PID.TID 0000.0001)     ;
(PID.TID 0000.0001) cg2dTargetResWunit =   /* CG2d target residual [W units] */
(PID.TID 0000.0001)                -1.000000000000000E+00
(PID.TID 0000.0001)     ;
(PID.TID 0000.0001) cg2dPreCondFreq =   /* Freq. for updating cg2d preconditioner */
(PID.TID 0000.0001)                       1
(PID.TID 0000.0001)     ;
(PID.TID 0000.0001) useSRCGSolver =  /* use single reduction CG solver(s) */
(PID.TID 0000.0001)                   F
(PID.TID 0000.0001)     ;
(PID.TID 0000.0001) useNSACGSolver =  /* use not-self-adjoint CG solver */
(PID.TID 0000.0001)                   F
(PID.TID 0000.0001)     ;
(PID.TID 0000.0001) printResidualFreq = /* Freq. for printing CG residual */
(PID.TID 0000.0001)                       0
(PID.TID 0000.0001)     ;
(PID.TID 0000.0001) //
(PID.TID 0000.0001) // Time stepping paramters ( PARM03 in namelist )
(PID.TID 0000.0001) //
(PID.TID 0000.0001) deltaTMom =   /* Momentum equation timestep ( s ) */
(PID.TID 0000.0001)                 3.600000000000000E+03
(PID.TID 0000.0001)     ;
(PID.TID 0000.0001) deltaTFreeSurf = /* FreeSurface equation timestep ( s ) */
(PID.TID 0000.0001)                 3.600000000000000E+03
(PID.TID 0000.0001)     ;
(PID.TID 0000.0001) dTtracerLev =  /* Tracer equation timestep ( s ) */
(PID.TID 0000.0001)    25 @  3.600000000000000E+03              /* K =  1: 25 */
(PID.TID 0000.0001)     ;
(PID.TID 0000.0001) deltaTClock  =   /* Model clock timestep ( s ) */
(PID.TID 0000.0001)                 3.600000000000000E+03
(PID.TID 0000.0001)     ;
(PID.TID 0000.0001) cAdjFreq =   /* Convective adjustment interval ( s ) */
(PID.TID 0000.0001)                 3.600000000000000E+03
(PID.TID 0000.0001)     ;
(PID.TID 0000.0001) momForcingOutAB = /* =1: take Momentum Forcing out of Adams-Bash. stepping */
(PID.TID 0000.0001)                       0
(PID.TID 0000.0001)     ;
(PID.TID 0000.0001) tracForcingOutAB = /* =1: take T,S,pTr Forcing out of Adams-Bash. stepping */
(PID.TID 0000.0001)                       0
(PID.TID 0000.0001)     ;
(PID.TID 0000.0001) momDissip_In_AB = /* put Dissipation Tendency in Adams-Bash. stepping */
(PID.TID 0000.0001)                   T
(PID.TID 0000.0001)     ;
(PID.TID 0000.0001) doAB_onGtGs = /* apply AB on Tendencies (rather than on T,S)*/
(PID.TID 0000.0001)                   T
(PID.TID 0000.0001)     ;
(PID.TID 0000.0001) abEps =   /* Adams-Bashforth-2 stabilizing weight */
(PID.TID 0000.0001)                 1.000000000000000E-01
(PID.TID 0000.0001)     ;
(PID.TID 0000.0001) applyExchUV_early = /* Apply EXCH to U,V earlier in time-step */
(PID.TID 0000.0001)                   F
(PID.TID 0000.0001)     ;
(PID.TID 0000.0001) pickupStrictlyMatch= /* stop if pickup do not strictly match */
(PID.TID 0000.0001)                   T
(PID.TID 0000.0001)     ;
(PID.TID 0000.0001) nIter0   =   /* Run starting timestep number */
(PID.TID 0000.0001)                       0
(PID.TID 0000.0001)     ;
(PID.TID 0000.0001) nTimeSteps = /* Number of timesteps */
(PID.TID 0000.0001)                      25
(PID.TID 0000.0001)     ;
(PID.TID 0000.0001) nEndIter =   /* Run ending timestep number */
(PID.TID 0000.0001)                      25
(PID.TID 0000.0001)     ;
(PID.TID 0000.0001) baseTime =   /* Model base time ( s ) */
(PID.TID 0000.0001)                 0.000000000000000E+00
(PID.TID 0000.0001)     ;
(PID.TID 0000.0001) startTime =  /* Run start time ( s ) */
(PID.TID 0000.0001)                 0.000000000000000E+00
(PID.TID 0000.0001)     ;
(PID.TID 0000.0001) endTime  =   /* Integration ending time ( s ) */
(PID.TID 0000.0001)                 9.000000000000000E+04
(PID.TID 0000.0001)     ;
(PID.TID 0000.0001) pChkPtFreq = /* Permanent restart/pickup file interval ( s ) */
(PID.TID 0000.0001)                 0.000000000000000E+00
(PID.TID 0000.0001)     ;
(PID.TID 0000.0001) chkPtFreq  = /* Rolling restart/pickup file interval ( s ) */
(PID.TID 0000.0001)                 0.000000000000000E+00
(PID.TID 0000.0001)     ;
(PID.TID 0000.0001) pickup_write_mdsio =   /* Model IO flag. */
(PID.TID 0000.0001)                   T
(PID.TID 0000.0001)     ;
(PID.TID 0000.0001) pickup_read_mdsio =   /* Model IO flag. */
(PID.TID 0000.0001)                   T
(PID.TID 0000.0001)     ;
(PID.TID 0000.0001) writePickupAtEnd =   /* Model IO flag. */
(PID.TID 0000.0001)                   T
(PID.TID 0000.0001)     ;
(PID.TID 0000.0001) dumpFreq =   /* Model state write out interval ( s ). */
(PID.TID 0000.0001)                 2.592000000000000E+06
(PID.TID 0000.0001)     ;
(PID.TID 0000.0001) dumpInitAndLast= /* write out Initial & Last iter. model state */
(PID.TID 0000.0001)                   T
(PID.TID 0000.0001)     ;
(PID.TID 0000.0001) snapshot_mdsio =   /* Model IO flag. */
(PID.TID 0000.0001)                   T
(PID.TID 0000.0001)     ;
(PID.TID 0000.0001) monitorFreq =   /* Monitor output interval ( s ). */
(PID.TID 0000.0001)                 1.000000000000000E+00
(PID.TID 0000.0001)     ;
(PID.TID 0000.0001) monitorSelect = /* select group of variables to monitor */
(PID.TID 0000.0001)                       1
(PID.TID 0000.0001)     ;
(PID.TID 0000.0001) monitor_stdio =   /* Model IO flag. */
(PID.TID 0000.0001)                   T
(PID.TID 0000.0001)     ;
(PID.TID 0000.0001) externForcingPeriod =   /* forcing period (s) */
(PID.TID 0000.0001)                 0.000000000000000E+00
(PID.TID 0000.0001)     ;
(PID.TID 0000.0001) externForcingCycle =   /* period of the cyle (s). */
(PID.TID 0000.0001)                 0.000000000000000E+00
(PID.TID 0000.0001)     ;
(PID.TID 0000.0001) tauThetaClimRelax =   /* relaxation time scale (s) */
(PID.TID 0000.0001)                 0.000000000000000E+00
(PID.TID 0000.0001)     ;
(PID.TID 0000.0001) tauSaltClimRelax =   /* relaxation time scale (s) */
(PID.TID 0000.0001)                 0.000000000000000E+00
(PID.TID 0000.0001)     ;
(PID.TID 0000.0001) latBandClimRelax =   /* max. Lat. where relaxation */
(PID.TID 0000.0001)                 9.600000000000000E+06
(PID.TID 0000.0001)     ;
(PID.TID 0000.0001) //
(PID.TID 0000.0001) // Gridding paramters ( PARM04 in namelist )
(PID.TID 0000.0001) //
(PID.TID 0000.0001) usingCartesianGrid = /* Cartesian coordinates flag ( True/False ) */
(PID.TID 0000.0001)                   T
(PID.TID 0000.0001)     ;
(PID.TID 0000.0001) usingCylindricalGrid = /* Cylindrical coordinates flag ( True/False ) */
(PID.TID 0000.0001)                   F
(PID.TID 0000.0001)     ;
(PID.TID 0000.0001) usingSphericalPolarGrid = /* Spherical coordinates flag ( True/False ) */
(PID.TID 0000.0001)                   F
(PID.TID 0000.0001)     ;
(PID.TID 0000.0001) usingCurvilinearGrid = /* Curvilinear coordinates flag ( True/False ) */
(PID.TID 0000.0001)                   F
(PID.TID 0000.0001)     ;
(PID.TID 0000.0001) useMin4hFacEdges = /* set hFacW,S as minimum of adjacent hFacC factor */
(PID.TID 0000.0001)                   F
(PID.TID 0000.0001)     ;
(PID.TID 0000.0001) interViscAr_pCell = /* account for partial-cell in interior vert. viscosity */
(PID.TID 0000.0001)                   F
(PID.TID 0000.0001)     ;
(PID.TID 0000.0001) interDiffKr_pCell = /* account for partial-cell in interior vert. diffusion */
(PID.TID 0000.0001)                   F
(PID.TID 0000.0001)     ;
(PID.TID 0000.0001) pCellMix_select = /* option to enhance mixing near surface & bottom */
(PID.TID 0000.0001)                       0
(PID.TID 0000.0001)     ;
(PID.TID 0000.0001) selectSigmaCoord = /* Hybrid-Sigma Vert. Coordinate option */
(PID.TID 0000.0001)                       0
(PID.TID 0000.0001)     ;
(PID.TID 0000.0001) rSigmaBnd = /* r/sigma transition ( units of r ==  m ) */
(PID.TID 0000.0001)                 1.234567000000000E+05
(PID.TID 0000.0001)     ;
(PID.TID 0000.0001) rkSign =   /* index orientation relative to vertical coordinate */
(PID.TID 0000.0001)                -1.000000000000000E+00
(PID.TID 0000.0001)     ;
(PID.TID 0000.0001) gravitySign = /* gravity orientation relative to vertical coordinate */
(PID.TID 0000.0001)                -1.000000000000000E+00
(PID.TID 0000.0001)     ;
(PID.TID 0000.0001) seaLev_Z =  /* reference height of sea-level [m] */
(PID.TID 0000.0001)                 0.000000000000000E+00
(PID.TID 0000.0001)     ;
(PID.TID 0000.0001) top_Pres =  /* reference pressure at the top [Pa] */
(PID.TID 0000.0001)                 0.000000000000000E+00
(PID.TID 0000.0001)     ;
(PID.TID 0000.0001) mass2rUnit = /* convert mass per unit area [kg/m2] to r-units [m] */
(PID.TID 0000.0001)                 1.000000000000000E-03
(PID.TID 0000.0001)     ;
(PID.TID 0000.0001) rUnit2mass = /* convert r-units [m] to mass per unit area [kg/m2] */
(PID.TID 0000.0001)                 1.000000000000000E+03
(PID.TID 0000.0001)     ;
(PID.TID 0000.0001) drC =   /* C spacing ( units of r ) */
(PID.TID 0000.0001)                 1.000000000000000E+01,      /* K =  1 */
(PID.TID 0000.0001)     7 @  2.000000000000000E+01,             /* K =  2:  8 */
(PID.TID 0000.0001)                 2.200000000000000E+01,      /* K =  9 */
(PID.TID 0000.0001)                 2.650000000000000E+01,      /* K = 10 */
(PID.TID 0000.0001)                 3.200000000000000E+01,      /* K = 11 */
(PID.TID 0000.0001)                 3.800000000000000E+01,      /* K = 12 */
(PID.TID 0000.0001)                 4.550000000000000E+01,      /* K = 13 */
(PID.TID 0000.0001)                 5.500000000000000E+01,      /* K = 14 */
(PID.TID 0000.0001)                 6.600000000000000E+01,      /* K = 15 */
(PID.TID 0000.0001)                 7.900000000000000E+01,      /* K = 16 */
(PID.TID 0000.0001)                 9.450000000000000E+01,      /* K = 17 */
(PID.TID 0000.0001)                 1.135000000000000E+02,      /* K = 18 */
(PID.TID 0000.0001)                 1.360000000000000E+02,      /* K = 19 */
(PID.TID 0000.0001)                 1.630000000000000E+02,      /* K = 20 */
(PID.TID 0000.0001)                 1.955000000000000E+02,      /* K = 21 */
(PID.TID 0000.0001)                 2.345000000000000E+02,      /* K = 22 */
(PID.TID 0000.0001)                 2.815000000000000E+02,      /* K = 23 */
(PID.TID 0000.0001)     2 @  3.070000000000000E+02,             /* K = 24: 25 */
(PID.TID 0000.0001)                 1.535000000000000E+02       /* K = 26 */
(PID.TID 0000.0001)     ;
(PID.TID 0000.0001) drF =   /* W spacing ( units of r ) */
(PID.TID 0000.0001)     8 @  2.000000000000000E+01,             /* K =  1:  8 */
(PID.TID 0000.0001)                 2.400000000000000E+01,      /* K =  9 */
(PID.TID 0000.0001)                 2.900000000000000E+01,      /* K = 10 */
(PID.TID 0000.0001)                 3.500000000000000E+01,      /* K = 11 */
(PID.TID 0000.0001)                 4.100000000000000E+01,      /* K = 12 */
(PID.TID 0000.0001)                 5.000000000000000E+01,      /* K = 13 */
(PID.TID 0000.0001)                 6.000000000000000E+01,      /* K = 14 */
(PID.TID 0000.0001)                 7.200000000000000E+01,      /* K = 15 */
(PID.TID 0000.0001)                 8.600000000000000E+01,      /* K = 16 */
(PID.TID 0000.0001)                 1.030000000000000E+02,      /* K = 17 */
(PID.TID 0000.0001)                 1.240000000000000E+02,      /* K = 18 */
(PID.TID 0000.0001)                 1.480000000000000E+02,      /* K = 19 */
(PID.TID 0000.0001)                 1.780000000000000E+02,      /* K = 20 */
(PID.TID 0000.0001)                 2.130000000000000E+02,      /* K = 21 */
(PID.TID 0000.0001)                 2.560000000000000E+02,      /* K = 22 */
(PID.TID 0000.0001)     3 @  3.070000000000000E+02              /* K = 23: 25 */
(PID.TID 0000.0001)     ;
(PID.TID 0000.0001) delX = /* U spacing ( m - cartesian, degrees - spherical ) */
(PID.TID 0000.0001)                 1.000000000000000E+05       /* I =  1 */
(PID.TID 0000.0001)     ;
(PID.TID 0000.0001) delY = /* V spacing ( m - cartesian, degrees - spherical ) */
(PID.TID 0000.0001)    32 @  1.000000000000000E+05              /* J =  1: 32 */
(PID.TID 0000.0001)     ;
(PID.TID 0000.0001) xgOrigin = /* X-axis origin of West  edge (cartesian: m, lat-lon: deg) */
(PID.TID 0000.0001)                 0.000000000000000E+00
(PID.TID 0000.0001)     ;
(PID.TID 0000.0001) ygOrigin = /* Y-axis origin of South edge (cartesian: m, lat-lon: deg) */
(PID.TID 0000.0001)                 0.000000000000000E+00
(PID.TID 0000.0001)     ;
(PID.TID 0000.0001) rSphere =  /* Radius ( ignored - cartesian, m - spherical ) */
(PID.TID 0000.0001)                 6.370000000000000E+06
(PID.TID 0000.0001)     ;
(PID.TID 0000.0001) deepAtmosphere = /* Deep/Shallow Atmosphere flag (True/False) */
(PID.TID 0000.0001)                   F
(PID.TID 0000.0001)     ;
(PID.TID 0000.0001) xC =  /* xC(:,1,:,1) : P-point X coord ( deg. or m if cartesian) */
(PID.TID 0000.0001)                 5.000000000000000E+04       /* I =  1 */
(PID.TID 0000.0001)     ;
(PID.TID 0000.0001) yC =  /* yC(1,:,1,:) : P-point Y coord ( deg. or m if cartesian) */
(PID.TID 0000.0001)                 5.000000000000000E+04,      /* J =  1 */
(PID.TID 0000.0001)                 1.500000000000000E+05,      /* J =  2 */
(PID.TID 0000.0001)                 2.500000000000000E+05,      /* J =  3 */
(PID.TID 0000.0001)                 3.500000000000000E+05,      /* J =  4 */
(PID.TID 0000.0001)                 4.500000000000000E+05,      /* J =  5 */
(PID.TID 0000.0001)                 5.500000000000000E+05,      /* J =  6 */
(PID.TID 0000.0001)                 6.500000000000000E+05,      /* J =  7 */
(PID.TID 0000.0001)                 7.500000000000000E+05,      /* J =  8 */
(PID.TID 0000.0001)                 8.500000000000000E+05,      /* J =  9 */
(PID.TID 0000.0001)                 9.500000000000000E+05,      /* J = 10 */
(PID.TID 0000.0001)                 1.050000000000000E+06,      /* J = 11 */
(PID.TID 0000.0001)                 1.150000000000000E+06,      /* J = 12 */
(PID.TID 0000.0001)                 1.250000000000000E+06,      /* J = 13 */
(PID.TID 0000.0001)                 1.350000000000000E+06,      /* J = 14 */
(PID.TID 0000.0001)                 1.450000000000000E+06,      /* J = 15 */
(PID.TID 0000.0001)                 1.550000000000000E+06,      /* J = 16 */
(PID.TID 0000.0001)                 1.650000000000000E+06,      /* J = 17 */
(PID.TID 0000.0001)                 1.750000000000000E+06,      /* J = 18 */
(PID.TID 0000.0001)                 1.850000000000000E+06,      /* J = 19 */
(PID.TID 0000.0001)                 1.950000000000000E+06,      /* J = 20 */
(PID.TID 0000.0001)                 2.050000000000000E+06,      /* J = 21 */
(PID.TID 0000.0001)                 2.150000000000000E+06,      /* J = 22 */
(PID.TID 0000.0001)                 2.250000000000000E+06,      /* J = 23 */
(PID.TID 0000.0001)                 2.350000000000000E+06,      /* J = 24 */
(PID.TID 0000.0001)                 2.450000000000000E+06,      /* J = 25 */
(PID.TID 0000.0001)                 2.550000000000000E+06,      /* J = 26 */
(PID.TID 0000.0001)                 2.650000000000000E+06,      /* J = 27 */
(PID.TID 0000.0001)                 2.750000000000000E+06,      /* J = 28 */
(PID.TID 0000.0001)                 2.850000000000000E+06,      /* J = 29 */
(PID.TID 0000.0001)                 2.950000000000000E+06,      /* J = 30 */
(PID.TID 0000.0001)                 3.050000000000000E+06,      /* J = 31 */
(PID.TID 0000.0001)                 3.150000000000000E+06       /* J = 32 */
(PID.TID 0000.0001)     ;
(PID.TID 0000.0001) rcoord = /* P-point R coordinate (  units of r ) */
(PID.TID 0000.0001)                -1.000000000000000E+01,      /* K =  1 */
(PID.TID 0000.0001)                -3.000000000000000E+01,      /* K =  2 */
(PID.TID 0000.0001)                -5.000000000000000E+01,      /* K =  3 */
(PID.TID 0000.0001)                -7.000000000000000E+01,      /* K =  4 */
(PID.TID 0000.0001)                -9.000000000000000E+01,      /* K =  5 */
(PID.TID 0000.0001)                -1.100000000000000E+02,      /* K =  6 */
(PID.TID 0000.0001)                -1.300000000000000E+02,      /* K =  7 */
(PID.TID 0000.0001)                -1.500000000000000E+02,      /* K =  8 */
(PID.TID 0000.0001)                -1.720000000000000E+02,      /* K =  9 */
(PID.TID 0000.0001)                -1.985000000000000E+02,      /* K = 10 */
(PID.TID 0000.0001)                -2.305000000000000E+02,      /* K = 11 */
(PID.TID 0000.0001)                -2.685000000000000E+02,      /* K = 12 */
(PID.TID 0000.0001)                -3.140000000000000E+02,      /* K = 13 */
(PID.TID 0000.0001)                -3.690000000000000E+02,      /* K = 14 */
(PID.TID 0000.0001)                -4.350000000000000E+02,      /* K = 15 */
(PID.TID 0000.0001)                -5.140000000000000E+02,      /* K = 16 */
(PID.TID 0000.0001)                -6.085000000000000E+02,      /* K = 17 */
(PID.TID 0000.0001)                -7.220000000000000E+02,      /* K = 18 */
(PID.TID 0000.0001)                -8.580000000000000E+02,      /* K = 19 */
(PID.TID 0000.0001)                -1.021000000000000E+03,      /* K = 20 */
(PID.TID 0000.0001)                -1.216500000000000E+03,      /* K = 21 */
(PID.TID 0000.0001)                -1.451000000000000E+03,      /* K = 22 */
(PID.TID 0000.0001)                -1.732500000000000E+03,      /* K = 23 */
(PID.TID 0000.0001)                -2.039500000000000E+03,      /* K = 24 */
(PID.TID 0000.0001)                -2.346500000000000E+03       /* K = 25 */
(PID.TID 0000.0001)     ;
(PID.TID 0000.0001) rF =   /* W-Interf. R coordinate (  units of r ) */
(PID.TID 0000.0001)                 0.000000000000000E+00,      /* K =  1 */
(PID.TID 0000.0001)                -2.000000000000000E+01,      /* K =  2 */
(PID.TID 0000.0001)                -4.000000000000000E+01,      /* K =  3 */
(PID.TID 0000.0001)                -6.000000000000000E+01,      /* K =  4 */
(PID.TID 0000.0001)                -8.000000000000000E+01,      /* K =  5 */
(PID.TID 0000.0001)                -1.000000000000000E+02,      /* K =  6 */
(PID.TID 0000.0001)                -1.200000000000000E+02,      /* K =  7 */
(PID.TID 0000.0001)                -1.400000000000000E+02,      /* K =  8 */
(PID.TID 0000.0001)                -1.600000000000000E+02,      /* K =  9 */
(PID.TID 0000.0001)                -1.840000000000000E+02,      /* K = 10 */
(PID.TID 0000.0001)                -2.130000000000000E+02,      /* K = 11 */
(PID.TID 0000.0001)                -2.480000000000000E+02,      /* K = 12 */
(PID.TID 0000.0001)                -2.890000000000000E+02,      /* K = 13 */
(PID.TID 0000.0001)                -3.390000000000000E+02,      /* K = 14 */
(PID.TID 0000.0001)                -3.990000000000000E+02,      /* K = 15 */
(PID.TID 0000.0001)                -4.710000000000000E+02,      /* K = 16 */
(PID.TID 0000.0001)                -5.570000000000000E+02,      /* K = 17 */
(PID.TID 0000.0001)                -6.600000000000000E+02,      /* K = 18 */
(PID.TID 0000.0001)                -7.840000000000000E+02,      /* K = 19 */
(PID.TID 0000.0001)                -9.320000000000000E+02,      /* K = 20 */
(PID.TID 0000.0001)                -1.110000000000000E+03,      /* K = 21 */
(PID.TID 0000.0001)                -1.323000000000000E+03,      /* K = 22 */
(PID.TID 0000.0001)                -1.579000000000000E+03,      /* K = 23 */
(PID.TID 0000.0001)                -1.886000000000000E+03,      /* K = 24 */
(PID.TID 0000.0001)                -2.193000000000000E+03,      /* K = 25 */
(PID.TID 0000.0001)                -2.500000000000000E+03       /* K = 26 */
(PID.TID 0000.0001)     ;
(PID.TID 0000.0001) deepFacC = /* deep-model grid factor @ cell-Center (-) */
(PID.TID 0000.0001)    25 @  1.000000000000000E+00              /* K =  1: 25 */
(PID.TID 0000.0001)     ;
(PID.TID 0000.0001) deepFacF = /* deep-model grid factor @ W-Interface (-) */
(PID.TID 0000.0001)    26 @  1.000000000000000E+00              /* K =  1: 26 */
(PID.TID 0000.0001)     ;
(PID.TID 0000.0001) rVel2wUnit = /* convert units: rVel -> wSpeed (=1 if z-coord)*/
(PID.TID 0000.0001)    26 @  1.000000000000000E+00              /* K =  1: 26 */
(PID.TID 0000.0001)     ;
(PID.TID 0000.0001) wUnit2rVel = /* convert units: wSpeed -> rVel (=1 if z-coord)*/
(PID.TID 0000.0001)    26 @  1.000000000000000E+00              /* K =  1: 26 */
(PID.TID 0000.0001)     ;
(PID.TID 0000.0001) dBdrRef = /* Vertical grad. of reference buoyancy [(m/s/r)^2] */
(PID.TID 0000.0001)    10 @  0.000000000000000E+00,             /* K =  1: 10 */
(PID.TID 0000.0001)                 6.131249999999979E-06,      /* K = 11 */
(PID.TID 0000.0001)                 5.163157894736825E-06,      /* K = 12 */
(PID.TID 0000.0001)                 4.312087912087974E-06,      /* K = 13 */
(PID.TID 0000.0001)                 7.134545454545429E-06,      /* K = 14 */
(PID.TID 0000.0001)                 2.972727272727263E-06,      /* K = 15 */
(PID.TID 0000.0001)                 4.967088607594963E-06,      /* K = 16 */
(PID.TID 0000.0001)                 4.152380952380938E-06,      /* K = 17 */
(PID.TID 0000.0001)                 5.185903083700454E-06,      /* K = 18 */
(PID.TID 0000.0001)                 4.327941176470574E-06,      /* K = 19 */
(PID.TID 0000.0001)                 4.814723926380374E-06,      /* K = 20 */
(PID.TID 0000.0001)                 4.014322250639390E-06,      /* K = 21 */
(PID.TID 0000.0001)                 4.183368869936034E-06,      /* K = 22 */
(PID.TID 0000.0001)                 4.181882770870335E-06,      /* K = 23 */
(PID.TID 0000.0001)                 4.473615635179155E-06,      /* K = 24 */
(PID.TID 0000.0001)                 3.834527687296415E-06       /* K = 25 */
(PID.TID 0000.0001)     ;
(PID.TID 0000.0001) rotateGrid = /* use rotated grid ( True/False ) */
(PID.TID 0000.0001)                   F
(PID.TID 0000.0001)     ;
(PID.TID 0000.0001) phiEuler = /* Euler angle, rotation about original z-coordinate [rad] */
(PID.TID 0000.0001)                 0.000000000000000E+00
(PID.TID 0000.0001)     ;
(PID.TID 0000.0001) thetaEuler = /* Euler angle, rotation about new x-coordinate [rad] */
(PID.TID 0000.0001)                 0.000000000000000E+00
(PID.TID 0000.0001)     ;
(PID.TID 0000.0001) psiEuler = /* Euler angle, rotation about new z-coordinate [rad] */
(PID.TID 0000.0001)                 0.000000000000000E+00
(PID.TID 0000.0001)     ;
(PID.TID 0000.0001) dxF =  /* dxF(:,1,:,1) ( units: m ) */
(PID.TID 0000.0001)                 1.000000000000000E+05       /* I =  1 */
(PID.TID 0000.0001)     ;
(PID.TID 0000.0001) dxF =  /* dxF(1,:,1,:) ( units: m ) */
(PID.TID 0000.0001)    32 @  1.000000000000000E+05              /* J =  1: 32 */
(PID.TID 0000.0001)     ;
(PID.TID 0000.0001) dyF =  /* dyF(:,1,:,1) ( units: m ) */
(PID.TID 0000.0001)                 1.000000000000000E+05       /* I =  1 */
(PID.TID 0000.0001)     ;
(PID.TID 0000.0001) dyF =  /* dyF(1,:,1,:) ( units: m ) */
(PID.TID 0000.0001)    32 @  1.000000000000000E+05              /* J =  1: 32 */
(PID.TID 0000.0001)     ;
(PID.TID 0000.0001) dxG =  /* dxG(:,1,:,1) ( units: m ) */
(PID.TID 0000.0001)                 1.000000000000000E+05       /* I =  1 */
(PID.TID 0000.0001)     ;
(PID.TID 0000.0001) dxG =  /* dxG(1,:,1,:) ( units: m ) */
(PID.TID 0000.0001)    32 @  1.000000000000000E+05              /* J =  1: 32 */
(PID.TID 0000.0001)     ;
(PID.TID 0000.0001) dyG =  /* dyG(:,1,:,1) ( units: m ) */
(PID.TID 0000.0001)                 1.000000000000000E+05       /* I =  1 */
(PID.TID 0000.0001)     ;
(PID.TID 0000.0001) dyG =  /* dyG(1,:,1,:) ( units: m ) */
(PID.TID 0000.0001)    32 @  1.000000000000000E+05              /* J =  1: 32 */
(PID.TID 0000.0001)     ;
(PID.TID 0000.0001) dxC =  /* dxC(:,1,:,1) ( units: m ) */
(PID.TID 0000.0001)                 1.000000000000000E+05       /* I =  1 */
(PID.TID 0000.0001)     ;
(PID.TID 0000.0001) dxC =  /* dxC(1,:,1,:) ( units: m ) */
(PID.TID 0000.0001)    32 @  1.000000000000000E+05              /* J =  1: 32 */
(PID.TID 0000.0001)     ;
(PID.TID 0000.0001) dyC =  /* dyC(:,1,:,1) ( units: m ) */
(PID.TID 0000.0001)                 1.000000000000000E+05       /* I =  1 */
(PID.TID 0000.0001)     ;
(PID.TID 0000.0001) dyC =  /* dyC(1,:,1,:) ( units: m ) */
(PID.TID 0000.0001)    32 @  1.000000000000000E+05              /* J =  1: 32 */
(PID.TID 0000.0001)     ;
(PID.TID 0000.0001) dxV =  /* dxV(:,1,:,1) ( units: m ) */
(PID.TID 0000.0001)                 1.000000000000000E+05       /* I =  1 */
(PID.TID 0000.0001)     ;
(PID.TID 0000.0001) dxV =  /* dxV(1,:,1,:) ( units: m ) */
(PID.TID 0000.0001)    32 @  1.000000000000000E+05              /* J =  1: 32 */
(PID.TID 0000.0001)     ;
(PID.TID 0000.0001) dyU =  /* dyU(:,1,:,1) ( units: m ) */
(PID.TID 0000.0001)                 1.000000000000000E+05       /* I =  1 */
(PID.TID 0000.0001)     ;
(PID.TID 0000.0001) dyU =  /* dyU(1,:,1,:) ( units: m ) */
(PID.TID 0000.0001)    32 @  1.000000000000000E+05              /* J =  1: 32 */
(PID.TID 0000.0001)     ;
(PID.TID 0000.0001) rA  =  /* rA (:,1,:,1) ( units: m^2 ) */
(PID.TID 0000.0001)                 1.000000000000000E+10       /* I =  1 */
(PID.TID 0000.0001)     ;
(PID.TID 0000.0001) rA  =  /* rA (1,:,1,:) ( units: m^2 ) */
(PID.TID 0000.0001)    32 @  1.000000000000000E+10              /* J =  1: 32 */
(PID.TID 0000.0001)     ;
(PID.TID 0000.0001) rAw =  /* rAw(:,1,:,1) ( units: m^2 ) */
(PID.TID 0000.0001)                 1.000000000000000E+10       /* I =  1 */
(PID.TID 0000.0001)     ;
(PID.TID 0000.0001) rAw =  /* rAw(1,:,1,:) ( units: m^2 ) */
(PID.TID 0000.0001)    32 @  1.000000000000000E+10              /* J =  1: 32 */
(PID.TID 0000.0001)     ;
(PID.TID 0000.0001) rAs =  /* rAs(:,1,:,1) ( units: m^2 ) */
(PID.TID 0000.0001)                 1.000000000000000E+10       /* I =  1 */
(PID.TID 0000.0001)     ;
(PID.TID 0000.0001) rAs =  /* rAs(1,:,1,:) ( units: m^2 ) */
(PID.TID 0000.0001)    32 @  1.000000000000000E+10              /* J =  1: 32 */
(PID.TID 0000.0001)     ;
(PID.TID 0000.0001) globalArea = /* Integrated horizontal Area (m^2) */
(PID.TID 0000.0001)                 3.000000000000000E+11
(PID.TID 0000.0001)     ;
(PID.TID 0000.0001) // =======================================================
(PID.TID 0000.0001) // End of Model config. summary
(PID.TID 0000.0001) // =======================================================
(PID.TID 0000.0001) 
(PID.TID 0000.0001) == Packages configuration : Check & print summary ==
(PID.TID 0000.0001) 
(PID.TID 0000.0001) GMREDI_CHECK: #define GMREDI
(PID.TID 0000.0001) GM_AdvForm =     /* if FALSE => use SkewFlux Form */
(PID.TID 0000.0001)                   T
(PID.TID 0000.0001)     ;
(PID.TID 0000.0001) GM_InMomAsStress = /* if TRUE => apply as Eddy Stress */
(PID.TID 0000.0001)                   F
(PID.TID 0000.0001)     ;
(PID.TID 0000.0001) GM_AdvSeparate = /* Calc Bolus & Euler Adv. separately */
(PID.TID 0000.0001)                   F
(PID.TID 0000.0001)     ;
(PID.TID 0000.0001) GM_ExtraDiag =   /* Tensor Extra Diag (line 1&2) non 0 */
(PID.TID 0000.0001)                   T
(PID.TID 0000.0001)     ;
(PID.TID 0000.0001) GM_isopycK =    /* Background Isopyc. Diffusivity [m^2/s] */
(PID.TID 0000.0001)                 1.000000000000000E+03
(PID.TID 0000.0001)     ;
(PID.TID 0000.0001) GM_skewflx*K =  /* Background GM_SkewFlx Diffusivity [m^2/s] */
(PID.TID 0000.0001)                 0.000000000000000E+00
(PID.TID 0000.0001)     ;
(PID.TID 0000.0001) GM_advec*K =    /* Backg. GM-Advec(=Bolus) Diffusivity [m^2/s]*/
(PID.TID 0000.0001)                 1.000000000000000E+03
(PID.TID 0000.0001)     ;
(PID.TID 0000.0001) GM_Kmin_horiz = /* Minimum Horizontal Diffusivity [m^2/s] */
(PID.TID 0000.0001)                 0.000000000000000E+00
(PID.TID 0000.0001)     ;
(PID.TID 0000.0001) GM_Visbeck_alpha = /* Visbeck alpha coeff. [-] */
(PID.TID 0000.0001)                 0.000000000000000E+00
(PID.TID 0000.0001)     ;
(PID.TID 0000.0001) GM_Small_Number =  /* epsilon used in slope calc */
(PID.TID 0000.0001)                 9.999999999999999E-21
(PID.TID 0000.0001)     ;
(PID.TID 0000.0001) GM_slopeSqCutoff = /* Slope^2 cut-off value */
(PID.TID 0000.0001)                 1.000000000000000E+48
(PID.TID 0000.0001)     ;
(PID.TID 0000.0001) GM_taper_scheme =  /* Type of Tapering/Clipping scheme */
(PID.TID 0000.0001)               'ac02                                    '
(PID.TID 0000.0001)     ;
(PID.TID 0000.0001) GM_maxSlope =  /* Maximum Slope (Tapering/Clipping) */
(PID.TID 0000.0001)                 1.000000000000000E-02
(PID.TID 0000.0001)     ;
(PID.TID 0000.0001) GM_facTrL2dz = /* Minimum Trans.Layer Thick. (factor of dz) */
(PID.TID 0000.0001)                 0.000000000000000E+00
(PID.TID 0000.0001)     ;
(PID.TID 0000.0001) GM_facTrL2ML = /* Max.Trans.Layer Thick. (factor of MxL Depth)*/
(PID.TID 0000.0001)                 5.000000000000000E+00
(PID.TID 0000.0001)     ;
(PID.TID 0000.0001) GM_maxTransLay = /* Maximum Transition Layer Thickness [m] */
(PID.TID 0000.0001)                 5.000000000000000E+02
(PID.TID 0000.0001)     ;
(PID.TID 0000.0001) GM_UseBVP = /* if TRUE => use bvp a la Ferrari et al. (2010) */
(PID.TID 0000.0001)                   F
(PID.TID 0000.0001)     ;
(PID.TID 0000.0001) GM_BVP_ModeNumber = /* Vertical mode number for BVP wave speed */
(PID.TID 0000.0001)                       5
(PID.TID 0000.0001)     ;
(PID.TID 0000.0001) GM_BVP_cMin = /* Minimum wave speed for BVP [m/s] */
(PID.TID 0000.0001)                 1.000000000000000E-01
(PID.TID 0000.0001)     ;
(PID.TID 0000.0001) GM_useSubMeso = /* if TRUE => use Sub-Meso param. (B.Fox-Kemper) */
(PID.TID 0000.0001)                   F
(PID.TID 0000.0001)     ;
(PID.TID 0000.0001) subMeso_Ceff = /* efficiency coeff. of Mixed-Layer Eddies [-] */
(PID.TID 0000.0001)                 7.000000000000001E-02
(PID.TID 0000.0001)     ;
(PID.TID 0000.0001) subMeso_invTau = /* inverse of Sub-Meso mixing time-scale [/s] */
(PID.TID 0000.0001)                 2.000000000000000E-06
(PID.TID 0000.0001)     ;
(PID.TID 0000.0001) subMeso_LfMin = /* minimum length-scale "Lf" [m] */
(PID.TID 0000.0001)                 1.000000000000000E+03
(PID.TID 0000.0001)     ;
(PID.TID 0000.0001) subMeso_Lmax = /* maximum grid-scale length [m] */
(PID.TID 0000.0001)                 1.100000000000000E+05
(PID.TID 0000.0001)     ;
(PID.TID 0000.0001) GM_useLeithQG = /* if TRUE => add QG Leith viscosity to GMRedi tensor */
(PID.TID 0000.0001)                   F
(PID.TID 0000.0001)     ;
(PID.TID 0000.0001) GAD_CHECK: #define ALLOW_GENERIC_ADVDIFF
(PID.TID 0000.0001) // =======================================================
(PID.TID 0000.0001) // Check Model config. (CONFIG_CHECK):
(PID.TID 0000.0001) // CONFIG_CHECK : Normal End
(PID.TID 0000.0001) // =======================================================
(PID.TID 0000.0001) 
(PID.TID 0000.0001)  MDS_WRITE_FIELD: it,rec,kS,kL,kH=      -1     1   1   1   1 file=XC
(PID.TID 0000.0001)  MDS_WRITE_FIELD: it,rec,kS,kL,kH=      -1     1   1   1   1 file=YC
(PID.TID 0000.0001)  MDS_WRITE_FIELD: it,rec,kS,kL,kH=      -1     1   1   1   1 file=XG
(PID.TID 0000.0001)  MDS_WRITE_FIELD: it,rec,kS,kL,kH=      -1     1   1   1   1 file=YG
(PID.TID 0000.0001)  MDS_WRITE_FIELD: it,rec,kS,kL,kH=      -1     1   1   1   1 file=RAC
(PID.TID 0000.0001)  MDS_WRITE_FIELD: it,rec,kS,kL,kH=      -1     1   1   1   1 file=RAW
(PID.TID 0000.0001)  MDS_WRITE_FIELD: it,rec,kS,kL,kH=      -1     1   1   1   1 file=RAS
(PID.TID 0000.0001)  MDS_WRITE_FIELD: it,rec,kS,kL,kH=      -1     1   1   1   1 file=RAZ
(PID.TID 0000.0001)  MDS_WRITE_FIELD: it,rec,kS,kL,kH=      -1     1   1   1   1 file=DXG
(PID.TID 0000.0001)  MDS_WRITE_FIELD: it,rec,kS,kL,kH=      -1     1   1   1   1 file=DYG
(PID.TID 0000.0001)  MDS_WRITE_FIELD: it,rec,kS,kL,kH=      -1     1   1   1   1 file=DXC
(PID.TID 0000.0001)  MDS_WRITE_FIELD: it,rec,kS,kL,kH=      -1     1   1   1   1 file=DYC
(PID.TID 0000.0001)  MDS_WRITE_FIELD: it,rec,kS,kL,kH=      -1     1   1   1   1 file=DXF
(PID.TID 0000.0001)  MDS_WRITE_FIELD: it,rec,kS,kL,kH=      -1     1   1   1   1 file=DYF
(PID.TID 0000.0001)  MDS_WRITE_FIELD: it,rec,kS,kL,kH=      -1     1   1   1   1 file=DXV
(PID.TID 0000.0001)  MDS_WRITE_FIELD: it,rec,kS,kL,kH=      -1     1   1   1   1 file=DYU
(PID.TID 0000.0001)  MDS_WRITE_FIELD: it,rec,kS,kL,kH=      -1     1   1   1   1 file=Depth
(PID.TID 0000.0001)  MDS_WRITE_FIELD: it,rec,kS,kL,kH=      -1     1   1   1   1 file=rLowC
(PID.TID 0000.0001)  MDS_WRITE_FIELD: it,rec,kS,kL,kH=      -1     1   1   1   1 file=rLowW
(PID.TID 0000.0001)  MDS_WRITE_FIELD: it,rec,kS,kL,kH=      -1     1   1   1   1 file=rLowS
(PID.TID 0000.0001)  MDS_WRITE_FIELD: it,rec,kS,kL,kH=      -1     1   1   1   1 file=rSurfC
(PID.TID 0000.0001)  MDS_WRITE_FIELD: it,rec,kS,kL,kH=      -1     1   1   1   1 file=rSurfW
(PID.TID 0000.0001)  MDS_WRITE_FIELD: it,rec,kS,kL,kH=      -1     1   1   1   1 file=rSurfS
(PID.TID 0000.0001)  MDS_WRITE_FIELD: it,rec,kS,kL,kH=       0     1  25   1  25 file=hFacC
(PID.TID 0000.0001)  MDS_WRITE_FIELD: it,rec,kS,kL,kH=       0     1  25   1  25 file=hFacW
(PID.TID 0000.0001)  MDS_WRITE_FIELD: it,rec,kS,kL,kH=       0     1  25   1  25 file=hFacS
(PID.TID 0000.0001)  MDS_WRITEVEC_LOC: open file: RC.data
(PID.TID 0000.0001)  MDS_WRITEVEC_LOC: open file: RF.data
(PID.TID 0000.0001)  MDS_WRITEVEC_LOC: open file: DRC.data
(PID.TID 0000.0001)  MDS_WRITEVEC_LOC: open file: DRF.data
(PID.TID 0000.0001)  MDS_WRITEVEC_LOC: open file: PHrefF.data
(PID.TID 0000.0001)  MDS_WRITEVEC_LOC: open file: PHrefC.data
(PID.TID 0000.0001)  MDS_READ_FIELD: opening global file: u_ini.bin
(PID.TID 0000.0001)  MDS_READ_FIELD: opening global file: t_ini.bin
(PID.TID 0000.0001)  MDS_READ_FIELD: opening global file: s_ini.bin
(PID.TID 0000.0001) Start initial hydrostatic pressure computation
(PID.TID 0000.0001) Pressure is predetermined for buoyancyRelation OCEANIC
(PID.TID 0000.0001) 
(PID.TID 0000.0001)  write diagnostics summary to file ioUnit:      6
Iter.Nb:         0 ; Time(s):  0.0000000000000E+00
------------------------------------------------------------------------
2D/3D diagnostics: Number of lists:     2
------------------------------------------------------------------------
listId=    1 ; file name: surfDiag
 nFlds, nActive,       freq     &     phase        , nLev               
    4  |    4  |    -86400.000000         0.000000 |   1
 levels:   1
 diag# | name   |   ipt  |  iMate | kLev|   count |   mate.C|           
    23 |ETAN    |      1 |      0 |   1 |       0 |
    25 |DETADT2 |      2 |      0 |   1 |       0 |
    73 |PHIBOT  |      3 |      0 |   1 |       0 |
    76 |MXLDEPTH|      4 |      0 |   1 |       0 |
------------------------------------------------------------------------
listId=    2 ; file name: oceDiag
 nFlds, nActive,       freq     &     phase        , nLev               
    8  |    8  |    -86400.000000         0.000000 |  25
 levels:   1   2   3   4   5   6   7   8   9  10  11  12  13  14  15  16  17  18  19  20  21  22  23  24  25
 diag# | name   |   ipt  |  iMate | kLev|   count |   mate.C|           
    77 |DRHODR  |      5 |      0 |  25 |       0 |
    64 |RHOAnoma|     30 |      0 |  25 |       0 |
   202 |GM_Kwy  |     55 |      0 |  25 |       0 |
   203 |GM_Kwz  |     80 |      0 |  25 |       0 |
   198 |GM_Kvy  |    105 |      0 |  25 |       0 |
   200 |GM_Kvz  |    130 |      0 |  25 |       0 |
   205 |GM_PsiY |    155 |      0 |  25 |       0 |
    26 |THETA   |    180 |      0 |  25 |       0 |
------------------------------------------------------------------------
Global & Regional Statistics diagnostics: Number of lists:     0
------------------------------------------------------------------------
(PID.TID 0000.0001) // =======================================================
(PID.TID 0000.0001) // Model current state
(PID.TID 0000.0001) // =======================================================
(PID.TID 0000.0001) 
(PID.TID 0000.0001) // =======================================================
(PID.TID 0000.0001) // Begin MONITOR dynamic field statistics
(PID.TID 0000.0001) // =======================================================
(PID.TID 0000.0001) %MON time_tsnumber                =                     0
(PID.TID 0000.0001) %MON time_secondsf                =   0.0000000000000E+00
(PID.TID 0000.0001) %MON dynstat_eta_max              =   0.0000000000000E+00
(PID.TID 0000.0001) %MON dynstat_eta_min              =   0.0000000000000E+00
(PID.TID 0000.0001) %MON dynstat_eta_mean             =   0.0000000000000E+00
(PID.TID 0000.0001) %MON dynstat_eta_sd               =   0.0000000000000E+00
(PID.TID 0000.0001) %MON dynstat_eta_del2             =   0.0000000000000E+00
(PID.TID 0000.0001) %MON dynstat_uvel_max             =   8.0895360642305E-02
(PID.TID 0000.0001) %MON dynstat_uvel_min             =  -8.0895360642305E-02
(PID.TID 0000.0001) %MON dynstat_uvel_mean            =  -3.3630965570878E-07
(PID.TID 0000.0001) %MON dynstat_uvel_sd              =   1.1329372896604E-02
(PID.TID 0000.0001) %MON dynstat_uvel_del2            =   2.9660365576266E-04
(PID.TID 0000.0001) %MON dynstat_vvel_max             =   0.0000000000000E+00
(PID.TID 0000.0001) %MON dynstat_vvel_min             =   0.0000000000000E+00
(PID.TID 0000.0001) %MON dynstat_vvel_mean            =   0.0000000000000E+00
(PID.TID 0000.0001) %MON dynstat_vvel_sd              =   0.0000000000000E+00
(PID.TID 0000.0001) %MON dynstat_vvel_del2            =   0.0000000000000E+00
(PID.TID 0000.0001) %MON dynstat_wvel_max             =  -0.0000000000000E+00
(PID.TID 0000.0001) %MON dynstat_wvel_min             =  -0.0000000000000E+00
(PID.TID 0000.0001) %MON dynstat_wvel_mean            =   0.0000000000000E+00
(PID.TID 0000.0001) %MON dynstat_wvel_sd              =   0.0000000000000E+00
(PID.TID 0000.0001) %MON dynstat_wvel_del2            =   0.0000000000000E+00
(PID.TID 0000.0001) %MON dynstat_theta_max            =   1.2067089603386E+01
(PID.TID 0000.0001) %MON dynstat_theta_min            =   5.2161060162421E+00
(PID.TID 0000.0001) %MON dynstat_theta_mean           =   7.8249931739521E+00
(PID.TID 0000.0001) %MON dynstat_theta_sd             =   1.4898784690958E+00
(PID.TID 0000.0001) %MON dynstat_theta_del2           =   4.1339219678210E-03
(PID.TID 0000.0001) %MON dynstat_salt_max             =   1.1996530790116E+01
(PID.TID 0000.0001) %MON dynstat_salt_min             =   1.0464440295541E+01
(PID.TID 0000.0001) %MON dynstat_salt_mean            =   1.1305187600793E+01
(PID.TID 0000.0001) %MON dynstat_salt_sd              =   5.1674738579154E-01
(PID.TID 0000.0001) %MON dynstat_salt_del2            =   5.5220927393398E-04
(PID.TID 0000.0001) %MON advcfl_uvel_max              =   2.9122329831230E-03
(PID.TID 0000.0001) %MON advcfl_vvel_max              =   0.0000000000000E+00
(PID.TID 0000.0001) %MON advcfl_wvel_max              =   0.0000000000000E+00
(PID.TID 0000.0001) %MON advcfl_W_hf_max              =   0.0000000000000E+00
(PID.TID 0000.0001) %MON pe_b_mean                    =   0.0000000000000E+00
(PID.TID 0000.0001) %MON ke_max                       =   3.2720296867243E-03
(PID.TID 0000.0001) %MON ke_mean                      =   6.4177345171703E-05
(PID.TID 0000.0001) %MON ke_vol                       =   6.5555965471909E+14
(PID.TID 0000.0001) // =======================================================
(PID.TID 0000.0001) // End MONITOR dynamic field statistics
(PID.TID 0000.0001) // =======================================================
(PID.TID 0000.0001)  MDS_WRITE_FIELD: it,rec,kS,kL,kH=       0     1  25   1  25 file=U.0000000000
(PID.TID 0000.0001)  MDS_WRITE_FIELD: it,rec,kS,kL,kH=       0     1  25   1  25 file=V.0000000000
(PID.TID 0000.0001)  MDS_WRITE_FIELD: it,rec,kS,kL,kH=       0     1  25   1  25 file=T.0000000000
(PID.TID 0000.0001)  MDS_WRITE_FIELD: it,rec,kS,kL,kH=       0     1  25   1  25 file=S.0000000000
(PID.TID 0000.0001)  MDS_WRITE_FIELD: it,rec,kS,kL,kH=       0     1   1   1   1 file=Eta.0000000000
(PID.TID 0000.0001)  MDS_WRITE_FIELD: it,rec,kS,kL,kH=       0     1  25   1  25 file=W.0000000000
(PID.TID 0000.0001) SOLVE_FOR_PRESSURE: putPmEinXvector =    F
 cg2d: Sum(rhs),rhsMax =  -5.40969450225220E-16  5.98601692964638E-01
(PID.TID 0000.0001)      cg2d_init_res =   2.03740086726326E+00
(PID.TID 0000.0001)      cg2d_iters(min,last) =      -1      29
(PID.TID 0000.0001)      cg2d_last_res =   7.92920328129403E-17
(PID.TID 0000.0001) // =======================================================
(PID.TID 0000.0001) // Begin MONITOR dynamic field statistics
(PID.TID 0000.0001) // =======================================================
(PID.TID 0000.0001) %MON time_tsnumber                =                     1
(PID.TID 0000.0001) %MON time_secondsf                =   3.6000000000000E+03
(PID.TID 0000.0001) %MON dynstat_eta_max              =   1.3392755823699E-01
(PID.TID 0000.0001) %MON dynstat_eta_min              =  -5.3477210660601E-02
(PID.TID 0000.0001) %MON dynstat_eta_mean             =  -1.0569890340169E-17
(PID.TID 0000.0001) %MON dynstat_eta_sd               =   4.7438448130679E-02
(PID.TID 0000.0001) %MON dynstat_eta_del2             =   4.6296300363971E-03
(PID.TID 0000.0001) %MON dynstat_uvel_max             =   8.0809684758399E-02
(PID.TID 0000.0001) %MON dynstat_uvel_min             =  -8.0809684758399E-02
(PID.TID 0000.0001) %MON dynstat_uvel_mean            =  -3.4239649523512E-07
(PID.TID 0000.0001) %MON dynstat_uvel_sd              =   1.1329339776381E-02
(PID.TID 0000.0001) %MON dynstat_uvel_del2            =   2.9660477402808E-04
(PID.TID 0000.0001) %MON dynstat_vvel_max             =   3.6691813169986E-03
(PID.TID 0000.0001) %MON dynstat_vvel_min             =  -3.9861945358671E-03
(PID.TID 0000.0001) %MON dynstat_vvel_mean            =   1.2911018842434E-04
(PID.TID 0000.0001) %MON dynstat_vvel_sd              =   1.9006835434475E-03
(PID.TID 0000.0001) %MON dynstat_vvel_del2            =   2.3752269418352E-05
(PID.TID 0000.0001) %MON dynstat_wvel_max             =   3.7360597561364E-05
(PID.TID 0000.0001) %MON dynstat_wvel_min             =  -1.5080851198553E-05
(PID.TID 0000.0001) %MON dynstat_wvel_mean            =  -5.2510216476012E-08
(PID.TID 0000.0001) %MON dynstat_wvel_sd              =   8.6977580128808E-06
(PID.TID 0000.0001) %MON dynstat_wvel_del2            =   2.1279622934064E-07
(PID.TID 0000.0001) %MON dynstat_theta_max            =   1.2068303623561E+01
(PID.TID 0000.0001) %MON dynstat_theta_min            =   5.2161064947941E+00
(PID.TID 0000.0001) %MON dynstat_theta_mean           =   7.8249931739522E+00
(PID.TID 0000.0001) %MON dynstat_theta_sd             =   1.4898782227379E+00
(PID.TID 0000.0001) %MON dynstat_theta_del2           =   4.1334947302589E-03
(PID.TID 0000.0001) %MON dynstat_salt_max             =   1.1996652309510E+01
(PID.TID 0000.0001) %MON dynstat_salt_min             =   1.0464424066477E+01
(PID.TID 0000.0001) %MON dynstat_salt_mean            =   1.1305187600793E+01
(PID.TID 0000.0001) %MON dynstat_salt_sd              =   5.1673897501143E-01
(PID.TID 0000.0001) %MON dynstat_salt_del2            =   5.5225696952702E-04
(PID.TID 0000.0001) %MON advcfl_uvel_max              =   2.9091486513024E-03
(PID.TID 0000.0001) %MON advcfl_vvel_max              =   1.4350300329122E-04
(PID.TID 0000.0001) %MON advcfl_wvel_max              =   6.7249075610455E-03
(PID.TID 0000.0001) %MON advcfl_W_hf_max              =   4.6863033802774E-02
(PID.TID 0000.0001) %MON pe_b_mean                    =   5.0513678449290E-06
(PID.TID 0000.0001) %MON ke_max                       =   3.2662793188192E-03
(PID.TID 0000.0001) %MON ke_mean                      =   6.5921025167111E-05
(PID.TID 0000.0001) %MON ke_vol                       =   6.5555965471909E+14
(PID.TID 0000.0001) // =======================================================
(PID.TID 0000.0001) // End MONITOR dynamic field statistics
(PID.TID 0000.0001) // =======================================================
 Computing Diagnostic #     23  ETAN         Counter:       1   Parms: SM      M1      
(PID.TID 0000.0001)  MDS_WRITE_FIELD: it,rec,kS,kL,kH=       0    -1  50   1   1 file=surfDiag.0000000000
 Computing Diagnostic #     25  DETADT2      Counter:       1   Parms: SM      M1      
(PID.TID 0000.0001)  MDS_WRITE_FIELD: it,rec,kS,kL,kH=       0    -2  50   1   1 file=surfDiag.0000000000
 Computing Diagnostic #     73  PHIBOT       Counter:       1   Parms: SM      M1      
(PID.TID 0000.0001)  MDS_WRITE_FIELD: it,rec,kS,kL,kH=       0    -3  50   1   1 file=surfDiag.0000000000
 Computing Diagnostic #     76  MXLDEPTH     Counter:       1   Parms: SM      M1      
(PID.TID 0000.0001)  MDS_WRITE_FIELD: it,rec,kS,kL,kH=       0    -4  50   1   1 file=surfDiag.0000000000
 Computing Diagnostic #     77  DRHODR       Counter:       1   Parms: SM      LR      
(PID.TID 0000.0001)  MDS_WRITE_FIELD: it,rec,kS,kL,kH=       0    -1  50   1  25 file=oceDiag.0000000000
 Computing Diagnostic #     64  RHOAnoma     Counter:       1   Parms: SMR     MR      
(PID.TID 0000.0001)  MDS_WRITE_FIELD: it,rec,kS,kL,kH=       0    -2  50   1  25 file=oceDiag.0000000000
 Computing Diagnostic #    202  GM_Kwy       Counter:       1   Parms: VM      LR      
           Vector  Mate for  GM_Kwy       Diagnostic #    201  GM_Kwx   not enabled
(PID.TID 0000.0001)  MDS_WRITE_FIELD: it,rec,kS,kL,kH=       0    -3  50   1  25 file=oceDiag.0000000000
 Computing Diagnostic #    203  GM_Kwz       Counter:       1   Parms: WM P    LR      
(PID.TID 0000.0001)  MDS_WRITE_FIELD: it,rec,kS,kL,kH=       0    -4  50   1  25 file=oceDiag.0000000000
 Computing Diagnostic #    198  GM_Kvy       Counter:       1   Parms: VV P    MR      
           Vector  Mate for  GM_Kvy       Diagnostic #    197  GM_Kux   not enabled
(PID.TID 0000.0001)  MDS_WRITE_FIELD: it,rec,kS,kL,kH=       0    -5  50   1  25 file=oceDiag.0000000000
 Computing Diagnostic #    200  GM_Kvz       Counter:       1   Parms: VV      MR      
           Vector  Mate for  GM_Kvz       Diagnostic #    199  GM_Kuz   not enabled
(PID.TID 0000.0001)  MDS_WRITE_FIELD: it,rec,kS,kL,kH=       0    -6  50   1  25 file=oceDiag.0000000000
 Computing Diagnostic #    205  GM_PsiY      Counter:       1   Parms: VV      LR      
           Vector  Mate for  GM_PsiY      Diagnostic #    204  GM_PsiX  not enabled
(PID.TID 0000.0001)  MDS_WRITE_FIELD: it,rec,kS,kL,kH=       0    -7  50   1  25 file=oceDiag.0000000000
 Computing Diagnostic #     26  THETA        Counter:       1   Parms: SMR     MR      
(PID.TID 0000.0001)  MDS_WRITE_FIELD: it,rec,kS,kL,kH=       0    -8  50   1  25 file=oceDiag.0000000000
(PID.TID 0000.0001)  write diagnostics summary to file: diagnostics_status.0000000001.txt
 cg2d: Sum(rhs),rhsMax =   2.94902990916057E-17  6.31601514652239E-01
(PID.TID 0000.0001)      cg2d_init_res =   2.53414817038011E-01
(PID.TID 0000.0001)      cg2d_iters(min,last) =      -1      28
(PID.TID 0000.0001)      cg2d_last_res =   4.42206587633453E-16
(PID.TID 0000.0001) // =======================================================
(PID.TID 0000.0001) // Begin MONITOR dynamic field statistics
(PID.TID 0000.0001) // =======================================================
(PID.TID 0000.0001) %MON time_tsnumber                =                     2
(PID.TID 0000.0001) %MON time_secondsf                =   7.2000000000000E+03
(PID.TID 0000.0001) %MON dynstat_eta_max              =   1.8707689313574E-01
(PID.TID 0000.0001) %MON dynstat_eta_min              =  -4.7009584519428E-02
(PID.TID 0000.0001) %MON dynstat_eta_mean             =  -1.2779235839844E-16
(PID.TID 0000.0001) %MON dynstat_eta_sd               =   6.9142930586627E-02
(PID.TID 0000.0001) %MON dynstat_eta_del2             =   4.9743665333996E-03
(PID.TID 0000.0001) %MON dynstat_uvel_max             =   8.0017957430307E-02
(PID.TID 0000.0001) %MON dynstat_uvel_min             =  -8.0111368157012E-02
(PID.TID 0000.0001) %MON dynstat_uvel_mean            =   7.1013755480590E-05
(PID.TID 0000.0001) %MON dynstat_uvel_sd              =   1.0996475890215E-02
(PID.TID 0000.0001) %MON dynstat_uvel_del2            =   3.0070877009886E-04
(PID.TID 0000.0001) %MON dynstat_vvel_max             =   5.1489101843500E-03
(PID.TID 0000.0001) %MON dynstat_vvel_min             =  -5.4274497830630E-03
(PID.TID 0000.0001) %MON dynstat_vvel_mean            =   5.5284235505182E-05
(PID.TID 0000.0001) %MON dynstat_vvel_sd              =   1.6314955914112E-03
(PID.TID 0000.0001) %MON dynstat_vvel_del2            =   4.4200472441030E-05
(PID.TID 0000.0001) %MON dynstat_wvel_max             =   2.3211845261527E-05
(PID.TID 0000.0001) %MON dynstat_wvel_min             =  -9.6916681905420E-06
(PID.TID 0000.0001) %MON dynstat_wvel_mean            =  -2.9992077035018E-08
(PID.TID 0000.0001) %MON dynstat_wvel_sd              =   6.1026950223444E-06
(PID.TID 0000.0001) %MON dynstat_wvel_del2            =   1.7218107551405E-07
(PID.TID 0000.0001) %MON dynstat_theta_max            =   1.2068861016445E+01
(PID.TID 0000.0001) %MON dynstat_theta_min            =   5.2161097661295E+00
(PID.TID 0000.0001) %MON dynstat_theta_mean           =   7.8249708715486E+00
(PID.TID 0000.0001) %MON dynstat_theta_sd             =   1.4898318468332E+00
(PID.TID 0000.0001) %MON dynstat_theta_del2           =   4.1307017653498E-03
(PID.TID 0000.0001) %MON dynstat_salt_max             =   1.1996761048775E+01
(PID.TID 0000.0001) %MON dynstat_salt_min             =   1.0464111415822E+01
(PID.TID 0000.0001) %MON dynstat_salt_mean            =   1.1305178970052E+01
(PID.TID 0000.0001) %MON dynstat_salt_sd              =   5.1672725726357E-01
(PID.TID 0000.0001) %MON dynstat_salt_del2            =   5.5239879643595E-04
(PID.TID 0000.0001) %MON advcfl_uvel_max              =   2.8840092536524E-03
(PID.TID 0000.0001) %MON advcfl_vvel_max              =   1.9538819219027E-04
(PID.TID 0000.0001) %MON advcfl_wvel_max              =   3.1553604229600E-03
(PID.TID 0000.0001) %MON advcfl_W_hf_max              =   3.4024927437648E-02
(PID.TID 0000.0001) %MON pe_b_mean                    =   1.0731084495960E-05
(PID.TID 0000.0001) %MON ke_max                       =   3.2093231061622E-03
(PID.TID 0000.0001) %MON ke_mean                      =   6.1744356480335E-05
(PID.TID 0000.0001) %MON ke_vol                       =   6.5555965471909E+14
(PID.TID 0000.0001) // =======================================================
(PID.TID 0000.0001) // End MONITOR dynamic field statistics
(PID.TID 0000.0001) // =======================================================
 cg2d: Sum(rhs),rhsMax =   1.71737624121704E-15  6.06889451778802E-01
(PID.TID 0000.0001)      cg2d_init_res =   1.00099474522170E-01
(PID.TID 0000.0001)      cg2d_iters(min,last) =      -1      28
(PID.TID 0000.0001)      cg2d_last_res =   4.95941780551679E-16
(PID.TID 0000.0001) // =======================================================
(PID.TID 0000.0001) // Begin MONITOR dynamic field statistics
(PID.TID 0000.0001) // =======================================================
(PID.TID 0000.0001) %MON time_tsnumber                =                     3
(PID.TID 0000.0001) %MON time_secondsf                =   1.0800000000000E+04
(PID.TID 0000.0001) %MON dynstat_eta_max              =   1.8635362922537E-01
(PID.TID 0000.0001) %MON dynstat_eta_min              =  -4.4813247363911E-02
(PID.TID 0000.0001) %MON dynstat_eta_mean             =  -1.4559427897135E-16
(PID.TID 0000.0001) %MON dynstat_eta_sd               =   7.0314170281589E-02
(PID.TID 0000.0001) %MON dynstat_eta_del2             =   4.8179501651678E-03
(PID.TID 0000.0001) %MON dynstat_uvel_max             =   8.0430516390837E-02
(PID.TID 0000.0001) %MON dynstat_uvel_min             =  -8.0594869463146E-02
(PID.TID 0000.0001) %MON dynstat_uvel_mean            =   7.4682002159356E-05
(PID.TID 0000.0001) %MON dynstat_uvel_sd              =   1.1181050112436E-02
(PID.TID 0000.0001) %MON dynstat_uvel_del2            =   3.1522667919449E-04
(PID.TID 0000.0001) %MON dynstat_vvel_max             =   8.7469556133672E-03
(PID.TID 0000.0001) %MON dynstat_vvel_min             =  -9.2493590735705E-03
(PID.TID 0000.0001) %MON dynstat_vvel_mean            =  -7.4430364176299E-05
(PID.TID 0000.0001) %MON dynstat_vvel_sd              =   1.1405600106734E-03
(PID.TID 0000.0001) %MON dynstat_vvel_del2            =   6.2231958659172E-05
(PID.TID 0000.0001) %MON dynstat_wvel_max             =   1.6935489496289E-05
(PID.TID 0000.0001) %MON dynstat_wvel_min             =  -1.6684984830543E-05
(PID.TID 0000.0001) %MON dynstat_wvel_mean            =  -2.2039946411920E-09
(PID.TID 0000.0001) %MON dynstat_wvel_sd              =   5.4336404961310E-06
(PID.TID 0000.0001) %MON dynstat_wvel_del2            =   2.3659910476850E-07
(PID.TID 0000.0001) %MON dynstat_theta_max            =   1.2069920170040E+01
(PID.TID 0000.0001) %MON dynstat_theta_min            =   5.2161131935048E+00
(PID.TID 0000.0001) %MON dynstat_theta_mean           =   7.8249674790766E+00
(PID.TID 0000.0001) %MON dynstat_theta_sd             =   1.4898254423626E+00
(PID.TID 0000.0001) %MON dynstat_theta_del2           =   4.1296675191078E-03
(PID.TID 0000.0001) %MON dynstat_salt_max             =   1.1996867141886E+01
(PID.TID 0000.0001) %MON dynstat_salt_min             =   1.0464482091256E+01
(PID.TID 0000.0001) %MON dynstat_salt_mean            =   1.1305174089438E+01
(PID.TID 0000.0001) %MON dynstat_salt_sd              =   5.1671906489838E-01
(PID.TID 0000.0001) %MON dynstat_salt_del2            =   5.5239377466250E-04
(PID.TID 0000.0001) %MON advcfl_uvel_max              =   2.9014153006732E-03
(PID.TID 0000.0001) %MON advcfl_vvel_max              =   3.3297692664854E-04
(PID.TID 0000.0001) %MON advcfl_wvel_max              =   1.1447271120852E-03
(PID.TID 0000.0001) %MON advcfl_W_hf_max              =   5.6269460899151E-03
(PID.TID 0000.0001) %MON pe_b_mean                    =   1.1097719953864E-05
(PID.TID 0000.0001) %MON ke_max                       =   3.2516871892166E-03
(PID.TID 0000.0001) %MON ke_mean                      =   6.3138532089999E-05
(PID.TID 0000.0001) %MON ke_vol                       =   6.5555965471909E+14
(PID.TID 0000.0001) // =======================================================
(PID.TID 0000.0001) // End MONITOR dynamic field statistics
(PID.TID 0000.0001) // =======================================================
 cg2d: Sum(rhs),rhsMax =   2.58473797920544E-15  6.07596342272418E-01
(PID.TID 0000.0001)      cg2d_init_res =   5.14397210732129E-02
(PID.TID 0000.0001)      cg2d_iters(min,last) =      -1      28
(PID.TID 0000.0001)      cg2d_last_res =   3.02049711132383E-16
(PID.TID 0000.0001) // =======================================================
(PID.TID 0000.0001) // Begin MONITOR dynamic field statistics
(PID.TID 0000.0001) // =======================================================
(PID.TID 0000.0001) %MON time_tsnumber                =                     4
(PID.TID 0000.0001) %MON time_secondsf                =   1.4400000000000E+04
(PID.TID 0000.0001) %MON dynstat_eta_max              =   1.7457678407807E-01
(PID.TID 0000.0001) %MON dynstat_eta_min              =  -4.0984127222610E-02
(PID.TID 0000.0001) %MON dynstat_eta_mean             =  -3.5095214843750E-16
(PID.TID 0000.0001) %MON dynstat_eta_sd               =   6.4863618156767E-02
(PID.TID 0000.0001) %MON dynstat_eta_del2             =   4.7913023983831E-03
(PID.TID 0000.0001) %MON dynstat_uvel_max             =   8.2720085557509E-02
(PID.TID 0000.0001) %MON dynstat_uvel_min             =  -8.3171532575902E-02
(PID.TID 0000.0001) %MON dynstat_uvel_mean            =   2.1622222145940E-05
(PID.TID 0000.0001) %MON dynstat_uvel_sd              =   1.1529278171796E-02
(PID.TID 0000.0001) %MON dynstat_uvel_del2            =   3.3270958950481E-04
(PID.TID 0000.0001) %MON dynstat_vvel_max             =   1.0377243846963E-02
(PID.TID 0000.0001) %MON dynstat_vvel_min             =  -1.1006942995913E-02
(PID.TID 0000.0001) %MON dynstat_vvel_mean            =  -1.0368977676675E-04
(PID.TID 0000.0001) %MON dynstat_vvel_sd              =   1.2819790916083E-03
(PID.TID 0000.0001) %MON dynstat_vvel_del2            =   7.3956319143213E-05
(PID.TID 0000.0001) %MON dynstat_wvel_max             =   1.6915654911458E-05
(PID.TID 0000.0001) %MON dynstat_wvel_min             =  -2.2016563591312E-05
(PID.TID 0000.0001) %MON dynstat_wvel_mean            =   7.1410625750319E-09
(PID.TID 0000.0001) %MON dynstat_wvel_sd              =   6.4392376056877E-06
(PID.TID 0000.0001) %MON dynstat_wvel_del2            =   2.8967646358357E-07
(PID.TID 0000.0001) %MON dynstat_theta_max            =   1.2071053237898E+01
(PID.TID 0000.0001) %MON dynstat_theta_min            =   5.2161110387442E+00
(PID.TID 0000.0001) %MON dynstat_theta_mean           =   7.8249711883993E+00
(PID.TID 0000.0001) %MON dynstat_theta_sd             =   1.4898328326115E+00
(PID.TID 0000.0001) %MON dynstat_theta_del2           =   4.1284202597694E-03
(PID.TID 0000.0001) %MON dynstat_salt_max             =   1.1996969609163E+01
(PID.TID 0000.0001) %MON dynstat_salt_min             =   1.0464524449403E+01
(PID.TID 0000.0001) %MON dynstat_salt_mean            =   1.1305175036974E+01
(PID.TID 0000.0001) %MON dynstat_salt_sd              =   5.1671150231125E-01
(PID.TID 0000.0001) %MON dynstat_salt_del2            =   5.5246120331214E-04
(PID.TID 0000.0001) %MON advcfl_uvel_max              =   2.9941751727325E-03
(PID.TID 0000.0001) %MON advcfl_vvel_max              =   3.9624994785287E-04
(PID.TID 0000.0001) %MON advcfl_wvel_max              =   1.4248716353568E-03
(PID.TID 0000.0001) %MON advcfl_W_hf_max              =   8.8532366148924E-03
(PID.TID 0000.0001) %MON pe_b_mean                    =   9.4438784642143E-06
(PID.TID 0000.0001) %MON ke_max                       =   3.4848677660991E-03
(PID.TID 0000.0001) %MON ke_mean                      =   6.7257302622170E-05
(PID.TID 0000.0001) %MON ke_vol                       =   6.5555965471909E+14
(PID.TID 0000.0001) // =======================================================
(PID.TID 0000.0001) // End MONITOR dynamic field statistics
(PID.TID 0000.0001) // =======================================================
 cg2d: Sum(rhs),rhsMax =   5.51815537708222E-15  6.12240342473285E-01
(PID.TID 0000.0001)      cg2d_init_res =   3.95986272210179E-02
(PID.TID 0000.0001)      cg2d_iters(min,last) =      -1      28
(PID.TID 0000.0001)      cg2d_last_res =   3.92077779686895E-16
(PID.TID 0000.0001) // =======================================================
(PID.TID 0000.0001) // Begin MONITOR dynamic field statistics
(PID.TID 0000.0001) // =======================================================
(PID.TID 0000.0001) %MON time_tsnumber                =                     5
(PID.TID 0000.0001) %MON time_secondsf                =   1.8000000000000E+04
(PID.TID 0000.0001) %MON dynstat_eta_max              =   1.6596149252639E-01
(PID.TID 0000.0001) %MON dynstat_eta_min              =  -4.5862115906457E-02
(PID.TID 0000.0001) %MON dynstat_eta_mean             =  -3.7050247192383E-16
(PID.TID 0000.0001) %MON dynstat_eta_sd               =   6.0590343289427E-02
(PID.TID 0000.0001) %MON dynstat_eta_del2             =   4.7959595584971E-03
(PID.TID 0000.0001) %MON dynstat_uvel_max             =   8.5587746228607E-02
(PID.TID 0000.0001) %MON dynstat_uvel_min             =  -8.6243548294533E-02
(PID.TID 0000.0001) %MON dynstat_uvel_mean            =  -2.0889608174488E-05
(PID.TID 0000.0001) %MON dynstat_uvel_sd              =   1.1871888367361E-02
(PID.TID 0000.0001) %MON dynstat_uvel_del2            =   3.5109061388856E-04
(PID.TID 0000.0001) %MON dynstat_vvel_max             =   1.0618429284063E-02
(PID.TID 0000.0001) %MON dynstat_vvel_min             =  -1.1140382924070E-02
(PID.TID 0000.0001) %MON dynstat_vvel_mean            =  -4.0767449881813E-05
(PID.TID 0000.0001) %MON dynstat_vvel_sd              =   1.3002187050399E-03
(PID.TID 0000.0001) %MON dynstat_vvel_del2            =   7.9838905120640E-05
(PID.TID 0000.0001) %MON dynstat_wvel_max             =   1.6850329004994E-05
(PID.TID 0000.0001) %MON dynstat_wvel_min             =  -2.2812729494242E-05
(PID.TID 0000.0001) %MON dynstat_wvel_mean            =   6.0228986741386E-09
(PID.TID 0000.0001) %MON dynstat_wvel_sd              =   6.7034470091097E-06
(PID.TID 0000.0001) %MON dynstat_wvel_del2            =   3.2339957236216E-07
(PID.TID 0000.0001) %MON dynstat_theta_max            =   1.2072110319491E+01
(PID.TID 0000.0001) %MON dynstat_theta_min            =   5.2161102771836E+00
(PID.TID 0000.0001) %MON dynstat_theta_mean           =   7.8249742194236E+00
(PID.TID 0000.0001) %MON dynstat_theta_sd             =   1.4898384833821E+00
(PID.TID 0000.0001) %MON dynstat_theta_del2           =   4.1268482774888E-03
(PID.TID 0000.0001) %MON dynstat_salt_max             =   1.1997067415650E+01
(PID.TID 0000.0001) %MON dynstat_salt_min             =   1.0463399714141E+01
(PID.TID 0000.0001) %MON dynstat_salt_mean            =   1.1305177911450E+01
(PID.TID 0000.0001) %MON dynstat_salt_sd              =   5.1670313022705E-01
(PID.TID 0000.0001) %MON dynstat_salt_del2            =   5.5254822467769E-04
(PID.TID 0000.0001) %MON advcfl_uvel_max              =   3.1047677386032E-03
(PID.TID 0000.0001) %MON advcfl_vvel_max              =   4.0105378526653E-04
(PID.TID 0000.0001) %MON advcfl_wvel_max              =   1.4776912872572E-03
(PID.TID 0000.0001) %MON advcfl_W_hf_max              =   8.3037694494383E-03
(PID.TID 0000.0001) %MON pe_b_mean                    =   8.2405248775761E-06
(PID.TID 0000.0001) %MON ke_max                       =   3.7448160088315E-03
(PID.TID 0000.0001) %MON ke_mean                      =   7.1284291368073E-05
(PID.TID 0000.0001) %MON ke_vol                       =   6.5555965471909E+14
(PID.TID 0000.0001) // =======================================================
(PID.TID 0000.0001) // End MONITOR dynamic field statistics
(PID.TID 0000.0001) // =======================================================
 cg2d: Sum(rhs),rhsMax =   6.10449191196238E-15  6.13784209013804E-01
(PID.TID 0000.0001)      cg2d_init_res =   1.51601098815124E-02
(PID.TID 0000.0001)      cg2d_iters(min,last) =      -1      28
(PID.TID 0000.0001)      cg2d_last_res =   3.68548887795811E-16
(PID.TID 0000.0001) // =======================================================
(PID.TID 0000.0001) // Begin MONITOR dynamic field statistics
(PID.TID 0000.0001) // =======================================================
(PID.TID 0000.0001) %MON time_tsnumber                =                     6
(PID.TID 0000.0001) %MON time_secondsf                =   2.1600000000000E+04
(PID.TID 0000.0001) %MON dynstat_eta_max              =   1.6327649981321E-01
(PID.TID 0000.0001) %MON dynstat_eta_min              =  -4.8159973353968E-02
(PID.TID 0000.0001) %MON dynstat_eta_mean             =  -6.1798095703125E-16
(PID.TID 0000.0001) %MON dynstat_eta_sd               =   5.9327257815963E-02
(PID.TID 0000.0001) %MON dynstat_eta_del2             =   4.7990090145110E-03
(PID.TID 0000.0001) %MON dynstat_uvel_max             =   8.8187735497269E-02
(PID.TID 0000.0001) %MON dynstat_uvel_min             =  -8.8964524997112E-02
(PID.TID 0000.0001) %MON dynstat_uvel_mean            =  -2.2301822274494E-05
(PID.TID 0000.0001) %MON dynstat_uvel_sd              =   1.2168464475655E-02
(PID.TID 0000.0001) %MON dynstat_uvel_del2            =   3.6898797339659E-04
(PID.TID 0000.0001) %MON dynstat_vvel_max             =   9.7287250587654E-03
(PID.TID 0000.0001) %MON dynstat_vvel_min             =  -9.9988992740534E-03
(PID.TID 0000.0001) %MON dynstat_vvel_mean            =   3.4449595165006E-05
(PID.TID 0000.0001) %MON dynstat_vvel_sd              =   1.1137422351792E-03
(PID.TID 0000.0001) %MON dynstat_vvel_del2            =   8.0102688822975E-05
(PID.TID 0000.0001) %MON dynstat_wvel_max             =   1.5611031270973E-05
(PID.TID 0000.0001) %MON dynstat_wvel_min             =  -2.1473043461881E-05
(PID.TID 0000.0001) %MON dynstat_wvel_mean            =   1.9413292922780E-09
(PID.TID 0000.0001) %MON dynstat_wvel_sd              =   6.1872628365502E-06
(PID.TID 0000.0001) %MON dynstat_wvel_del2            =   3.3824616599170E-07
(PID.TID 0000.0001) %MON dynstat_theta_max            =   1.2073094782470E+01
(PID.TID 0000.0001) %MON dynstat_theta_min            =   5.2161098855022E+00
(PID.TID 0000.0001) %MON dynstat_theta_mean           =   7.8249754731535E+00
(PID.TID 0000.0001) %MON dynstat_theta_sd             =   1.4898406368683E+00
(PID.TID 0000.0001) %MON dynstat_theta_del2           =   4.1252997469059E-03
(PID.TID 0000.0001) %MON dynstat_salt_max             =   1.1997160276096E+01
(PID.TID 0000.0001) %MON dynstat_salt_min             =   1.0464207830447E+01
(PID.TID 0000.0001) %MON dynstat_salt_mean            =   1.1305179547881E+01
(PID.TID 0000.0001) %MON dynstat_salt_sd              =   5.1669448178541E-01
(PID.TID 0000.0001) %MON dynstat_salt_del2            =   5.5264945112901E-04
(PID.TID 0000.0001) %MON advcfl_uvel_max              =   3.2027228998960E-03
(PID.TID 0000.0001) %MON advcfl_vvel_max              =   3.5996037386592E-04
(PID.TID 0000.0001) %MON advcfl_wvel_max              =   1.2236177515324E-03
(PID.TID 0000.0001) %MON advcfl_W_hf_max              =   2.6764856561510E-03
(PID.TID 0000.0001) %MON pe_b_mean                    =   7.9005367739461E-06
(PID.TID 0000.0001) %MON ke_max                       =   3.9770171834330E-03
(PID.TID 0000.0001) %MON ke_mean                      =   7.4632671208357E-05
(PID.TID 0000.0001) %MON ke_vol                       =   6.5555965471909E+14
(PID.TID 0000.0001) // =======================================================
(PID.TID 0000.0001) // End MONITOR dynamic field statistics
(PID.TID 0000.0001) // =======================================================
 cg2d: Sum(rhs),rhsMax =   8.94943841256435E-15  6.13570948386318E-01
(PID.TID 0000.0001)      cg2d_init_res =   7.34175736025890E-03
(PID.TID 0000.0001)      cg2d_iters(min,last) =      -1      28
(PID.TID 0000.0001)      cg2d_last_res =   6.26854711375517E-16
(PID.TID 0000.0001) // =======================================================
(PID.TID 0000.0001) // Begin MONITOR dynamic field statistics
(PID.TID 0000.0001) // =======================================================
(PID.TID 0000.0001) %MON time_tsnumber                =                     7
(PID.TID 0000.0001) %MON time_secondsf                =   2.5200000000000E+04
(PID.TID 0000.0001) %MON dynstat_eta_max              =   1.6465970820029E-01
(PID.TID 0000.0001) %MON dynstat_eta_min              =  -4.7122324515998E-02
(PID.TID 0000.0001) %MON dynstat_eta_mean             =  -7.1175893147786E-16
(PID.TID 0000.0001) %MON dynstat_eta_sd               =   5.9997990061249E-02
(PID.TID 0000.0001) %MON dynstat_eta_del2             =   4.8015316704394E-03
(PID.TID 0000.0001) %MON dynstat_uvel_max             =   9.0275997791800E-02
(PID.TID 0000.0001) %MON dynstat_uvel_min             =  -9.1062579566546E-02
(PID.TID 0000.0001) %MON dynstat_uvel_mean            =   5.1959881236486E-06
(PID.TID 0000.0001) %MON dynstat_uvel_sd              =   1.2388447616344E-02
(PID.TID 0000.0001) %MON dynstat_uvel_del2            =   3.8453466594959E-04
(PID.TID 0000.0001) %MON dynstat_vvel_max             =   7.8903631259864E-03
(PID.TID 0000.0001) %MON dynstat_vvel_min             =  -7.9375952623194E-03
(PID.TID 0000.0001) %MON dynstat_vvel_mean            =   6.9824859341621E-05
(PID.TID 0000.0001) %MON dynstat_vvel_sd              =   8.6069749714132E-04
(PID.TID 0000.0001) %MON dynstat_vvel_del2            =   7.5983950078352E-05
(PID.TID 0000.0001) %MON dynstat_wvel_max             =   1.5336428922747E-05
(PID.TID 0000.0001) %MON dynstat_wvel_min             =  -1.8766486049449E-05
(PID.TID 0000.0001) %MON dynstat_wvel_mean            =  -1.0002287065046E-09
(PID.TID 0000.0001) %MON dynstat_wvel_sd              =   5.2257681001532E-06
(PID.TID 0000.0001) %MON dynstat_wvel_del2            =   3.3721198004306E-07
(PID.TID 0000.0001) %MON dynstat_theta_max            =   1.2074014031048E+01
(PID.TID 0000.0001) %MON dynstat_theta_min            =   5.2161093893203E+00
(PID.TID 0000.0001) %MON dynstat_theta_mean           =   7.8249753494851E+00
(PID.TID 0000.0001) %MON dynstat_theta_sd             =   1.4898401386668E+00
(PID.TID 0000.0001) %MON dynstat_theta_del2           =   4.1239099316976E-03
(PID.TID 0000.0001) %MON dynstat_salt_max             =   1.1997248258977E+01
(PID.TID 0000.0001) %MON dynstat_salt_min             =   1.0464240394812E+01
(PID.TID 0000.0001) %MON dynstat_salt_mean            =   1.1305179504449E+01
(PID.TID 0000.0001) %MON dynstat_salt_sd              =   5.1668598758778E-01
(PID.TID 0000.0001) %MON dynstat_salt_del2            =   5.5273129989481E-04
(PID.TID 0000.0001) %MON advcfl_uvel_max              =   3.2782528643956E-03
(PID.TID 0000.0001) %MON advcfl_vvel_max              =   2.8575342944350E-04
(PID.TID 0000.0001) %MON advcfl_wvel_max              =   9.8547699909211E-04
(PID.TID 0000.0001) %MON advcfl_W_hf_max              =   1.7728629572876E-03
(PID.TID 0000.0001) %MON pe_b_mean                    =   8.0801877492441E-06
(PID.TID 0000.0001) %MON ke_max                       =   4.1577570513652E-03
(PID.TID 0000.0001) %MON ke_mean                      =   7.7095167341185E-05
(PID.TID 0000.0001) %MON ke_vol                       =   6.5555965471909E+14
(PID.TID 0000.0001) // =======================================================
(PID.TID 0000.0001) // End MONITOR dynamic field statistics
(PID.TID 0000.0001) // =======================================================
 cg2d: Sum(rhs),rhsMax =   1.08073272553355E-14  6.13225526872777E-01
(PID.TID 0000.0001)      cg2d_init_res =   1.09210046453014E-02
(PID.TID 0000.0001)      cg2d_iters(min,last) =      -1      28
(PID.TID 0000.0001)      cg2d_last_res =   6.90977993590485E-16
(PID.TID 0000.0001) // =======================================================
(PID.TID 0000.0001) // Begin MONITOR dynamic field statistics
(PID.TID 0000.0001) // =======================================================
(PID.TID 0000.0001) %MON time_tsnumber                =                     8
(PID.TID 0000.0001) %MON time_secondsf                =   2.8800000000000E+04
(PID.TID 0000.0001) %MON dynstat_eta_max              =   1.6692287835069E-01
(PID.TID 0000.0001) %MON dynstat_eta_min              =  -4.6277274435047E-02
(PID.TID 0000.0001) %MON dynstat_eta_mean             =  -7.7883402506510E-16
(PID.TID 0000.0001) %MON dynstat_eta_sd               =   6.1080422155242E-02
(PID.TID 0000.0001) %MON dynstat_eta_del2             =   4.8046745697807E-03
(PID.TID 0000.0001) %MON dynstat_uvel_max             =   9.1655282614393E-02
(PID.TID 0000.0001) %MON dynstat_uvel_min             =  -9.2387090269354E-02
(PID.TID 0000.0001) %MON dynstat_uvel_mean            =   3.6847148241006E-05
(PID.TID 0000.0001) %MON dynstat_uvel_sd              =   1.2514550584769E-02
(PID.TID 0000.0001) %MON dynstat_uvel_del2            =   3.9610169377918E-04
(PID.TID 0000.0001) %MON dynstat_vvel_max             =   5.3543535622065E-03
(PID.TID 0000.0001) %MON dynstat_vvel_min             =  -5.3083000370684E-03
(PID.TID 0000.0001) %MON dynstat_vvel_mean            =   6.0417462938849E-05
(PID.TID 0000.0001) %MON dynstat_vvel_sd              =   5.6937872077548E-04
(PID.TID 0000.0001) %MON dynstat_vvel_del2            =   6.9714972101913E-05
(PID.TID 0000.0001) %MON dynstat_wvel_max             =   1.3588453729366E-05
(PID.TID 0000.0001) %MON dynstat_wvel_min             =  -1.5205198841702E-05
(PID.TID 0000.0001) %MON dynstat_wvel_mean            =  -1.5887084965813E-09
(PID.TID 0000.0001) %MON dynstat_wvel_sd              =   4.0474616788878E-06
(PID.TID 0000.0001) %MON dynstat_wvel_del2            =   3.2469181727882E-07
(PID.TID 0000.0001) %MON dynstat_theta_max            =   1.2074879919472E+01
(PID.TID 0000.0001) %MON dynstat_theta_min            =   5.2161093442344E+00
(PID.TID 0000.0001) %MON dynstat_theta_mean           =   7.8249746896427E+00
(PID.TID 0000.0001) %MON dynstat_theta_sd             =   1.4898386019203E+00
(PID.TID 0000.0001) %MON dynstat_theta_del2           =   4.1227574440865E-03
(PID.TID 0000.0001) %MON dynstat_salt_max             =   1.1997331632915E+01
(PID.TID 0000.0001) %MON dynstat_salt_min             =   1.0464169585982E+01
(PID.TID 0000.0001) %MON dynstat_salt_mean            =   1.1305178792681E+01
(PID.TID 0000.0001) %MON dynstat_salt_sd              =   5.1667759043597E-01
(PID.TID 0000.0001) %MON dynstat_salt_del2            =   5.5281903904263E-04
(PID.TID 0000.0001) %MON advcfl_uvel_max              =   3.3259352496967E-03
(PID.TID 0000.0001) %MON advcfl_vvel_max              =   1.9275672823943E-04
(PID.TID 0000.0001) %MON advcfl_wvel_max              =   8.3574968123181E-04
(PID.TID 0000.0001) %MON advcfl_W_hf_max              =   2.6474276404872E-03
(PID.TID 0000.0001) %MON pe_b_mean                    =   8.3743692954722E-06
(PID.TID 0000.0001) %MON ke_max                       =   4.2725367482133E-03
(PID.TID 0000.0001) %MON ke_mean                      =   7.8465212664168E-05
(PID.TID 0000.0001) %MON ke_vol                       =   6.5555965471909E+14
(PID.TID 0000.0001) // =======================================================
(PID.TID 0000.0001) // End MONITOR dynamic field statistics
(PID.TID 0000.0001) // =======================================================
 cg2d: Sum(rhs),rhsMax =   1.15896875430010E-14  6.13296918210553E-01
(PID.TID 0000.0001)      cg2d_init_res =   5.49482182189047E-03
(PID.TID 0000.0001)      cg2d_iters(min,last) =      -1      28
(PID.TID 0000.0001)      cg2d_last_res =   6.72032842392855E-16
(PID.TID 0000.0001) // =======================================================
(PID.TID 0000.0001) // Begin MONITOR dynamic field statistics
(PID.TID 0000.0001) // =======================================================
(PID.TID 0000.0001) %MON time_tsnumber                =                     9
(PID.TID 0000.0001) %MON time_secondsf                =   3.2400000000000E+04
(PID.TID 0000.0001) %MON dynstat_eta_max              =   1.6806381802414E-01
(PID.TID 0000.0001) %MON dynstat_eta_min              =  -4.5934024138171E-02
(PID.TID 0000.0001) %MON dynstat_eta_mean             =  -9.3062718709310E-16
(PID.TID 0000.0001) %MON dynstat_eta_sd               =   6.1608584561503E-02
(PID.TID 0000.0001) %MON dynstat_eta_del2             =   4.8079192740675E-03
(PID.TID 0000.0001) %MON dynstat_uvel_max             =   9.2210204862632E-02
(PID.TID 0000.0001) %MON dynstat_uvel_min             =  -9.2879570219817E-02
(PID.TID 0000.0001) %MON dynstat_uvel_mean            =   5.5961511151898E-05
(PID.TID 0000.0001) %MON dynstat_uvel_sd              =   1.2539701138739E-02
(PID.TID 0000.0001) %MON dynstat_uvel_del2            =   4.0259664491005E-04
(PID.TID 0000.0001) %MON dynstat_vvel_max             =   4.5578227145690E-03
(PID.TID 0000.0001) %MON dynstat_vvel_min             =  -4.6380411370848E-03
(PID.TID 0000.0001) %MON dynstat_vvel_mean            =   2.6737007206221E-05
(PID.TID 0000.0001) %MON dynstat_vvel_sd              =   3.7041823487715E-04
(PID.TID 0000.0001) %MON dynstat_vvel_del2            =   6.4193619425890E-05
(PID.TID 0000.0001) %MON dynstat_wvel_max             =   1.0946376545097E-05
(PID.TID 0000.0001) %MON dynstat_wvel_min             =  -1.0950101350971E-05
(PID.TID 0000.0001) %MON dynstat_wvel_mean            =  -7.5499089777175E-10
(PID.TID 0000.0001) %MON dynstat_wvel_sd              =   3.1476022406072E-06
(PID.TID 0000.0001) %MON dynstat_wvel_del2            =   3.0628666084632E-07
(PID.TID 0000.0001) %MON dynstat_theta_max            =   1.2075705683418E+01
(PID.TID 0000.0001) %MON dynstat_theta_min            =   5.2161099053259E+00
(PID.TID 0000.0001) %MON dynstat_theta_mean           =   7.8249742243989E+00
(PID.TID 0000.0001) %MON dynstat_theta_sd             =   1.4898374426905E+00
(PID.TID 0000.0001) %MON dynstat_theta_del2           =   4.1219012973768E-03
(PID.TID 0000.0001) %MON dynstat_salt_max             =   1.1997410797755E+01
(PID.TID 0000.0001) %MON dynstat_salt_min             =   1.0464079642900E+01
(PID.TID 0000.0001) %MON dynstat_salt_mean            =   1.1305178298219E+01
(PID.TID 0000.0001) %MON dynstat_salt_sd              =   5.1666918054846E-01
(PID.TID 0000.0001) %MON dynstat_salt_del2            =   5.5292352556865E-04
(PID.TID 0000.0001) %MON advcfl_uvel_max              =   3.3436645279134E-03
(PID.TID 0000.0001) %MON advcfl_vvel_max              =   1.6696948093505E-04
(PID.TID 0000.0001) %MON advcfl_wvel_max              =   6.7292870832424E-04
(PID.TID 0000.0001) %MON advcfl_W_hf_max              =   1.3767318119855E-03
(PID.TID 0000.0001) %MON pe_b_mean                    =   8.5198217936221E-06
(PID.TID 0000.0001) %MON ke_max                       =   4.3148031566904E-03
(PID.TID 0000.0001) %MON ke_mean                      =   7.8689898215702E-05
(PID.TID 0000.0001) %MON ke_vol                       =   6.5555965471909E+14
(PID.TID 0000.0001) // =======================================================
(PID.TID 0000.0001) // End MONITOR dynamic field statistics
(PID.TID 0000.0001) // =======================================================
 cg2d: Sum(rhs),rhsMax =   1.44641243426946E-14  6.13661878723051E-01
(PID.TID 0000.0001)      cg2d_init_res =   2.20066829252377E-03
(PID.TID 0000.0001)      cg2d_iters(min,last) =      -1      28
(PID.TID 0000.0001)      cg2d_last_res =   6.38584679405245E-16
(PID.TID 0000.0001) // =======================================================
(PID.TID 0000.0001) // Begin MONITOR dynamic field statistics
(PID.TID 0000.0001) // =======================================================
(PID.TID 0000.0001) %MON time_tsnumber                =                    10
(PID.TID 0000.0001) %MON time_secondsf                =   3.6000000000000E+04
(PID.TID 0000.0001) %MON dynstat_eta_max              =   1.6789601206743E-01
(PID.TID 0000.0001) %MON dynstat_eta_min              =  -4.6010036044422E-02
(PID.TID 0000.0001) %MON dynstat_eta_mean             =  -9.3173980712891E-16
(PID.TID 0000.0001) %MON dynstat_eta_sd               =   6.1528712579568E-02
(PID.TID 0000.0001) %MON dynstat_eta_del2             =   4.8110028375305E-03
(PID.TID 0000.0001) %MON dynstat_uvel_max             =   9.1916948492636E-02
(PID.TID 0000.0001) %MON dynstat_uvel_min             =  -9.2539754228832E-02
(PID.TID 0000.0001) %MON dynstat_uvel_mean            =   5.8352412097615E-05
(PID.TID 0000.0001) %MON dynstat_uvel_sd              =   1.2463905911450E-02
(PID.TID 0000.0001) %MON dynstat_uvel_del2            =   4.0355638416250E-04
(PID.TID 0000.0001) %MON dynstat_vvel_max             =   3.8139995176923E-03
(PID.TID 0000.0001) %MON dynstat_vvel_min             =  -3.7628565205257E-03
(PID.TID 0000.0001) %MON dynstat_vvel_mean            =  -7.8469078344710E-06
(PID.TID 0000.0001) %MON dynstat_vvel_sd              =   5.1175410246122E-04
(PID.TID 0000.0001) %MON dynstat_vvel_del2            =   6.1964415359911E-05
(PID.TID 0000.0001) %MON dynstat_wvel_max             =   9.9328410107086E-06
(PID.TID 0000.0001) %MON dynstat_wvel_min             =  -1.1558647795386E-05
(PID.TID 0000.0001) %MON dynstat_wvel_mean            =   1.1772667031339E-10
(PID.TID 0000.0001) %MON dynstat_wvel_sd              =   3.2004868753181E-06
(PID.TID 0000.0001) %MON dynstat_wvel_del2            =   2.8742568562261E-07
(PID.TID 0000.0001) %MON dynstat_theta_max            =   1.2076497493006E+01
(PID.TID 0000.0001) %MON dynstat_theta_min            =   5.2161100560900E+00
(PID.TID 0000.0001) %MON dynstat_theta_mean           =   7.8249741622677E+00
(PID.TID 0000.0001) %MON dynstat_theta_sd             =   1.4898370693707E+00
(PID.TID 0000.0001) %MON dynstat_theta_del2           =   4.1213623338584E-03
(PID.TID 0000.0001) %MON dynstat_salt_max             =   1.1997486120175E+01
(PID.TID 0000.0001) %MON dynstat_salt_min             =   1.0463991984387E+01
(PID.TID 0000.0001) %MON dynstat_salt_mean            =   1.1305178236796E+01
(PID.TID 0000.0001) %MON dynstat_salt_sd              =   5.1666074041188E-01
(PID.TID 0000.0001) %MON dynstat_salt_del2            =   5.5303320188454E-04
(PID.TID 0000.0001) %MON advcfl_uvel_max              =   3.3314311522379E-03
(PID.TID 0000.0001) %MON advcfl_vvel_max              =   1.3730398263692E-04
(PID.TID 0000.0001) %MON advcfl_wvel_max              =   6.3186718746288E-04
(PID.TID 0000.0001) %MON advcfl_W_hf_max              =   6.9505390620917E-04
(PID.TID 0000.0001) %MON pe_b_mean                    =   8.4977451968002E-06
(PID.TID 0000.0001) %MON ke_max                       =   4.2839037921558E-03
(PID.TID 0000.0001) %MON ke_mean                      =   7.7802060480973E-05
(PID.TID 0000.0001) %MON ke_vol                       =   6.5555965471909E+14
(PID.TID 0000.0001) // =======================================================
(PID.TID 0000.0001) // End MONITOR dynamic field statistics
(PID.TID 0000.0001) // =======================================================
 cg2d: Sum(rhs),rhsMax =   1.45924938799169E-14  6.14032549553857E-01
(PID.TID 0000.0001)      cg2d_init_res =   3.36547094032228E-03
(PID.TID 0000.0001)      cg2d_iters(min,last) =      -1      28
(PID.TID 0000.0001)      cg2d_last_res =   5.91185980127833E-16
(PID.TID 0000.0001) // =======================================================
(PID.TID 0000.0001) // Begin MONITOR dynamic field statistics
(PID.TID 0000.0001) // =======================================================
(PID.TID 0000.0001) %MON time_tsnumber                =                    11
(PID.TID 0000.0001) %MON time_secondsf                =   3.9600000000000E+04
(PID.TID 0000.0001) %MON dynstat_eta_max              =   1.6730606025951E-01
(PID.TID 0000.0001) %MON dynstat_eta_min              =  -4.6140493328530E-02
(PID.TID 0000.0001) %MON dynstat_eta_mean             =  -1.1512438456217E-15
(PID.TID 0000.0001) %MON dynstat_eta_sd               =   6.1253866687491E-02
(PID.TID 0000.0001) %MON dynstat_eta_del2             =   4.8140466999182E-03
(PID.TID 0000.0001) %MON dynstat_uvel_max             =   9.0850110380697E-02
(PID.TID 0000.0001) %MON dynstat_uvel_min             =  -9.1433665346930E-02
(PID.TID 0000.0001) %MON dynstat_uvel_mean            =   4.8604126864459E-05
(PID.TID 0000.0001) %MON dynstat_uvel_sd              =   1.2297313345999E-02
(PID.TID 0000.0001) %MON dynstat_uvel_del2            =   3.9917541086341E-04
(PID.TID 0000.0001) %MON dynstat_vvel_max             =   5.7736674833148E-03
(PID.TID 0000.0001) %MON dynstat_vvel_min             =  -5.7602113591178E-03
(PID.TID 0000.0001) %MON dynstat_vvel_mean            =  -2.8798540448168E-05
(PID.TID 0000.0001) %MON dynstat_vvel_sd              =   7.8086800656422E-04
(PID.TID 0000.0001) %MON dynstat_vvel_del2            =   6.3536246663053E-05
(PID.TID 0000.0001) %MON dynstat_wvel_max             =   1.0411539247853E-05
(PID.TID 0000.0001) %MON dynstat_wvel_min             =  -1.7663170551653E-05
(PID.TID 0000.0001) %MON dynstat_wvel_mean            =   3.9539921676693E-10
(PID.TID 0000.0001) %MON dynstat_wvel_sd              =   4.0332578885807E-06
(PID.TID 0000.0001) %MON dynstat_wvel_del2            =   2.7167076873313E-07
(PID.TID 0000.0001) %MON dynstat_theta_max            =   1.2077255737046E+01
(PID.TID 0000.0001) %MON dynstat_theta_min            =   5.2161113708432E+00
(PID.TID 0000.0001) %MON dynstat_theta_mean           =   7.8249743152894E+00
(PID.TID 0000.0001) %MON dynstat_theta_sd             =   1.4898371167397E+00
(PID.TID 0000.0001) %MON dynstat_theta_del2           =   4.1211195027607E-03
(PID.TID 0000.0001) %MON dynstat_salt_max             =   1.1997557919013E+01
(PID.TID 0000.0001) %MON dynstat_salt_min             =   1.0463906403595E+01
(PID.TID 0000.0001) %MON dynstat_salt_mean            =   1.1305178396919E+01
(PID.TID 0000.0001) %MON dynstat_salt_sd              =   5.1665229184239E-01
(PID.TID 0000.0001) %MON dynstat_salt_del2            =   5.5314676275211E-04
(PID.TID 0000.0001) %MON advcfl_uvel_max              =   3.2916119524895E-03
(PID.TID 0000.0001) %MON advcfl_vvel_max              =   2.0785202939933E-04
(PID.TID 0000.0001) %MON advcfl_wvel_max              =   9.6210908798995E-04
(PID.TID 0000.0001) %MON advcfl_W_hf_max              =   1.0583199967889E-03
(PID.TID 0000.0001) %MON pe_b_mean                    =   8.4219966943671E-06
(PID.TID 0000.0001) %MON ke_max                       =   4.1858366900731E-03
(PID.TID 0000.0001) %MON ke_mean                      =   7.5906556997500E-05
(PID.TID 0000.0001) %MON ke_vol                       =   6.5555965471909E+14
(PID.TID 0000.0001) // =======================================================
(PID.TID 0000.0001) // End MONITOR dynamic field statistics
(PID.TID 0000.0001) // =======================================================
 cg2d: Sum(rhs),rhsMax =   1.69638608715772E-14  6.14242126256564E-01
(PID.TID 0000.0001)      cg2d_init_res =   2.61217473214272E-03
(PID.TID 0000.0001)      cg2d_iters(min,last) =      -1      28
(PID.TID 0000.0001)      cg2d_last_res =   5.38678869299322E-16
(PID.TID 0000.0001) // =======================================================
(PID.TID 0000.0001) // Begin MONITOR dynamic field statistics
(PID.TID 0000.0001) // =======================================================
(PID.TID 0000.0001) %MON time_tsnumber                =                    12
(PID.TID 0000.0001) %MON time_secondsf                =   4.3200000000000E+04
(PID.TID 0000.0001) %MON dynstat_eta_max              =   1.6697432773055E-01
(PID.TID 0000.0001) %MON dynstat_eta_min              =  -4.6121909867441E-02
(PID.TID 0000.0001) %MON dynstat_eta_mean             =  -1.2191136678060E-15
(PID.TID 0000.0001) %MON dynstat_eta_sd               =   6.1098907768254E-02
(PID.TID 0000.0001) %MON dynstat_eta_del2             =   4.8171283872864E-03
(PID.TID 0000.0001) %MON dynstat_uvel_max             =   8.9243906612230E-02
(PID.TID 0000.0001) %MON dynstat_uvel_min             =  -8.9778631010203E-02
(PID.TID 0000.0001) %MON dynstat_uvel_mean            =   3.4505013255450E-05
(PID.TID 0000.0001) %MON dynstat_uvel_sd              =   1.2062463827479E-02
(PID.TID 0000.0001) %MON dynstat_uvel_del2            =   3.9025732427378E-04
(PID.TID 0000.0001) %MON dynstat_vvel_max             =   7.1872825886246E-03
(PID.TID 0000.0001) %MON dynstat_vvel_min             =  -7.1639722226694E-03
(PID.TID 0000.0001) %MON dynstat_vvel_mean            =  -3.2556274684459E-05
(PID.TID 0000.0001) %MON dynstat_vvel_sd              =   9.9706995376868E-04
(PID.TID 0000.0001) %MON dynstat_vvel_del2            =   6.7026149027137E-05
(PID.TID 0000.0001) %MON dynstat_wvel_max             =   1.5250217650873E-05
(PID.TID 0000.0001) %MON dynstat_wvel_min             =  -2.1760672713708E-05
(PID.TID 0000.0001) %MON dynstat_wvel_mean            =   2.2381643007825E-10
(PID.TID 0000.0001) %MON dynstat_wvel_sd              =   4.9358616336498E-06
(PID.TID 0000.0001) %MON dynstat_wvel_del2            =   2.5954933633019E-07
(PID.TID 0000.0001) %MON dynstat_theta_max            =   1.2077981102098E+01
(PID.TID 0000.0001) %MON dynstat_theta_min            =   5.2161138095447E+00
(PID.TID 0000.0001) %MON dynstat_theta_mean           =   7.8249744496701E+00
(PID.TID 0000.0001) %MON dynstat_theta_sd             =   1.4898371284259E+00
(PID.TID 0000.0001) %MON dynstat_theta_del2           =   4.1211168618461E-03
(PID.TID 0000.0001) %MON dynstat_salt_max             =   1.1997626555022E+01
(PID.TID 0000.0001) %MON dynstat_salt_min             =   1.0463823317791E+01
(PID.TID 0000.0001) %MON dynstat_salt_mean            =   1.1305178535866E+01
(PID.TID 0000.0001) %MON dynstat_salt_sd              =   5.1664384520277E-01
(PID.TID 0000.0001) %MON dynstat_salt_del2            =   5.5329099607915E-04
(PID.TID 0000.0001) %MON advcfl_uvel_max              =   3.2320307163673E-03
(PID.TID 0000.0001) %MON advcfl_vvel_max              =   2.5874217319049E-04
(PID.TID 0000.0001) %MON advcfl_wvel_max              =   1.1782376009703E-03
(PID.TID 0000.0001) %MON advcfl_W_hf_max              =   1.2960613610673E-03
(PID.TID 0000.0001) %MON pe_b_mean                    =   8.3794389649340E-06
(PID.TID 0000.0001) %MON ke_max                       =   4.0345785392695E-03
(PID.TID 0000.0001) %MON ke_mean                      =   7.3230362449267E-05
(PID.TID 0000.0001) %MON ke_vol                       =   6.5555965471909E+14
(PID.TID 0000.0001) // =======================================================
(PID.TID 0000.0001) // End MONITOR dynamic field statistics
(PID.TID 0000.0001) // =======================================================
 cg2d: Sum(rhs),rhsMax =   1.81157172596258E-14  6.14286368152414E-01
(PID.TID 0000.0001)      cg2d_init_res =   1.92465069985086E-03
(PID.TID 0000.0001)      cg2d_iters(min,last) =      -1      28
(PID.TID 0000.0001)      cg2d_last_res =   4.87332398088626E-16
(PID.TID 0000.0001) // =======================================================
(PID.TID 0000.0001) // Begin MONITOR dynamic field statistics
(PID.TID 0000.0001) // =======================================================
(PID.TID 0000.0001) %MON time_tsnumber                =                    13
(PID.TID 0000.0001) %MON time_secondsf                =   4.6800000000000E+04
(PID.TID 0000.0001) %MON dynstat_eta_max              =   1.6705444181265E-01
(PID.TID 0000.0001) %MON dynstat_eta_min              =  -4.5986300202791E-02
(PID.TID 0000.0001) %MON dynstat_eta_mean             =  -1.3022422790527E-15
(PID.TID 0000.0001) %MON dynstat_eta_sd               =   6.1111399620224E-02
(PID.TID 0000.0001) %MON dynstat_eta_del2             =   4.8201186834706E-03
(PID.TID 0000.0001) %MON dynstat_uvel_max             =   8.9323395304681E-02
(PID.TID 0000.0001) %MON dynstat_uvel_min             =  -8.9853762433529E-02
(PID.TID 0000.0001) %MON dynstat_uvel_mean            =   2.2757001122870E-05
(PID.TID 0000.0001) %MON dynstat_uvel_sd              =   1.1792383772147E-02
(PID.TID 0000.0001) %MON dynstat_uvel_del2            =   3.7809081747279E-04
(PID.TID 0000.0001) %MON dynstat_vvel_max             =   7.8707906460497E-03
(PID.TID 0000.0001) %MON dynstat_vvel_min             =  -7.8130834787591E-03
(PID.TID 0000.0001) %MON dynstat_vvel_mean            =  -2.3307966850583E-05
(PID.TID 0000.0001) %MON dynstat_vvel_sd              =   1.1081643564967E-03
(PID.TID 0000.0001) %MON dynstat_vvel_del2            =   6.9816170461541E-05
(PID.TID 0000.0001) %MON dynstat_wvel_max             =   1.8663888145745E-05
(PID.TID 0000.0001) %MON dynstat_wvel_min             =  -2.3449243915643E-05
(PID.TID 0000.0001) %MON dynstat_wvel_mean            =  -1.6995475348747E-11
(PID.TID 0000.0001) %MON dynstat_wvel_sd              =   5.5053650413984E-06
(PID.TID 0000.0001) %MON dynstat_wvel_del2            =   2.4896601092672E-07
(PID.TID 0000.0001) %MON dynstat_theta_max            =   1.2078677998775E+01
(PID.TID 0000.0001) %MON dynstat_theta_min            =   5.2161167001312E+00
(PID.TID 0000.0001) %MON dynstat_theta_mean           =   7.8249744782459E+00
(PID.TID 0000.0001) %MON dynstat_theta_sd             =   1.4898369337458E+00
(PID.TID 0000.0001) %MON dynstat_theta_del2           =   4.1212734957372E-03
(PID.TID 0000.0001) %MON dynstat_salt_max             =   1.1997692506253E+01
(PID.TID 0000.0001) %MON dynstat_salt_min             =   1.0463742985738E+01
(PID.TID 0000.0001) %MON dynstat_salt_mean            =   1.1305178566383E+01
(PID.TID 0000.0001) %MON dynstat_salt_sd              =   5.1663540304951E-01
(PID.TID 0000.0001) %MON dynstat_salt_del2            =   5.5342909425182E-04
(PID.TID 0000.0001) %MON advcfl_uvel_max              =   3.2347354476070E-03
(PID.TID 0000.0001) %MON advcfl_vvel_max              =   2.8334846325779E-04
(PID.TID 0000.0001) %MON advcfl_wvel_max              =   1.2681590493884E-03
(PID.TID 0000.0001) %MON advcfl_W_hf_max              =   1.3949749543272E-03
(PID.TID 0000.0001) %MON pe_b_mean                    =   8.3828657172443E-06
(PID.TID 0000.0001) %MON ke_max                       =   4.0368647923997E-03
(PID.TID 0000.0001) %MON ke_mean                      =   7.0120810142731E-05
(PID.TID 0000.0001) %MON ke_vol                       =   6.5555965471909E+14
(PID.TID 0000.0001) // =======================================================
(PID.TID 0000.0001) // End MONITOR dynamic field statistics
(PID.TID 0000.0001) // =======================================================
 cg2d: Sum(rhs),rhsMax =   2.01019756396192E-14  6.14237099826511E-01
(PID.TID 0000.0001)      cg2d_init_res =   1.81774854689156E-03
(PID.TID 0000.0001)      cg2d_iters(min,last) =      -1      27
(PID.TID 0000.0001)      cg2d_last_res =   9.21318977297622E-14
(PID.TID 0000.0001) // =======================================================
(PID.TID 0000.0001) // Begin MONITOR dynamic field statistics
(PID.TID 0000.0001) // =======================================================
(PID.TID 0000.0001) %MON time_tsnumber                =                    14
(PID.TID 0000.0001) %MON time_secondsf                =   5.0400000000000E+04
(PID.TID 0000.0001) %MON dynstat_eta_max              =   1.6726513237076E-01
(PID.TID 0000.0001) %MON dynstat_eta_min              =  -4.5863458700947E-02
(PID.TID 0000.0001) %MON dynstat_eta_mean             =  -1.4839172363281E-15
(PID.TID 0000.0001) %MON dynstat_eta_sd               =   6.1192470154606E-02
(PID.TID 0000.0001) %MON dynstat_eta_del2             =   4.8227780940098E-03
(PID.TID 0000.0001) %MON dynstat_uvel_max             =   8.9138300878143E-02
(PID.TID 0000.0001) %MON dynstat_uvel_min             =  -8.9645945750815E-02
(PID.TID 0000.0001) %MON dynstat_uvel_mean            =   1.6959676348441E-05
(PID.TID 0000.0001) %MON dynstat_uvel_sd              =   1.1524818423261E-02
(PID.TID 0000.0001) %MON dynstat_uvel_del2            =   3.6426828284550E-04
(PID.TID 0000.0001) %MON dynstat_vvel_max             =   7.7285318939388E-03
(PID.TID 0000.0001) %MON dynstat_vvel_min             =  -7.6397160045611E-03
(PID.TID 0000.0001) %MON dynstat_vvel_mean            =  -8.3927801736190E-06
(PID.TID 0000.0001) %MON dynstat_vvel_sd              =   1.0981101531808E-03
(PID.TID 0000.0001) %MON dynstat_vvel_del2            =   7.0039253536297E-05
(PID.TID 0000.0001) %MON dynstat_wvel_max             =   2.0067347160073E-05
(PID.TID 0000.0001) %MON dynstat_wvel_min             =  -2.2568933318801E-05
(PID.TID 0000.0001) %MON dynstat_wvel_mean            =  -1.1531079747792E-10
(PID.TID 0000.0001) %MON dynstat_wvel_sd              =   5.5853238214457E-06
(PID.TID 0000.0001) %MON dynstat_wvel_del2            =   2.3714475616359E-07
(PID.TID 0000.0001) %MON dynstat_theta_max            =   1.2079354207084E+01
(PID.TID 0000.0001) %MON dynstat_theta_min            =   5.2161172036529E+00
(PID.TID 0000.0001) %MON dynstat_theta_mean           =   7.8249744389871E+00
(PID.TID 0000.0001) %MON dynstat_theta_sd             =   1.4898366065007E+00
(PID.TID 0000.0001) %MON dynstat_theta_del2           =   4.1214965886495E-03
(PID.TID 0000.0001) %MON dynstat_salt_max             =   1.1997756300304E+01
(PID.TID 0000.0001) %MON dynstat_salt_min             =   1.0463665406746E+01
(PID.TID 0000.0001) %MON dynstat_salt_mean            =   1.1305178527756E+01
(PID.TID 0000.0001) %MON dynstat_salt_sd              =   5.1662696634271E-01
(PID.TID 0000.0001) %MON dynstat_salt_del2            =   5.5356498958850E-04
(PID.TID 0000.0001) %MON advcfl_uvel_max              =   3.2272540470293E-03
(PID.TID 0000.0001) %MON advcfl_vvel_max              =   2.7822714818180E-04
(PID.TID 0000.0001) %MON advcfl_wvel_max              =   1.2322368382489E-03
(PID.TID 0000.0001) %MON advcfl_W_hf_max              =   1.3554605220737E-03
(PID.TID 0000.0001) %MON pe_b_mean                    =   8.4051219309573E-06
(PID.TID 0000.0001) %MON ke_max                       =   4.0183311648945E-03
(PID.TID 0000.0001) %MON ke_mean                      =   6.6990370345161E-05
(PID.TID 0000.0001) %MON ke_vol                       =   6.5555965471909E+14
(PID.TID 0000.0001) // =======================================================
(PID.TID 0000.0001) // End MONITOR dynamic field statistics
(PID.TID 0000.0001) // =======================================================
 cg2d: Sum(rhs),rhsMax =   2.21923174281713E-14  6.14152064773632E-01
(PID.TID 0000.0001)      cg2d_init_res =   1.57133881095555E-03
(PID.TID 0000.0001)      cg2d_iters(min,last) =      -1      28
(PID.TID 0000.0001)      cg2d_last_res =   3.45323466908701E-16
(PID.TID 0000.0001) // =======================================================
(PID.TID 0000.0001) // Begin MONITOR dynamic field statistics
(PID.TID 0000.0001) // =======================================================
(PID.TID 0000.0001) %MON time_tsnumber                =                    15
(PID.TID 0000.0001) %MON time_secondsf                =   5.4000000000000E+04
(PID.TID 0000.0001) %MON dynstat_eta_max              =   1.6741150149789E-01
(PID.TID 0000.0001) %MON dynstat_eta_min              =  -4.5837279398844E-02
(PID.TID 0000.0001) %MON dynstat_eta_mean             =  -1.7040570576986E-15
(PID.TID 0000.0001) %MON dynstat_eta_sd               =   6.1249761675364E-02
(PID.TID 0000.0001) %MON dynstat_eta_del2             =   4.8248945768078E-03
(PID.TID 0000.0001) %MON dynstat_uvel_max             =   8.8741538964302E-02
(PID.TID 0000.0001) %MON dynstat_uvel_min             =  -8.9212290866290E-02
(PID.TID 0000.0001) %MON dynstat_uvel_mean            =   1.7494610466642E-05
(PID.TID 0000.0001) %MON dynstat_uvel_sd              =   1.1295141805090E-02
(PID.TID 0000.0001) %MON dynstat_uvel_del2            =   3.5047368161866E-04
(PID.TID 0000.0001) %MON dynstat_vvel_max             =   6.7682241330270E-03
(PID.TID 0000.0001) %MON dynstat_vvel_min             =  -6.6714623292356E-03
(PID.TID 0000.0001) %MON dynstat_vvel_mean            =   5.3077570088430E-06
(PID.TID 0000.0001) %MON dynstat_vvel_sd              =   9.7382087878553E-04
(PID.TID 0000.0001) %MON dynstat_vvel_del2            =   6.7043673926141E-05
(PID.TID 0000.0001) %MON dynstat_wvel_max             =   1.9412918276037E-05
(PID.TID 0000.0001) %MON dynstat_wvel_min             =  -1.9208813914793E-05
(PID.TID 0000.0001) %MON dynstat_wvel_mean            =  -8.0395465394388E-11
(PID.TID 0000.0001) %MON dynstat_wvel_sd              =   5.1632089134061E-06
(PID.TID 0000.0001) %MON dynstat_wvel_del2            =   2.2281707644825E-07
(PID.TID 0000.0001) %MON dynstat_theta_max            =   1.2080017166419E+01
(PID.TID 0000.0001) %MON dynstat_theta_min            =   5.2161177054429E+00
(PID.TID 0000.0001) %MON dynstat_theta_mean           =   7.8249743967253E+00
(PID.TID 0000.0001) %MON dynstat_theta_sd             =   1.4898362732423E+00
(PID.TID 0000.0001) %MON dynstat_theta_del2           =   4.1216870964498E-03
(PID.TID 0000.0001) %MON dynstat_salt_max             =   1.1997818455392E+01
(PID.TID 0000.0001) %MON dynstat_salt_min             =   1.0463590476632E+01
(PID.TID 0000.0001) %MON dynstat_salt_mean            =   1.1305178485714E+01
(PID.TID 0000.0001) %MON dynstat_salt_sd              =   5.1661853307285E-01
(PID.TID 0000.0001) %MON dynstat_salt_del2            =   5.5369595091328E-04
(PID.TID 0000.0001) %MON advcfl_uvel_max              =   3.2116424711864E-03
(PID.TID 0000.0001) %MON advcfl_vvel_max              =   2.4365606878897E-04
(PID.TID 0000.0001) %MON advcfl_wvel_max              =   1.0783211209039E-03
(PID.TID 0000.0001) %MON advcfl_W_hf_max              =   1.1861532329943E-03
(PID.TID 0000.0001) %MON pe_b_mean                    =   8.4208679088069E-06
(PID.TID 0000.0001) %MON ke_max                       =   3.9799395222439E-03
(PID.TID 0000.0001) %MON ke_mean                      =   6.4246002176234E-05
(PID.TID 0000.0001) %MON ke_vol                       =   6.5555965471909E+14
(PID.TID 0000.0001) // =======================================================
(PID.TID 0000.0001) // End MONITOR dynamic field statistics
(PID.TID 0000.0001) // =======================================================
 cg2d: Sum(rhs),rhsMax =   2.61700383585861E-14  6.14041094453700E-01
(PID.TID 0000.0001)      cg2d_init_res =   1.30324524178039E-03
(PID.TID 0000.0001)      cg2d_iters(min,last) =      -1      27
(PID.TID 0000.0001)      cg2d_last_res =   3.91533225425809E-14
(PID.TID 0000.0001) // =======================================================
(PID.TID 0000.0001) // Begin MONITOR dynamic field statistics
(PID.TID 0000.0001) // =======================================================
(PID.TID 0000.0001) %MON time_tsnumber                =                    16
(PID.TID 0000.0001) %MON time_secondsf                =   5.7600000000000E+04
(PID.TID 0000.0001) %MON dynstat_eta_max              =   1.6744194264728E-01
(PID.TID 0000.0001) %MON dynstat_eta_min              =  -4.5899966419171E-02
(PID.TID 0000.0001) %MON dynstat_eta_mean             =  -1.9531250000000E-15
(PID.TID 0000.0001) %MON dynstat_eta_sd               =   6.1258255030766E-02
(PID.TID 0000.0001) %MON dynstat_eta_del2             =   4.8263362483355E-03
(PID.TID 0000.0001) %MON dynstat_uvel_max             =   8.8203900834080E-02
(PID.TID 0000.0001) %MON dynstat_uvel_min             =  -8.8630629644961E-02
(PID.TID 0000.0001) %MON dynstat_uvel_mean            =   2.2455890437218E-05
(PID.TID 0000.0001) %MON dynstat_uvel_sd              =   1.1130742416410E-02
(PID.TID 0000.0001) %MON dynstat_uvel_del2            =   3.3827289942688E-04
(PID.TID 0000.0001) %MON dynstat_vvel_max             =   5.0964838559603E-03
(PID.TID 0000.0001) %MON dynstat_vvel_min             =  -5.0233898171519E-03
(PID.TID 0000.0001) %MON dynstat_vvel_mean            =   1.3376890930851E-05
(PID.TID 0000.0001) %MON dynstat_vvel_sd              =   7.6485007216494E-04
(PID.TID 0000.0001) %MON dynstat_vvel_del2            =   6.1432459073840E-05
(PID.TID 0000.0001) %MON dynstat_wvel_max             =   1.6896530849337E-05
(PID.TID 0000.0001) %MON dynstat_wvel_min             =  -1.3821321043392E-05
(PID.TID 0000.0001) %MON dynstat_wvel_mean            =  -9.8301536639131E-12
(PID.TID 0000.0001) %MON dynstat_wvel_sd              =   4.3459113032688E-06
(PID.TID 0000.0001) %MON dynstat_wvel_del2            =   2.0762638218323E-07
(PID.TID 0000.0001) %MON dynstat_theta_max            =   1.2080673231658E+01
(PID.TID 0000.0001) %MON dynstat_theta_min            =   5.2161181836417E+00
(PID.TID 0000.0001) %MON dynstat_theta_mean           =   7.8249743822688E+00
(PID.TID 0000.0001) %MON dynstat_theta_sd             =   1.4898359942148E+00
(PID.TID 0000.0001) %MON dynstat_theta_del2           =   4.1217555615518E-03
(PID.TID 0000.0001) %MON dynstat_salt_max             =   1.1997879419488E+01
(PID.TID 0000.0001) %MON dynstat_salt_min             =   1.0463518085422E+01
(PID.TID 0000.0001) %MON dynstat_salt_mean            =   1.1305178471381E+01
(PID.TID 0000.0001) %MON dynstat_salt_sd              =   5.1661009725712E-01
(PID.TID 0000.0001) %MON dynstat_salt_del2            =   5.5381300012425E-04
(PID.TID 0000.0001) %MON advcfl_uvel_max              =   3.1907026672186E-03
(PID.TID 0000.0001) %MON advcfl_vvel_max              =   1.8347341881457E-04
(PID.TID 0000.0001) %MON advcfl_wvel_max              =   9.5725177226691E-04
(PID.TID 0000.0001) %MON advcfl_W_hf_max              =   1.0529769494936E-03
(PID.TID 0000.0001) %MON pe_b_mean                    =   8.4232034732512E-06
(PID.TID 0000.0001) %MON ke_max                       =   3.9285489166300E-03
(PID.TID 0000.0001) %MON ke_mean                      =   6.2228172884759E-05
(PID.TID 0000.0001) %MON ke_vol                       =   6.5555965471909E+14
(PID.TID 0000.0001) // =======================================================
(PID.TID 0000.0001) // End MONITOR dynamic field statistics
(PID.TID 0000.0001) // =======================================================
 cg2d: Sum(rhs),rhsMax =   3.04339886625371E-14  6.13885227148694E-01
(PID.TID 0000.0001)      cg2d_init_res =   1.08227090448437E-03
(PID.TID 0000.0001)      cg2d_iters(min,last) =      -1      27
(PID.TID 0000.0001)      cg2d_last_res =   3.41244820025808E-14
(PID.TID 0000.0001) // =======================================================
(PID.TID 0000.0001) // Begin MONITOR dynamic field statistics
(PID.TID 0000.0001) // =======================================================
(PID.TID 0000.0001) %MON time_tsnumber                =                    17
(PID.TID 0000.0001) %MON time_secondsf                =   6.1200000000000E+04
(PID.TID 0000.0001) %MON dynstat_eta_max              =   1.6740386439296E-01
(PID.TID 0000.0001) %MON dynstat_eta_min              =  -4.5989389882967E-02
(PID.TID 0000.0001) %MON dynstat_eta_mean             =  -2.0842552185059E-15
(PID.TID 0000.0001) %MON dynstat_eta_sd               =   6.1239695261390E-02
(PID.TID 0000.0001) %MON dynstat_eta_del2             =   4.8270486851413E-03
(PID.TID 0000.0001) %MON dynstat_uvel_max             =   8.7604517286188E-02
(PID.TID 0000.0001) %MON dynstat_uvel_min             =  -8.7988110803476E-02
(PID.TID 0000.0001) %MON dynstat_uvel_mean            =   2.8935563305090E-05
(PID.TID 0000.0001) %MON dynstat_uvel_sd              =   1.1048211396356E-02
(PID.TID 0000.0001) %MON dynstat_uvel_del2            =   3.2894071779410E-04
(PID.TID 0000.0001) %MON dynstat_vvel_max             =   4.1121674650481E-03
(PID.TID 0000.0001) %MON dynstat_vvel_min             =  -4.2232549737821E-03
(PID.TID 0000.0001) %MON dynstat_vvel_mean            =   1.4502663100289E-05
(PID.TID 0000.0001) %MON dynstat_vvel_sd              =   5.3485278019949E-04
(PID.TID 0000.0001) %MON dynstat_vvel_del2            =   5.5054213608429E-05
(PID.TID 0000.0001) %MON dynstat_wvel_max             =   1.2906407893405E-05
(PID.TID 0000.0001) %MON dynstat_wvel_min             =  -9.0156760589370E-06
(PID.TID 0000.0001) %MON dynstat_wvel_mean            =   2.8546367997065E-11
(PID.TID 0000.0001) %MON dynstat_wvel_sd              =   3.3856079510496E-06
(PID.TID 0000.0001) %MON dynstat_wvel_del2            =   1.9629409600989E-07
(PID.TID 0000.0001) %MON dynstat_theta_max            =   1.2081326820178E+01
(PID.TID 0000.0001) %MON dynstat_theta_min            =   5.2161186405336E+00
(PID.TID 0000.0001) %MON dynstat_theta_mean           =   7.8249743901466E+00
(PID.TID 0000.0001) %MON dynstat_theta_sd             =   1.4898357589834E+00
(PID.TID 0000.0001) %MON dynstat_theta_del2           =   4.1216248591736E-03
(PID.TID 0000.0001) %MON dynstat_salt_max             =   1.1997939535593E+01
(PID.TID 0000.0001) %MON dynstat_salt_min             =   1.0463448139310E+01
(PID.TID 0000.0001) %MON dynstat_salt_mean            =   1.1305178479142E+01
(PID.TID 0000.0001) %MON dynstat_salt_sd              =   5.1660166045237E-01
(PID.TID 0000.0001) %MON dynstat_salt_del2            =   5.5393788894130E-04
(PID.TID 0000.0001) %MON advcfl_uvel_max              =   3.1675719889251E-03
(PID.TID 0000.0001) %MON advcfl_vvel_max              =   1.5203717905616E-04
(PID.TID 0000.0001) %MON advcfl_wvel_max              =   7.5738560507964E-04
(PID.TID 0000.0001) %MON advcfl_W_hf_max              =   8.3312416558761E-04
(PID.TID 0000.0001) %MON pe_b_mean                    =   8.4181001926802E-06
(PID.TID 0000.0001) %MON ke_max                       =   3.8718805500324E-03
(PID.TID 0000.0001) %MON ke_mean                      =   6.1169477821853E-05
(PID.TID 0000.0001) %MON ke_vol                       =   6.5555965471909E+14
(PID.TID 0000.0001) // =======================================================
(PID.TID 0000.0001) // End MONITOR dynamic field statistics
(PID.TID 0000.0001) // =======================================================
 cg2d: Sum(rhs),rhsMax =   3.13603309987087E-14  6.13668999679770E-01
(PID.TID 0000.0001)      cg2d_init_res =   8.84822926747320E-04
(PID.TID 0000.0001)      cg2d_iters(min,last) =      -1      27
(PID.TID 0000.0001)      cg2d_last_res =   7.71092066417140E-14
(PID.TID 0000.0001) // =======================================================
(PID.TID 0000.0001) // Begin MONITOR dynamic field statistics
(PID.TID 0000.0001) // =======================================================
(PID.TID 0000.0001) %MON time_tsnumber                =                    18
(PID.TID 0000.0001) %MON time_secondsf                =   6.4800000000000E+04
(PID.TID 0000.0001) %MON dynstat_eta_max              =   1.6735670706916E-01
(PID.TID 0000.0001) %MON dynstat_eta_min              =  -4.6046126258436E-02
(PID.TID 0000.0001) %MON dynstat_eta_mean             =  -2.1090507507324E-15
(PID.TID 0000.0001) %MON dynstat_eta_sd               =   6.1221274560982E-02
(PID.TID 0000.0001) %MON dynstat_eta_del2             =   4.8270225127456E-03
(PID.TID 0000.0001) %MON dynstat_uvel_max             =   8.7022658014719E-02
(PID.TID 0000.0001) %MON dynstat_uvel_min             =  -8.7371193601741E-02
(PID.TID 0000.0001) %MON dynstat_uvel_mean            =   3.4238596864658E-05
(PID.TID 0000.0001) %MON dynstat_uvel_sd              =   1.1053044327712E-02
(PID.TID 0000.0001) %MON dynstat_uvel_del2            =   3.2334818645972E-04
(PID.TID 0000.0001) %MON dynstat_vvel_max             =   3.6448424818576E-03
(PID.TID 0000.0001) %MON dynstat_vvel_min             =  -3.7229736852744E-03
(PID.TID 0000.0001) %MON dynstat_vvel_mean            =   1.0084523598991E-05
(PID.TID 0000.0001) %MON dynstat_vvel_sd              =   4.2470342267494E-04
(PID.TID 0000.0001) %MON dynstat_vvel_del2            =   5.0754374735324E-05
(PID.TID 0000.0001) %MON dynstat_wvel_max             =   8.0934778595940E-06
(PID.TID 0000.0001) %MON dynstat_wvel_min             =  -9.9120810023057E-06
(PID.TID 0000.0001) %MON dynstat_wvel_mean            =   2.6625356988818E-11
(PID.TID 0000.0001) %MON dynstat_wvel_sd              =   2.7640797988357E-06
(PID.TID 0000.0001) %MON dynstat_wvel_del2            =   1.9467445849839E-07
(PID.TID 0000.0001) %MON dynstat_theta_max            =   1.2081980531826E+01
(PID.TID 0000.0001) %MON dynstat_theta_min            =   5.2161189337809E+00
(PID.TID 0000.0001) %MON dynstat_theta_mean           =   7.8249744027741E+00
(PID.TID 0000.0001) %MON dynstat_theta_sd             =   1.4898355333507E+00
(PID.TID 0000.0001) %MON dynstat_theta_del2           =   4.1212586022292E-03
(PID.TID 0000.0001) %MON dynstat_salt_max             =   1.1997999029756E+01
(PID.TID 0000.0001) %MON dynstat_salt_min             =   1.0463380552263E+01
(PID.TID 0000.0001) %MON dynstat_salt_mean            =   1.1305178491186E+01
(PID.TID 0000.0001) %MON dynstat_salt_sd              =   5.1659322315896E-01
(PID.TID 0000.0001) %MON dynstat_salt_del2            =   5.5403873605132E-04
(PID.TID 0000.0001) %MON advcfl_uvel_max              =   3.1453629696627E-03
(PID.TID 0000.0001) %MON advcfl_vvel_max              =   1.3402705266988E-04
(PID.TID 0000.0001) %MON advcfl_wvel_max              =   6.0499843466810E-04
(PID.TID 0000.0001) %MON advcfl_W_hf_max              =   6.6549827813491E-04
(PID.TID 0000.0001) %MON pe_b_mean                    =   8.4130366802273E-06
(PID.TID 0000.0001) %MON ke_max                       =   3.8175846276840E-03
(PID.TID 0000.0001) %MON ke_mean                      =   6.1172208247010E-05
(PID.TID 0000.0001) %MON ke_vol                       =   6.5555965471909E+14
(PID.TID 0000.0001) // =======================================================
(PID.TID 0000.0001) // End MONITOR dynamic field statistics
(PID.TID 0000.0001) // =======================================================
 cg2d: Sum(rhs),rhsMax =   3.21964677141295E-14  6.13392802193161E-01
(PID.TID 0000.0001)      cg2d_init_res =   9.21340912285081E-04
(PID.TID 0000.0001)      cg2d_iters(min,last) =      -1      28
(PID.TID 0000.0001)      cg2d_last_res =   1.73589992970285E-16
(PID.TID 0000.0001) // =======================================================
(PID.TID 0000.0001) // Begin MONITOR dynamic field statistics
(PID.TID 0000.0001) // =======================================================
(PID.TID 0000.0001) %MON time_tsnumber                =                    19
(PID.TID 0000.0001) %MON time_secondsf                =   6.8400000000000E+04
(PID.TID 0000.0001) %MON dynstat_eta_max              =   1.6732595639494E-01
(PID.TID 0000.0001) %MON dynstat_eta_min              =  -4.6044783270421E-02
(PID.TID 0000.0001) %MON dynstat_eta_mean             =  -2.1678606669108E-15
(PID.TID 0000.0001) %MON dynstat_eta_sd               =   6.1214292631045E-02
(PID.TID 0000.0001) %MON dynstat_eta_del2             =   4.8262775862593E-03
(PID.TID 0000.0001) %MON dynstat_uvel_max             =   8.6530063402487E-02
(PID.TID 0000.0001) %MON dynstat_uvel_min             =  -8.6856557746293E-02
(PID.TID 0000.0001) %MON dynstat_uvel_mean            =   3.6740755309258E-05
(PID.TID 0000.0001) %MON dynstat_uvel_sd              =   1.1140719043047E-02
(PID.TID 0000.0001) %MON dynstat_uvel_del2            =   3.2191287624840E-04
(PID.TID 0000.0001) %MON dynstat_vvel_max             =   3.2966984254547E-03
(PID.TID 0000.0001) %MON dynstat_vvel_min             =  -3.4332483669091E-03
(PID.TID 0000.0001) %MON dynstat_vvel_mean            =   3.1183220653089E-06
(PID.TID 0000.0001) %MON dynstat_vvel_sd              =   5.4617902088430E-04
(PID.TID 0000.0001) %MON dynstat_vvel_del2            =   5.1004748218653E-05
(PID.TID 0000.0001) %MON dynstat_wvel_max             =   8.6467566894101E-06
(PID.TID 0000.0001) %MON dynstat_wvel_min             =  -1.2778993174502E-05
(PID.TID 0000.0001) %MON dynstat_wvel_mean            =   7.7395821604117E-12
(PID.TID 0000.0001) %MON dynstat_wvel_sd              =   2.9817328320181E-06
(PID.TID 0000.0001) %MON dynstat_wvel_del2            =   2.0545118872598E-07
(PID.TID 0000.0001) %MON dynstat_theta_max            =   1.2082635354983E+01
(PID.TID 0000.0001) %MON dynstat_theta_min            =   5.2161190378739E+00
(PID.TID 0000.0001) %MON dynstat_theta_mean           =   7.8249744092072E+00
(PID.TID 0000.0001) %MON dynstat_theta_sd             =   1.4898352961025E+00
(PID.TID 0000.0001) %MON dynstat_theta_del2           =   4.1206425076336E-03
(PID.TID 0000.0001) %MON dynstat_salt_max             =   1.1998058010180E+01
(PID.TID 0000.0001) %MON dynstat_salt_min             =   1.0463315240680E+01
(PID.TID 0000.0001) %MON dynstat_salt_mean            =   1.1305178496504E+01
(PID.TID 0000.0001) %MON dynstat_salt_sd              =   5.1658478764003E-01
(PID.TID 0000.0001) %MON dynstat_salt_del2            =   5.5411340820898E-04
(PID.TID 0000.0001) %MON advcfl_uvel_max              =   3.1268360788665E-03
(PID.TID 0000.0001) %MON advcfl_vvel_max              =   1.2359694120873E-04
(PID.TID 0000.0001) %MON advcfl_wvel_max              =   6.2913262741470E-04
(PID.TID 0000.0001) %MON advcfl_W_hf_max              =   6.9293120570917E-04
(PID.TID 0000.0001) %MON pe_b_mean                    =   8.4111178739416E-06
(PID.TID 0000.0001) %MON ke_max                       =   3.7724071090641E-03
(PID.TID 0000.0001) %MON ke_mean                      =   6.2201844501508E-05
(PID.TID 0000.0001) %MON ke_vol                       =   6.5555965471909E+14
(PID.TID 0000.0001) // =======================================================
(PID.TID 0000.0001) // End MONITOR dynamic field statistics
(PID.TID 0000.0001) // =======================================================
 cg2d: Sum(rhs),rhsMax =   3.30117877478386E-14  6.13081553736205E-01
(PID.TID 0000.0001)      cg2d_init_res =   1.20413018188634E-03
(PID.TID 0000.0001)      cg2d_iters(min,last) =      -1      28
(PID.TID 0000.0001)      cg2d_last_res =   3.15841252953156E-16
(PID.TID 0000.0001) // =======================================================
(PID.TID 0000.0001) // Begin MONITOR dynamic field statistics
(PID.TID 0000.0001) // =======================================================
(PID.TID 0000.0001) %MON time_tsnumber                =                    20
(PID.TID 0000.0001) %MON time_secondsf                =   7.2000000000000E+04
(PID.TID 0000.0001) %MON dynstat_eta_max              =   1.6730585422853E-01
(PID.TID 0000.0001) %MON dynstat_eta_min              =  -4.5993987206440E-02
(PID.TID 0000.0001) %MON dynstat_eta_mean             =  -2.0872751871745E-15
(PID.TID 0000.0001) %MON dynstat_eta_sd               =   6.1215883599348E-02
(PID.TID 0000.0001) %MON dynstat_eta_del2             =   4.8248817957544E-03
(PID.TID 0000.0001) %MON dynstat_uvel_max             =   8.6183315531080E-02
(PID.TID 0000.0001) %MON dynstat_uvel_min             =  -8.6502762545116E-02
(PID.TID 0000.0001) %MON dynstat_uvel_mean            =   3.6205963227549E-05
(PID.TID 0000.0001) %MON dynstat_uvel_sd              =   1.1298099418755E-02
(PID.TID 0000.0001) %MON dynstat_uvel_del2            =   3.2459449475528E-04
(PID.TID 0000.0001) %MON dynstat_vvel_max             =   4.0729119931586E-03
(PID.TID 0000.0001) %MON dynstat_vvel_min             =  -4.2553865670855E-03
(PID.TID 0000.0001) %MON dynstat_vvel_mean            =  -3.2155750053612E-06
(PID.TID 0000.0001) %MON dynstat_vvel_sd              =   7.5150628809823E-04
(PID.TID 0000.0001) %MON dynstat_vvel_del2            =   5.5670457980576E-05
(PID.TID 0000.0001) %MON dynstat_wvel_max             =   1.5193113863338E-05
(PID.TID 0000.0001) %MON dynstat_wvel_min             =  -1.4531590352172E-05
(PID.TID 0000.0001) %MON dynstat_wvel_mean            =  -6.7230351804003E-12
(PID.TID 0000.0001) %MON dynstat_wvel_sd              =   3.7875001447771E-06
(PID.TID 0000.0001) %MON dynstat_wvel_del2            =   2.2544166342311E-07
(PID.TID 0000.0001) %MON dynstat_theta_max            =   1.2083290762177E+01
(PID.TID 0000.0001) %MON dynstat_theta_min            =   5.2161192056988E+00
(PID.TID 0000.0001) %MON dynstat_theta_mean           =   7.8249744086844E+00
(PID.TID 0000.0001) %MON dynstat_theta_sd             =   1.4898350454723E+00
(PID.TID 0000.0001) %MON dynstat_theta_del2           =   4.1197935429666E-03
(PID.TID 0000.0001) %MON dynstat_salt_max             =   1.1998116472609E+01
(PID.TID 0000.0001) %MON dynstat_salt_min             =   1.0463252123602E+01
(PID.TID 0000.0001) %MON dynstat_salt_mean            =   1.1305178494479E+01
(PID.TID 0000.0001) %MON dynstat_salt_sd              =   5.1657635122247E-01
(PID.TID 0000.0001) %MON dynstat_salt_del2            =   5.5421895461893E-04
(PID.TID 0000.0001) %MON advcfl_uvel_max              =   3.1140994516242E-03
(PID.TID 0000.0001) %MON advcfl_vvel_max              =   1.5319391641508E-04
(PID.TID 0000.0001) %MON advcfl_wvel_max              =   7.5596353339513E-04
(PID.TID 0000.0001) %MON advcfl_W_hf_max              =   8.3155988673464E-04
(PID.TID 0000.0001) %MON pe_b_mean                    =   8.4115550919589E-06
(PID.TID 0000.0001) %MON ke_max                       =   3.7414508127967E-03
(PID.TID 0000.0001) %MON ke_mean                      =   6.4095583556995E-05
(PID.TID 0000.0001) %MON ke_vol                       =   6.5555965471909E+14
(PID.TID 0000.0001) // =======================================================
(PID.TID 0000.0001) // End MONITOR dynamic field statistics
(PID.TID 0000.0001) // =======================================================
 cg2d: Sum(rhs),rhsMax =   3.18963605527856E-14  6.12764220555495E-01
(PID.TID 0000.0001)      cg2d_init_res =   1.53643574513267E-03
(PID.TID 0000.0001)      cg2d_iters(min,last) =      -1      28
(PID.TID 0000.0001)      cg2d_last_res =   3.66016853323754E-16
(PID.TID 0000.0001) // =======================================================
(PID.TID 0000.0001) // Begin MONITOR dynamic field statistics
(PID.TID 0000.0001) // =======================================================
(PID.TID 0000.0001) %MON time_tsnumber                =                    21
(PID.TID 0000.0001) %MON time_secondsf                =   7.5600000000000E+04
(PID.TID 0000.0001) %MON dynstat_eta_max              =   1.6728154740253E-01
(PID.TID 0000.0001) %MON dynstat_eta_min              =  -4.5919483145781E-02
(PID.TID 0000.0001) %MON dynstat_eta_mean             =  -1.9222895304362E-15
(PID.TID 0000.0001) %MON dynstat_eta_sd               =   6.1219278438250E-02
(PID.TID 0000.0001) %MON dynstat_eta_del2             =   4.8229304825077E-03
(PID.TID 0000.0001) %MON dynstat_uvel_max             =   8.6017368873938E-02
(PID.TID 0000.0001) %MON dynstat_uvel_min             =  -8.6343841256501E-02
(PID.TID 0000.0001) %MON dynstat_uvel_mean            =   3.3550049155575E-05
(PID.TID 0000.0001) %MON dynstat_uvel_sd              =   1.1504836290856E-02
(PID.TID 0000.0001) %MON dynstat_uvel_del2            =   3.3091682501454E-04
(PID.TID 0000.0001) %MON dynstat_vvel_max             =   5.7565349944173E-03
(PID.TID 0000.0001) %MON dynstat_vvel_min             =  -5.9724612344628E-03
(PID.TID 0000.0001) %MON dynstat_vvel_mean            =  -6.7439486240105E-06
(PID.TID 0000.0001) %MON dynstat_vvel_sd              =   9.1753468297276E-04
(PID.TID 0000.0001) %MON dynstat_vvel_del2            =   6.2190196950862E-05
(PID.TID 0000.0001) %MON dynstat_wvel_max             =   2.0137842770147E-05
(PID.TID 0000.0001) %MON dynstat_wvel_min             =  -1.4971743535421E-05
(PID.TID 0000.0001) %MON dynstat_wvel_mean            =  -1.0460144719624E-11
(PID.TID 0000.0001) %MON dynstat_wvel_sd              =   4.6184945830483E-06
(PID.TID 0000.0001) %MON dynstat_wvel_del2            =   2.4796951915588E-07
(PID.TID 0000.0001) %MON dynstat_theta_max            =   1.2083945225340E+01
(PID.TID 0000.0001) %MON dynstat_theta_min            =   5.2161165787449E+00
(PID.TID 0000.0001) %MON dynstat_theta_mean           =   7.8249744053362E+00
(PID.TID 0000.0001) %MON dynstat_theta_sd             =   1.4898347892789E+00
(PID.TID 0000.0001) %MON dynstat_theta_del2           =   4.1187638271144E-03
(PID.TID 0000.0001) %MON dynstat_salt_max             =   1.1998174330330E+01
(PID.TID 0000.0001) %MON dynstat_salt_min             =   1.0463191124733E+01
(PID.TID 0000.0001) %MON dynstat_salt_mean            =   1.1305178489421E+01
(PID.TID 0000.0001) %MON dynstat_salt_sd              =   5.1656791731760E-01
(PID.TID 0000.0001) %MON dynstat_salt_del2            =   5.5431082089388E-04
(PID.TID 0000.0001) %MON advcfl_uvel_max              =   3.1083782852340E-03
(PID.TID 0000.0001) %MON advcfl_vvel_max              =   2.1500860444066E-04
(PID.TID 0000.0001) %MON advcfl_wvel_max              =   9.8546049442365E-04
(PID.TID 0000.0001) %MON advcfl_W_hf_max              =   1.0840065438660E-03
(PID.TID 0000.0001) %MON pe_b_mean                    =   8.4124880742041E-06
(PID.TID 0000.0001) %MON ke_max                       =   3.7276329098066E-03
(PID.TID 0000.0001) %MON ke_mean                      =   6.6585776778799E-05
(PID.TID 0000.0001) %MON ke_vol                       =   6.5555965471909E+14
(PID.TID 0000.0001) // =======================================================
(PID.TID 0000.0001) // End MONITOR dynamic field statistics
(PID.TID 0000.0001) // =======================================================
 cg2d: Sum(rhs),rhsMax =   2.94052976412829E-14  6.12478087883497E-01
(PID.TID 0000.0001)      cg2d_init_res =   1.79928904983332E-03
(PID.TID 0000.0001)      cg2d_iters(min,last) =      -1      28
(PID.TID 0000.0001)      cg2d_last_res =   9.45067354328391E-17
(PID.TID 0000.0001) // =======================================================
(PID.TID 0000.0001) // Begin MONITOR dynamic field statistics
(PID.TID 0000.0001) // =======================================================
(PID.TID 0000.0001) %MON time_tsnumber                =                    22
(PID.TID 0000.0001) %MON time_secondsf                =   7.9200000000000E+04
(PID.TID 0000.0001) %MON dynstat_eta_max              =   1.6724490461958E-01
(PID.TID 0000.0001) %MON dynstat_eta_min              =  -4.5847654664495E-02
(PID.TID 0000.0001) %MON dynstat_eta_mean             =  -2.1003087361654E-15
(PID.TID 0000.0001) %MON dynstat_eta_sd               =   6.1220638804180E-02
(PID.TID 0000.0001) %MON dynstat_eta_del2             =   4.8206056241707E-03
(PID.TID 0000.0001) %MON dynstat_uvel_max             =   8.6041802157241E-02
(PID.TID 0000.0001) %MON dynstat_uvel_min             =  -8.6386234421864E-02
(PID.TID 0000.0001) %MON dynstat_uvel_mean            =   3.0236410009718E-05
(PID.TID 0000.0001) %MON dynstat_uvel_sd              =   1.1735095227155E-02
(PID.TID 0000.0001) %MON dynstat_uvel_del2            =   3.4001357326979E-04
(PID.TID 0000.0001) %MON dynstat_vvel_max             =   6.8089665070405E-03
(PID.TID 0000.0001) %MON dynstat_vvel_min             =  -7.0279876318988E-03
(PID.TID 0000.0001) %MON dynstat_vvel_mean            =  -6.8704230780707E-06
(PID.TID 0000.0001) %MON dynstat_vvel_sd              =   9.9896202258899E-04
(PID.TID 0000.0001) %MON dynstat_vvel_del2            =   6.7834124145360E-05
(PID.TID 0000.0001) %MON dynstat_wvel_max             =   2.2919660493963E-05
(PID.TID 0000.0001) %MON dynstat_wvel_min             =  -1.4045691122454E-05
(PID.TID 0000.0001) %MON dynstat_wvel_mean            =  -7.6142786758643E-12
(PID.TID 0000.0001) %MON dynstat_wvel_sd              =   5.1646926033513E-06
(PID.TID 0000.0001) %MON dynstat_wvel_del2            =   2.6660999728736E-07
(PID.TID 0000.0001) %MON dynstat_theta_max            =   1.2084596115435E+01
(PID.TID 0000.0001) %MON dynstat_theta_min            =   5.2161135615668E+00
(PID.TID 0000.0001) %MON dynstat_theta_mean           =   7.8249744026449E+00
(PID.TID 0000.0001) %MON dynstat_theta_sd             =   1.4898345339312E+00
(PID.TID 0000.0001) %MON dynstat_theta_del2           =   4.1176144694171E-03
(PID.TID 0000.0001) %MON dynstat_salt_max             =   1.1998231456727E+01
(PID.TID 0000.0001) %MON dynstat_salt_min             =   1.0463132171895E+01
(PID.TID 0000.0001) %MON dynstat_salt_mean            =   1.1305178484986E+01
(PID.TID 0000.0001) %MON dynstat_salt_sd              =   5.1655948289840E-01
(PID.TID 0000.0001) %MON dynstat_salt_del2            =   5.5438457604672E-04
(PID.TID 0000.0001) %MON advcfl_uvel_max              =   3.1099044391871E-03
(PID.TID 0000.0001) %MON advcfl_vvel_max              =   2.5300755474836E-04
(PID.TID 0000.0001) %MON advcfl_wvel_max              =   1.1524586777748E-03
(PID.TID 0000.0001) %MON advcfl_W_hf_max              =   1.2677045455523E-03
(PID.TID 0000.0001) %MON pe_b_mean                    =   8.4128619495454E-06
(PID.TID 0000.0001) %MON ke_max                       =   3.7314494323367E-03
(PID.TID 0000.0001) %MON ke_mean                      =   6.9336265682836E-05
(PID.TID 0000.0001) %MON ke_vol                       =   6.5555965471909E+14
(PID.TID 0000.0001) // =======================================================
(PID.TID 0000.0001) // End MONITOR dynamic field statistics
(PID.TID 0000.0001) // =======================================================
 cg2d: Sum(rhs),rhsMax =   3.16968673530482E-14  6.12248768486688E-01
(PID.TID 0000.0001)      cg2d_init_res =   1.94868569899843E-03
(PID.TID 0000.0001)      cg2d_iters(min,last) =      -1      28
(PID.TID 0000.0001)      cg2d_last_res =   4.32690677792364E-16
(PID.TID 0000.0001) // =======================================================
(PID.TID 0000.0001) // Begin MONITOR dynamic field statistics
(PID.TID 0000.0001) // =======================================================
(PID.TID 0000.0001) %MON time_tsnumber                =                    23
(PID.TID 0000.0001) %MON time_secondsf                =   8.2800000000000E+04
(PID.TID 0000.0001) %MON dynstat_eta_max              =   1.6719750991938E-01
(PID.TID 0000.0001) %MON dynstat_eta_min              =  -4.5795781180499E-02
(PID.TID 0000.0001) %MON dynstat_eta_mean             =  -2.1341641743978E-15
(PID.TID 0000.0001) %MON dynstat_eta_sd               =   6.1219955941626E-02
(PID.TID 0000.0001) %MON dynstat_eta_del2             =   4.8181080885231E-03
(PID.TID 0000.0001) %MON dynstat_uvel_max             =   8.6760640445669E-02
(PID.TID 0000.0001) %MON dynstat_uvel_min             =  -8.7228697389880E-02
(PID.TID 0000.0001) %MON dynstat_uvel_mean            =   2.7604440387521E-05
(PID.TID 0000.0001) %MON dynstat_uvel_sd              =   1.1960066860107E-02
(PID.TID 0000.0001) %MON dynstat_uvel_del2            =   3.5071062233960E-04
(PID.TID 0000.0001) %MON dynstat_vvel_max             =   7.1406287236879E-03
(PID.TID 0000.0001) %MON dynstat_vvel_min             =  -7.3344348917225E-03
(PID.TID 0000.0001) %MON dynstat_vvel_mean            =  -4.4232553459812E-06
(PID.TID 0000.0001) %MON dynstat_vvel_sd              =   9.8384504622331E-04
(PID.TID 0000.0001) %MON dynstat_vvel_del2            =   7.0854652350281E-05
(PID.TID 0000.0001) %MON dynstat_wvel_max             =   2.3301884772304E-05
(PID.TID 0000.0001) %MON dynstat_wvel_min             =  -1.1873044072886E-05
(PID.TID 0000.0001) %MON dynstat_wvel_mean            =  -4.0296874210242E-12
(PID.TID 0000.0001) %MON dynstat_wvel_sd              =   5.3041392346734E-06
(PID.TID 0000.0001) %MON dynstat_wvel_del2            =   2.7697992577057E-07
(PID.TID 0000.0001) %MON dynstat_theta_max            =   1.2085238459239E+01
(PID.TID 0000.0001) %MON dynstat_theta_min            =   5.2161107537492E+00
(PID.TID 0000.0001) %MON dynstat_theta_mean           =   7.8249744015763E+00
(PID.TID 0000.0001) %MON dynstat_theta_sd             =   1.4898342809440E+00
(PID.TID 0000.0001) %MON dynstat_theta_del2           =   4.1163473767133E-03
(PID.TID 0000.0001) %MON dynstat_salt_max             =   1.1998287539912E+01
(PID.TID 0000.0001) %MON dynstat_salt_min             =   1.0463075194589E+01
(PID.TID 0000.0001) %MON dynstat_salt_mean            =   1.1305178482269E+01
(PID.TID 0000.0001) %MON dynstat_salt_sd              =   5.1655104672464E-01
(PID.TID 0000.0001) %MON dynstat_salt_del2            =   5.5450655710573E-04
(PID.TID 0000.0001) %MON advcfl_uvel_max              =   3.1402331060357E-03
(PID.TID 0000.0001) %MON advcfl_vvel_max              =   2.6403965610201E-04
(PID.TID 0000.0001) %MON advcfl_wvel_max              =   1.1977394110118E-03
(PID.TID 0000.0001) %MON advcfl_W_hf_max              =   1.3175133521130E-03
(PID.TID 0000.0001) %MON pe_b_mean                    =   8.4126742743932E-06
(PID.TID 0000.0001) %MON ke_max                       =   3.8118612430179E-03
(PID.TID 0000.0001) %MON ke_mean                      =   7.1987141820105E-05
(PID.TID 0000.0001) %MON ke_vol                       =   6.5555965471909E+14
(PID.TID 0000.0001) // =======================================================
(PID.TID 0000.0001) // End MONITOR dynamic field statistics
(PID.TID 0000.0001) // =======================================================
 cg2d: Sum(rhs),rhsMax =   3.27984167602935E-14  6.12056685184275E-01
(PID.TID 0000.0001)      cg2d_init_res =   2.00823166165342E-03
(PID.TID 0000.0001)      cg2d_iters(min,last) =      -1      28
(PID.TID 0000.0001)      cg2d_last_res =   3.80961735429544E-16
(PID.TID 0000.0001) // =======================================================
(PID.TID 0000.0001) // Begin MONITOR dynamic field statistics
(PID.TID 0000.0001) // =======================================================
(PID.TID 0000.0001) %MON time_tsnumber                =                    24
(PID.TID 0000.0001) %MON time_secondsf                =   8.6400000000000E+04
(PID.TID 0000.0001) %MON dynstat_eta_max              =   1.6715792321241E-01
(PID.TID 0000.0001) %MON dynstat_eta_min              =  -4.5769175245171E-02
(PID.TID 0000.0001) %MON dynstat_eta_mean             =  -2.4611155192057E-15
(PID.TID 0000.0001) %MON dynstat_eta_sd               =   6.1219075274530E-02
(PID.TID 0000.0001) %MON dynstat_eta_del2             =   4.8153249081001E-03
(PID.TID 0000.0001) %MON dynstat_uvel_max             =   8.8107063093220E-02
(PID.TID 0000.0001) %MON dynstat_uvel_min             =  -8.8645371597197E-02
(PID.TID 0000.0001) %MON dynstat_uvel_mean            =   2.6403030586751E-05
(PID.TID 0000.0001) %MON dynstat_uvel_sd              =   1.2151328998115E-02
(PID.TID 0000.0001) %MON dynstat_uvel_del2            =   3.6165297462625E-04
(PID.TID 0000.0001) %MON dynstat_vvel_max             =   6.7434688017184E-03
(PID.TID 0000.0001) %MON dynstat_vvel_min             =  -6.8907020211626E-03
(PID.TID 0000.0001) %MON dynstat_vvel_mean            =  -9.9562297411531E-07
(PID.TID 0000.0001) %MON dynstat_vvel_sd              =   8.8218008239246E-04
(PID.TID 0000.0001) %MON dynstat_vvel_del2            =   7.0566431825161E-05
(PID.TID 0000.0001) %MON dynstat_wvel_max             =   2.1322005085667E-05
(PID.TID 0000.0001) %MON dynstat_wvel_min             =  -1.1399673735269E-05
(PID.TID 0000.0001) %MON dynstat_wvel_mean            =  -2.8487134756524E-12
(PID.TID 0000.0001) %MON dynstat_wvel_sd              =   5.0305545841858E-06
(PID.TID 0000.0001) %MON dynstat_wvel_del2            =   2.7711407753809E-07
(PID.TID 0000.0001) %MON dynstat_theta_max            =   1.2085867944532E+01
(PID.TID 0000.0001) %MON dynstat_theta_min            =   5.2161085428425E+00
(PID.TID 0000.0001) %MON dynstat_theta_mean           =   7.8249744014389E+00
(PID.TID 0000.0001) %MON dynstat_theta_sd             =   1.4898340288891E+00
(PID.TID 0000.0001) %MON dynstat_theta_del2           =   4.1150515426826E-03
(PID.TID 0000.0001) %MON dynstat_salt_max             =   1.1998342325494E+01
(PID.TID 0000.0001) %MON dynstat_salt_min             =   1.0463020122234E+01
(PID.TID 0000.0001) %MON dynstat_salt_mean            =   1.1305178480689E+01
(PID.TID 0000.0001) %MON dynstat_salt_sd              =   5.1654261341466E-01
(PID.TID 0000.0001) %MON dynstat_salt_del2            =   5.5462762820329E-04
(PID.TID 0000.0001) %MON advcfl_uvel_max              =   3.1912333774991E-03
(PID.TID 0000.0001) %MON advcfl_vvel_max              =   2.4806527276186E-04
(PID.TID 0000.0001) %MON advcfl_wvel_max              =   1.1213120741515E-03
(PID.TID 0000.0001) %MON advcfl_W_hf_max              =   1.2334432815666E-03
(PID.TID 0000.0001) %MON pe_b_mean                    =   8.4124322385400E-06
(PID.TID 0000.0001) %MON ke_max                       =   3.9336828173259E-03
(PID.TID 0000.0001) %MON ke_mean                      =   7.4201733607768E-05
(PID.TID 0000.0001) %MON ke_vol                       =   6.5555965471909E+14
(PID.TID 0000.0001) // =======================================================
(PID.TID 0000.0001) // End MONITOR dynamic field statistics
(PID.TID 0000.0001) // =======================================================
 cg2d: Sum(rhs),rhsMax =   3.71994102188467E-14  6.11947378592530E-01
(PID.TID 0000.0001)      cg2d_init_res =   1.90805555521022E-03
(PID.TID 0000.0001)      cg2d_iters(min,last) =      -1      28
(PID.TID 0000.0001)      cg2d_last_res =   6.07663993693406E-16
(PID.TID 0000.0001) // =======================================================
(PID.TID 0000.0001) // Begin MONITOR dynamic field statistics
(PID.TID 0000.0001) // =======================================================
(PID.TID 0000.0001) %MON time_tsnumber                =                    25
(PID.TID 0000.0001) %MON time_secondsf                =   9.0000000000000E+04
(PID.TID 0000.0001) %MON dynstat_eta_max              =   1.6712655464404E-01
(PID.TID 0000.0001) %MON dynstat_eta_min              =  -4.5764687717736E-02
(PID.TID 0000.0001) %MON dynstat_eta_mean             =  -2.4948120117188E-15
(PID.TID 0000.0001) %MON dynstat_eta_sd               =   6.1219427205775E-02
(PID.TID 0000.0001) %MON dynstat_eta_del2             =   4.8127254561052E-03
(PID.TID 0000.0001) %MON dynstat_uvel_max             =   8.9008710852693E-02
(PID.TID 0000.0001) %MON dynstat_uvel_min             =  -8.9589557396314E-02
(PID.TID 0000.0001) %MON dynstat_uvel_mean            =   2.6660677536114E-05
(PID.TID 0000.0001) %MON dynstat_uvel_sd              =   1.2284629302984E-02
(PID.TID 0000.0001) %MON dynstat_uvel_del2            =   3.7146647738654E-04
(PID.TID 0000.0001) %MON dynstat_vvel_max             =   5.6898292822529E-03
(PID.TID 0000.0001) %MON dynstat_vvel_min             =  -5.7781962857090E-03
(PID.TID 0000.0001) %MON dynstat_vvel_mean            =   1.8497135470684E-06
(PID.TID 0000.0001) %MON dynstat_vvel_sd              =   7.2545586329755E-04
(PID.TID 0000.0001) %MON dynstat_vvel_del2            =   6.7224600363959E-05
(PID.TID 0000.0001) %MON dynstat_wvel_max             =   1.7278024135593E-05
(PID.TID 0000.0001) %MON dynstat_wvel_min             =  -1.0049528921853E-05
(PID.TID 0000.0001) %MON dynstat_wvel_mean            =  -3.4539126209384E-12
(PID.TID 0000.0001) %MON dynstat_wvel_sd              =   4.4329757392732E-06
(PID.TID 0000.0001) %MON dynstat_wvel_del2            =   2.6743586422650E-07
(PID.TID 0000.0001) %MON dynstat_theta_max            =   1.2086480628871E+01
(PID.TID 0000.0001) %MON dynstat_theta_min            =   5.2161072817528E+00
(PID.TID 0000.0001) %MON dynstat_theta_mean           =   7.8249744012053E+00
(PID.TID 0000.0001) %MON dynstat_theta_sd             =   1.4898337730046E+00
(PID.TID 0000.0001) %MON dynstat_theta_del2           =   4.1138153939738E-03
(PID.TID 0000.0001) %MON dynstat_salt_max             =   1.1998395584167E+01
(PID.TID 0000.0001) %MON dynstat_salt_min             =   1.0462966884486E+01
(PID.TID 0000.0001) %MON dynstat_salt_mean            =   1.1305178479439E+01
(PID.TID 0000.0001) %MON dynstat_salt_sd              =   5.1653417748450E-01
(PID.TID 0000.0001) %MON dynstat_salt_del2            =   5.5477894538187E-04
(PID.TID 0000.0001) %MON advcfl_uvel_max              =   3.2252240662673E-03
(PID.TID 0000.0001) %MON advcfl_vvel_max              =   2.0801506628552E-04
(PID.TID 0000.0001) %MON advcfl_wvel_max              =   9.3638165785805E-04
(PID.TID 0000.0001) %MON advcfl_W_hf_max              =   1.0300198236439E-03
(PID.TID 0000.0001) %MON pe_b_mean                    =   8.4125289602317E-06
(PID.TID 0000.0001) %MON ke_max                       =   4.0150096630039E-03
(PID.TID 0000.0001) %MON ke_mean                      =   7.5709323998319E-05
(PID.TID 0000.0001) %MON ke_vol                       =   6.5555965471909E+14
(PID.TID 0000.0001) // =======================================================
(PID.TID 0000.0001) // End MONITOR dynamic field statistics
(PID.TID 0000.0001) // =======================================================
(PID.TID 0000.0001)  MDS_WRITE_FIELD: it,rec,kS,kL,kH=      25     1  25   1  25 file=U.0000000025
(PID.TID 0000.0001)  MDS_WRITE_FIELD: it,rec,kS,kL,kH=      25     1  25   1  25 file=V.0000000025
(PID.TID 0000.0001)  MDS_WRITE_FIELD: it,rec,kS,kL,kH=      25     1  25   1  25 file=T.0000000025
(PID.TID 0000.0001)  MDS_WRITE_FIELD: it,rec,kS,kL,kH=      25     1  25   1  25 file=S.0000000025
(PID.TID 0000.0001)  MDS_WRITE_FIELD: it,rec,kS,kL,kH=      25     1   1   1   1 file=Eta.0000000025
(PID.TID 0000.0001)  MDS_WRITE_FIELD: it,rec,kS,kL,kH=      25     1  25   1  25 file=W.0000000025
(PID.TID 0000.0001)  MDS_WRITE_FIELD: it,rec,kS,kL,kH=      25     1  25   1  25 file=PH.0000000025
(PID.TID 0000.0001)  MDS_WRITE_FIELD: it,rec,kS,kL,kH=      25     1   1   1   1 file=PHL.0000000025
 Computing Diagnostic #     23  ETAN         Counter:       1   Parms: SM      M1      
(PID.TID 0000.0001)  MDS_WRITE_FIELD: it,rec,kS,kL,kH=      24    -1  50   1   1 file=surfDiag.0000000024
 Computing Diagnostic #     25  DETADT2      Counter:       1   Parms: SM      M1      
(PID.TID 0000.0001)  MDS_WRITE_FIELD: it,rec,kS,kL,kH=      24    -2  50   1   1 file=surfDiag.0000000024
 Computing Diagnostic #     73  PHIBOT       Counter:       1   Parms: SM      M1      
(PID.TID 0000.0001)  MDS_WRITE_FIELD: it,rec,kS,kL,kH=      24    -3  50   1   1 file=surfDiag.0000000024
 Computing Diagnostic #     76  MXLDEPTH     Counter:       1   Parms: SM      M1      
(PID.TID 0000.0001)  MDS_WRITE_FIELD: it,rec,kS,kL,kH=      24    -4  50   1   1 file=surfDiag.0000000024
 Computing Diagnostic #     77  DRHODR       Counter:       1   Parms: SM      LR      
(PID.TID 0000.0001)  MDS_WRITE_FIELD: it,rec,kS,kL,kH=      24    -1  50   1  25 file=oceDiag.0000000024
 Computing Diagnostic #     64  RHOAnoma     Counter:       1   Parms: SMR     MR      
(PID.TID 0000.0001)  MDS_WRITE_FIELD: it,rec,kS,kL,kH=      24    -2  50   1  25 file=oceDiag.0000000024
 Computing Diagnostic #    202  GM_Kwy       Counter:       1   Parms: VM      LR      
           Vector  Mate for  GM_Kwy       Diagnostic #    201  GM_Kwx   not enabled
(PID.TID 0000.0001)  MDS_WRITE_FIELD: it,rec,kS,kL,kH=      24    -3  50   1  25 file=oceDiag.0000000024
 Computing Diagnostic #    203  GM_Kwz       Counter:       1   Parms: WM P    LR      
(PID.TID 0000.0001)  MDS_WRITE_FIELD: it,rec,kS,kL,kH=      24    -4  50   1  25 file=oceDiag.0000000024
 Computing Diagnostic #    198  GM_Kvy       Counter:       1   Parms: VV P    MR      
           Vector  Mate for  GM_Kvy       Diagnostic #    197  GM_Kux   not enabled
(PID.TID 0000.0001)  MDS_WRITE_FIELD: it,rec,kS,kL,kH=      24    -5  50   1  25 file=oceDiag.0000000024
 Computing Diagnostic #    200  GM_Kvz       Counter:       1   Parms: VV      MR      
           Vector  Mate for  GM_Kvz       Diagnostic #    199  GM_Kuz   not enabled
(PID.TID 0000.0001)  MDS_WRITE_FIELD: it,rec,kS,kL,kH=      24    -6  50   1  25 file=oceDiag.0000000024
 Computing Diagnostic #    205  GM_PsiY      Counter:       1   Parms: VV      LR      
           Vector  Mate for  GM_PsiY      Diagnostic #    204  GM_PsiX  not enabled
(PID.TID 0000.0001)  MDS_WRITE_FIELD: it,rec,kS,kL,kH=      24    -7  50   1  25 file=oceDiag.0000000024
 Computing Diagnostic #     26  THETA        Counter:       1   Parms: SMR     MR      
(PID.TID 0000.0001)  MDS_WRITE_FIELD: it,rec,kS,kL,kH=      24    -8  50   1  25 file=oceDiag.0000000024
(PID.TID 0000.0001)  write diagnostics summary to file: diagnostics_status.0000000025.txt
(PID.TID 0000.0001)  MDS_WRITE_FIELD: it,rec,kS,kL,kH=      25    -1  25   1  25 file=pickup.ckptA
(PID.TID 0000.0001)  MDS_WRITE_FIELD: it,rec,kS,kL,kH=      25    -2  25   1  25 file=pickup.ckptA
(PID.TID 0000.0001)  MDS_WRITE_FIELD: it,rec,kS,kL,kH=      25    -3  25   1  25 file=pickup.ckptA
(PID.TID 0000.0001)  MDS_WRITE_FIELD: it,rec,kS,kL,kH=      25    -4  25   1  25 file=pickup.ckptA
(PID.TID 0000.0001)  MDS_WRITE_FIELD: it,rec,kS,kL,kH=      25    -5  25   1  25 file=pickup.ckptA
(PID.TID 0000.0001)  MDS_WRITE_FIELD: it,rec,kS,kL,kH=      25    -6  25   1  25 file=pickup.ckptA
(PID.TID 0000.0001)  MDS_WRITE_FIELD: it,rec,kS,kL,kH=      25    -7  25   1  25 file=pickup.ckptA
(PID.TID 0000.0001)  MDS_WRITE_FIELD: it,rec,kS,kL,kH=      25    -8  25   1  25 file=pickup.ckptA
(PID.TID 0000.0001)  MDS_WRITE_FIELD: it,rec,kS,kL,kH=      25  -201   1   1   1 file=pickup.ckptA
(PID.TID 0000.0001)  MDS_WRITE_FIELD: it,rec,kS,kL,kH=      25  -202   1   1   1 file=pickup.ckptA
(PID.TID 0000.0001)  MDS_WRITE_FIELD: it,rec,kS,kL,kH=      25  -203   1   1   1 file=pickup.ckptA
(PID.TID 0000.0001) %CHECKPOINT        25 ckptA
(PID.TID 0000.0001)   Seconds in section "ALL                    [THE_MODEL_MAIN]":
(PID.TID 0000.0001)           User time:   1.0660460169892758
(PID.TID 0000.0001)         System time:   3.1996000558137894E-002
(PID.TID 0000.0001)     Wall clock time:   1.0983588695526123
(PID.TID 0000.0001)          No. starts:           1
(PID.TID 0000.0001)           No. stops:           1
(PID.TID 0000.0001)   Seconds in section "INITIALISE_FIXED       [THE_MODEL_MAIN]":
(PID.TID 0000.0001)           User time:   1.4484999468550086E-002
(PID.TID 0000.0001)         System time:   8.3029996603727341E-003
(PID.TID 0000.0001)     Wall clock time:   2.2809028625488281E-002
(PID.TID 0000.0001)          No. starts:           1
(PID.TID 0000.0001)           No. stops:           1
(PID.TID 0000.0001)   Seconds in section "THE_MAIN_LOOP          [THE_MODEL_MAIN]":
(PID.TID 0000.0001)           User time:   1.0515250302851200
(PID.TID 0000.0001)         System time:   2.3687998764216900E-002
(PID.TID 0000.0001)     Wall clock time:   1.0755190849304199
(PID.TID 0000.0001)          No. starts:           1
(PID.TID 0000.0001)           No. stops:           1
(PID.TID 0000.0001)   Seconds in section "INITIALISE_VARIA    [THE_MAIN_LOOP]":
(PID.TID 0000.0001)           User time:   1.3199001550674438E-002
(PID.TID 0000.0001)         System time:   2.1499954164028168E-004
(PID.TID 0000.0001)     Wall clock time:   1.3415098190307617E-002
(PID.TID 0000.0001)          No. starts:           1
(PID.TID 0000.0001)           No. stops:           1
(PID.TID 0000.0001)   Seconds in section "MAIN LOOP           [THE_MAIN_LOOP]":
(PID.TID 0000.0001)           User time:   1.0383030436933041
(PID.TID 0000.0001)         System time:   2.3467998020350933E-002
(PID.TID 0000.0001)     Wall clock time:   1.0620748996734619
(PID.TID 0000.0001)          No. starts:           1
(PID.TID 0000.0001)           No. stops:           1
(PID.TID 0000.0001)   Seconds in section "MAIN_DO_LOOP        [THE_MAIN_LOOP]":
(PID.TID 0000.0001)           User time:   1.0380939375609159
(PID.TID 0000.0001)         System time:   2.3463999852538109E-002
(PID.TID 0000.0001)     Wall clock time:   1.0618643760681152
(PID.TID 0000.0001)          No. starts:          25
(PID.TID 0000.0001)           No. stops:          25
(PID.TID 0000.0001)   Seconds in section "FORWARD_STEP        [MAIN_DO_LOOP]":
(PID.TID 0000.0001)           User time:   1.0377010721713305
(PID.TID 0000.0001)         System time:   2.3457000032067299E-002
(PID.TID 0000.0001)     Wall clock time:   1.0614597797393799
(PID.TID 0000.0001)          No. starts:          25
(PID.TID 0000.0001)           No. stops:          25
(PID.TID 0000.0001)   Seconds in section "DO_STATEVARS_DIAGS  [FORWARD_STEP]":
(PID.TID 0000.0001)           User time:   9.5202587544918060E-004
(PID.TID 0000.0001)         System time:   1.6000121831893921E-005
(PID.TID 0000.0001)     Wall clock time:   9.7560882568359375E-004
(PID.TID 0000.0001)          No. starts:          50
(PID.TID 0000.0001)           No. stops:          50
(PID.TID 0000.0001)   Seconds in section "LOAD_FIELDS_DRIVER  [FORWARD_STEP]":
(PID.TID 0000.0001)           User time:   6.2897987663745880E-004
(PID.TID 0000.0001)         System time:   8.0009922385215759E-006
(PID.TID 0000.0001)     Wall clock time:   6.4921379089355469E-004
(PID.TID 0000.0001)          No. starts:          25
(PID.TID 0000.0001)           No. stops:          25
(PID.TID 0000.0001)   Seconds in section "EXTERNAL_FLDS_LOAD [LOAD_FLDS_DRIVER]":
(PID.TID 0000.0001)           User time:   2.1589733660221100E-004
(PID.TID 0000.0001)         System time:   5.0002709031105042E-006
(PID.TID 0000.0001)     Wall clock time:   2.1719932556152344E-004
(PID.TID 0000.0001)          No. starts:          25
(PID.TID 0000.0001)           No. stops:          25
(PID.TID 0000.0001)   Seconds in section "DO_ATMOSPHERIC_PHYS [FORWARD_STEP]":
(PID.TID 0000.0001)           User time:   1.9902363419532776E-004
(PID.TID 0000.0001)         System time:   2.9997900128364563E-006
(PID.TID 0000.0001)     Wall clock time:   2.1171569824218750E-004
(PID.TID 0000.0001)          No. starts:          25
(PID.TID 0000.0001)           No. stops:          25
(PID.TID 0000.0001)   Seconds in section "DO_OCEANIC_PHYS     [FORWARD_STEP]":
(PID.TID 0000.0001)           User time:  0.17904198355972767
(PID.TID 0000.0001)         System time:   0.0000000000000000
(PID.TID 0000.0001)     Wall clock time:  0.17908525466918945
(PID.TID 0000.0001)          No. starts:          25
(PID.TID 0000.0001)           No. stops:          25
(PID.TID 0000.0001)   Seconds in section "THERMODYNAMICS      [FORWARD_STEP]":
(PID.TID 0000.0001)           User time:  0.38912897184491158
(PID.TID 0000.0001)         System time:   1.0640998370945454E-002
(PID.TID 0000.0001)     Wall clock time:  0.39992952346801758
(PID.TID 0000.0001)          No. starts:          25
(PID.TID 0000.0001)           No. stops:          25
(PID.TID 0000.0001)   Seconds in section "DYNAMICS            [FORWARD_STEP]":
(PID.TID 0000.0001)           User time:  0.31988485902547836
(PID.TID 0000.0001)         System time:   4.4780010357499123E-003
(PID.TID 0000.0001)     Wall clock time:  0.32449007034301758
(PID.TID 0000.0001)          No. starts:          25
(PID.TID 0000.0001)           No. stops:          25
(PID.TID 0000.0001)   Seconds in section "SOLVE_FOR_PRESSURE  [FORWARD_STEP]":
(PID.TID 0000.0001)           User time:   2.0159080624580383E-002
(PID.TID 0000.0001)         System time:   2.7200020849704742E-004
(PID.TID 0000.0001)     Wall clock time:   2.0448684692382812E-002
(PID.TID 0000.0001)          No. starts:          25
(PID.TID 0000.0001)           No. stops:          25
(PID.TID 0000.0001)   Seconds in section "MOM_CORRECTION_STEP [FORWARD_STEP]":
(PID.TID 0000.0001)           User time:   1.3521052896976471E-002
(PID.TID 0000.0001)         System time:   6.2998384237289429E-005
(PID.TID 0000.0001)     Wall clock time:   1.3598442077636719E-002
(PID.TID 0000.0001)          No. starts:          25
(PID.TID 0000.0001)           No. stops:          25
(PID.TID 0000.0001)   Seconds in section "INTEGR_CONTINUITY   [FORWARD_STEP]":
(PID.TID 0000.0001)           User time:   4.9160718917846680E-003
(PID.TID 0000.0001)         System time:   1.7998740077018738E-005
(PID.TID 0000.0001)     Wall clock time:   4.9479007720947266E-003
(PID.TID 0000.0001)          No. starts:          25
(PID.TID 0000.0001)           No. stops:          25
(PID.TID 0000.0001)   Seconds in section "TRC_CORRECTION_STEP [FORWARD_STEP]":
(PID.TID 0000.0001)           User time:   2.9821857810020447E-002
(PID.TID 0000.0001)         System time:   1.3500265777111053E-004
(PID.TID 0000.0001)     Wall clock time:   2.9975891113281250E-002
(PID.TID 0000.0001)          No. starts:          25
(PID.TID 0000.0001)           No. stops:          25
(PID.TID 0000.0001)   Seconds in section "BLOCKING_EXCHANGES  [FORWARD_STEP]":
(PID.TID 0000.0001)           User time:   3.9844132959842682E-002
(PID.TID 0000.0001)         System time:   0.0000000000000000
(PID.TID 0000.0001)     Wall clock time:   3.9933204650878906E-002
(PID.TID 0000.0001)          No. starts:          25
(PID.TID 0000.0001)           No. stops:          25
(PID.TID 0000.0001)   Seconds in section "MONITOR             [FORWARD_STEP]":
(PID.TID 0000.0001)           User time:   3.1187012791633606E-002
(PID.TID 0000.0001)         System time:   3.8559995591640472E-003
(PID.TID 0000.0001)     Wall clock time:   3.5068988800048828E-002
(PID.TID 0000.0001)          No. starts:          25
(PID.TID 0000.0001)           No. stops:          25
(PID.TID 0000.0001)   Seconds in section "DO_THE_MODEL_IO     [FORWARD_STEP]":
(PID.TID 0000.0001)           User time:   3.5330653190612793E-003
(PID.TID 0000.0001)         System time:   3.9010029286146164E-003
(PID.TID 0000.0001)     Wall clock time:   7.4524879455566406E-003
(PID.TID 0000.0001)          No. starts:          25
(PID.TID 0000.0001)           No. stops:          25
(PID.TID 0000.0001)   Seconds in section "DO_WRITE_PICKUP     [FORWARD_STEP]":
(PID.TID 0000.0001)           User time:   1.3100877404212952E-003
(PID.TID 0000.0001)         System time:   3.5999342799186707E-005
(PID.TID 0000.0001)     Wall clock time:   1.3525485992431641E-003
(PID.TID 0000.0001)          No. starts:          25
(PID.TID 0000.0001)           No. stops:          25
(PID.TID 0000.0001) // ======================================================
(PID.TID 0000.0001) // Tile <-> Tile communication statistics
(PID.TID 0000.0001) // ======================================================
(PID.TID 0000.0001) // o Tile number: 000001
(PID.TID 0000.0001) //         No. X exchanges =              0
(PID.TID 0000.0001) //            Max. X spins =              0
(PID.TID 0000.0001) //            Min. X spins =     1000000000
(PID.TID 0000.0001) //          Total. X spins =              0
(PID.TID 0000.0001) //            Avg. X spins =       0.00E+00
(PID.TID 0000.0001) //         No. Y exchanges =              0
(PID.TID 0000.0001) //            Max. Y spins =              0
(PID.TID 0000.0001) //            Min. Y spins =     1000000000
(PID.TID 0000.0001) //          Total. Y spins =              0
(PID.TID 0000.0001) //            Avg. Y spins =       0.00E+00
(PID.TID 0000.0001) // o Tile number: 000002
(PID.TID 0000.0001) //         No. X exchanges =              0
(PID.TID 0000.0001) //            Max. X spins =              0
(PID.TID 0000.0001) //            Min. X spins =     1000000000
(PID.TID 0000.0001) //          Total. X spins =              0
(PID.TID 0000.0001) //            Avg. X spins =       0.00E+00
(PID.TID 0000.0001) //         No. Y exchanges =              0
(PID.TID 0000.0001) //            Max. Y spins =              0
(PID.TID 0000.0001) //            Min. Y spins =     1000000000
(PID.TID 0000.0001) //          Total. Y spins =              0
(PID.TID 0000.0001) //            Avg. Y spins =       0.00E+00
(PID.TID 0000.0001) // o Thread number: 000001
(PID.TID 0000.0001) //            No. barriers =           7718
(PID.TID 0000.0001) //      Max. barrier spins =              1
(PID.TID 0000.0001) //      Min. barrier spins =              1
(PID.TID 0000.0001) //     Total barrier spins =           7718
(PID.TID 0000.0001) //      Avg. barrier spins =       1.00E+00
PROGRAM MAIN: Execution ended Normally
