(PID.TID 0000.0001) 
(PID.TID 0000.0001) // ======================================================
(PID.TID 0000.0001) //                      MITgcm UV
(PID.TID 0000.0001) //                      =========
(PID.TID 0000.0001) // ======================================================
(PID.TID 0000.0001) // execution environment starting up...
(PID.TID 0000.0001) 
(PID.TID 0000.0001) // MITgcmUV version:  checkpoint68f
(PID.TID 0000.0001) // Build user:        jm_c
(PID.TID 0000.0001) // Build host:        villon
(PID.TID 0000.0001) // Build date:        Tue Jan 25 09:48:05 EST 2022
(PID.TID 0000.0001) 
(PID.TID 0000.0001) // =======================================================
(PID.TID 0000.0001) // Execution Environment parameter file "eedata"
(PID.TID 0000.0001) // =======================================================
(PID.TID 0000.0001) ># Example "eedata" file
(PID.TID 0000.0001) ># Lines beginning "#" are comments
(PID.TID 0000.0001) >#  nTx      :: No. threads per process in X
(PID.TID 0000.0001) >#  nTy      :: No. threads per process in Y
(PID.TID 0000.0001) ># debugMode :: print debug msg (sequence of S/R calls)
(PID.TID 0000.0001) > &EEPARMS
(PID.TID 0000.0001) > /
(PID.TID 0000.0001) ># Note: Some systems use & as the namelist terminator (as shown here).
(PID.TID 0000.0001) >#       Other systems use a / character.
(PID.TID 0000.0001) 
(PID.TID 0000.0001) // =======================================================
(PID.TID 0000.0001) // Computational Grid Specification ( see files "SIZE.h" )
(PID.TID 0000.0001) //                                  ( and "eedata"       )
(PID.TID 0000.0001) // =======================================================
(PID.TID 0000.0001)      nPx =    1 ; /* No. processes in X */
(PID.TID 0000.0001)      nPy =    1 ; /* No. processes in Y */
(PID.TID 0000.0001)      nSx =    1 ; /* No. tiles in X per process */
(PID.TID 0000.0001)      nSy =    2 ; /* No. tiles in Y per process */
(PID.TID 0000.0001)      sNx =    1 ; /* Tile size in X */
(PID.TID 0000.0001)      sNy =   16 ; /* Tile size in Y */
(PID.TID 0000.0001)      OLx =    3 ; /* Tile overlap distance in X */
(PID.TID 0000.0001)      OLy =    3 ; /* Tile overlap distance in Y */
(PID.TID 0000.0001)      nTx =    1 ; /* No. threads in X per process */
(PID.TID 0000.0001)      nTy =    1 ; /* No. threads in Y per process */
(PID.TID 0000.0001)       Nr =   25 ; /* No. levels in the vertical   */
(PID.TID 0000.0001)       Nx =    1 ; /* Total domain size in X ( = nPx*nSx*sNx ) */
(PID.TID 0000.0001)       Ny =   32 ; /* Total domain size in Y ( = nPy*nSy*sNy ) */
(PID.TID 0000.0001)   nTiles =    2 ; /* Total no. tiles per process ( = nSx*nSy ) */
(PID.TID 0000.0001)   nProcs =    1 ; /* Total no. processes ( = nPx*nPy ) */
(PID.TID 0000.0001) nThreads =    1 ; /* Total no. threads per process ( = nTx*nTy ) */
(PID.TID 0000.0001) usingMPI =    F ; /* Flag used to control whether MPI is in use */
(PID.TID 0000.0001)                   /*  note: To execute a program with MPI calls */
(PID.TID 0000.0001)                   /*  it must be launched appropriately e.g     */
(PID.TID 0000.0001)                   /*  "mpirun -np 64 ......"                    */
(PID.TID 0000.0001) useCoupler=   F ; /* Flag used to control communications with   */
(PID.TID 0000.0001)                   /*  other model components, through a coupler */
(PID.TID 0000.0001) useNest2W_parent =    F ;/* Control 2-W Nesting comm */
(PID.TID 0000.0001) useNest2W_child  =    F ;/* Control 2-W Nesting comm */
(PID.TID 0000.0001) debugMode =    F ; /* print debug msg. (sequence of S/R calls)  */
(PID.TID 0000.0001) printMapIncludesZeros=    F ; /* print zeros in Std.Output maps */
(PID.TID 0000.0001) maxLengthPrt1D=   65 /* maxLength of 1D array printed to StdOut */
(PID.TID 0000.0001) 
(PID.TID 0000.0001) // ======================================================
(PID.TID 0000.0001) // Mapping of tiles to threads
(PID.TID 0000.0001) // ======================================================
(PID.TID 0000.0001) // -o- Thread   1, tiles (   1:   1,   1:   2)
(PID.TID 0000.0001) 
(PID.TID 0000.0001) // ======================================================
(PID.TID 0000.0001) // Tile <-> Tile connectvity table
(PID.TID 0000.0001) // ======================================================
(PID.TID 0000.0001) // Tile number: 000001 (process no. = 000000)
(PID.TID 0000.0001) //        WEST: Tile = 000001, Process = 000000, Comm = put
(PID.TID 0000.0001) //                bi = 000001, bj = 000001
(PID.TID 0000.0001) //        EAST: Tile = 000001, Process = 000000, Comm = put
(PID.TID 0000.0001) //                bi = 000001, bj = 000001
(PID.TID 0000.0001) //       SOUTH: Tile = 000002, Process = 000000, Comm = put
(PID.TID 0000.0001) //                bi = 000001, bj = 000002
(PID.TID 0000.0001) //       NORTH: Tile = 000002, Process = 000000, Comm = put
(PID.TID 0000.0001) //                bi = 000001, bj = 000002
(PID.TID 0000.0001) // Tile number: 000002 (process no. = 000000)
(PID.TID 0000.0001) //        WEST: Tile = 000002, Process = 000000, Comm = put
(PID.TID 0000.0001) //                bi = 000001, bj = 000002
(PID.TID 0000.0001) //        EAST: Tile = 000002, Process = 000000, Comm = put
(PID.TID 0000.0001) //                bi = 000001, bj = 000002
(PID.TID 0000.0001) //       SOUTH: Tile = 000001, Process = 000000, Comm = put
(PID.TID 0000.0001) //                bi = 000001, bj = 000001
(PID.TID 0000.0001) //       NORTH: Tile = 000001, Process = 000000, Comm = put
(PID.TID 0000.0001) //                bi = 000001, bj = 000001
(PID.TID 0000.0001) 
(PID.TID 0000.0001)  INI_PARMS: opening model parameter file "data"
(PID.TID 0000.0001)  OPEN_COPY_DATA_FILE: opening file data
(PID.TID 0000.0001) // =======================================================
(PID.TID 0000.0001) // Parameter file "data"
(PID.TID 0000.0001) // =======================================================
(PID.TID 0000.0001) ># ====================
(PID.TID 0000.0001) ># | Model parameters |
(PID.TID 0000.0001) ># ====================
(PID.TID 0000.0001) >#
(PID.TID 0000.0001) ># Continuous equation parameters
(PID.TID 0000.0001) > &PARM01
(PID.TID 0000.0001) > tRef=29., 28., 27., 26., 25., 24., 23., 22., 21., 20., 19., 18.,
(PID.TID 0000.0001) > 17., 16., 15., 14., 13., 12., 11., 10., 09., 07., 08., 06., 05.,
(PID.TID 0000.0001) > viscAr=2.E-4,
(PID.TID 0000.0001) > viscA4=12.E5,
(PID.TID 0000.0001) > no_slip_sides=.FALSE.,
(PID.TID 0000.0001) > no_slip_bottom=.TRUE.,
(PID.TID 0000.0001) > bottomDragLinear=1.E-3,
(PID.TID 0000.0001) >#bottomDragQuadratic=1.E-3,
(PID.TID 0000.0001) >#diffKrT=2.E-5,
(PID.TID 0000.0001) >#diffKrS=2.E-5,
(PID.TID 0000.0001) > diffKrNrT=6*1.E-2, 19*2.E-5,
(PID.TID 0000.0001) > diffKrNrS=6*1.E-2, 19*2.E-5,
(PID.TID 0000.0001) > diffKhT=0.E3,
(PID.TID 0000.0001) > diffKhS=0.E3,
(PID.TID 0000.0001) > beta=0.E-11,
(PID.TID 0000.0001) > f0  =1.E-4,
(PID.TID 0000.0001) > gravity=9.81,
(PID.TID 0000.0001) > eosType='LINEAR',
(PID.TID 0000.0001) > tAlpha=2.E-4,
(PID.TID 0000.0001) > sBeta =0.E-4,
(PID.TID 0000.0001) > rhoConst=1000.,
(PID.TID 0000.0001) > rhoNil=1000.,
(PID.TID 0000.0001) > rigidLid=.FALSE.,
(PID.TID 0000.0001) > implicitFreeSurface=.TRUE.,
(PID.TID 0000.0001) > implicitDiffusion=.TRUE.,
(PID.TID 0000.0001) > hFacMin=.1,
(PID.TID 0000.0001) > hMixCriteria=-0.1,
(PID.TID 0000.0001) >#hMixCriteria=1.5,
(PID.TID 0000.0001) > readBinaryPrec=64,
(PID.TID 0000.0001) > writeBinaryPrec=64,
(PID.TID 0000.0001) > /
(PID.TID 0000.0001) >
(PID.TID 0000.0001) ># Elliptic solver parameters
(PID.TID 0000.0001) > &PARM02
(PID.TID 0000.0001) > cg2dMaxIters=1000,
(PID.TID 0000.0001) > cg2dTargetResidual=1.E-13,
(PID.TID 0000.0001) > /
(PID.TID 0000.0001) >
(PID.TID 0000.0001) ># Time stepping parameters
(PID.TID 0000.0001) > &PARM03
(PID.TID 0000.0001) > startTime=0.,
(PID.TID 0000.0001) >#nTimeSteps=8641,
(PID.TID 0000.0001) > nTimeSteps=25,
(PID.TID 0000.0001) > deltaT=3600.,
(PID.TID 0000.0001) > cAdjFreq=-1.,
(PID.TID 0000.0001) > abEps=0.1,
(PID.TID 0000.0001) > pChkptFreq=0.,
(PID.TID 0000.0001) > chkptFreq =0.,
(PID.TID 0000.0001) > dumpFreq=2592000.,
(PID.TID 0000.0001) >#monitorFreq=864000.,
(PID.TID 0000.0001) > monitorSelect=1,
(PID.TID 0000.0001) > monitorFreq=1.,
(PID.TID 0000.0001) > /
(PID.TID 0000.0001) >
(PID.TID 0000.0001) ># Gridding parameters
(PID.TID 0000.0001) > &PARM04
(PID.TID 0000.0001) > usingCartesianGrid=.TRUE.,
(PID.TID 0000.0001) > delR= 10*20.,  24.,  29.,  35.,  42.,  51.,  61.,  74.,
(PID.TID 0000.0001) >          89., 107., 128., 155., 186., 224., 270., 325.,
(PID.TID 0000.0001) > delX=1*1.E5,
(PID.TID 0000.0001) > delY=32*1.E5,
(PID.TID 0000.0001) > /
(PID.TID 0000.0001) >
(PID.TID 0000.0001) ># Input datasets
(PID.TID 0000.0001) > &PARM05
(PID.TID 0000.0001) > hydrogThetaFile='t_ini.bin',
(PID.TID 0000.0001) > hydrogSaltFile ='s_ini.bin',
(PID.TID 0000.0001) > uVelInitFile   ='u_ini.bin',
(PID.TID 0000.0001) > bathyFile      ='topo_slp.bin',
(PID.TID 0000.0001) > /
(PID.TID 0000.0001) 
(PID.TID 0000.0001)  INI_PARMS ; starts to read PARM01
(PID.TID 0000.0001)  INI_PARMS ; read PARM01 : OK
(PID.TID 0000.0001)  INI_PARMS ; starts to read PARM02
(PID.TID 0000.0001)  INI_PARMS ; read PARM02 : OK
(PID.TID 0000.0001)  INI_PARMS ; starts to read PARM03
(PID.TID 0000.0001)  INI_PARMS ; read PARM03 : OK
(PID.TID 0000.0001)  INI_PARMS ; starts to read PARM04
(PID.TID 0000.0001)  INI_PARMS ; read PARM04 : OK
(PID.TID 0000.0001)  INI_PARMS ; starts to read PARM05
(PID.TID 0000.0001)  INI_PARMS ; read PARM05 : OK
(PID.TID 0000.0001)  INI_PARMS: finished reading file "data"
(PID.TID 0000.0001)  PACKAGES_BOOT: opening data.pkg
(PID.TID 0000.0001)  OPEN_COPY_DATA_FILE: opening file data.pkg
(PID.TID 0000.0001) // =======================================================
(PID.TID 0000.0001) // Parameter file "data.pkg"
(PID.TID 0000.0001) // =======================================================
(PID.TID 0000.0001) ># Packages (lines beginning "#" are comments)
(PID.TID 0000.0001) > &PACKAGES
(PID.TID 0000.0001) >  useGMRedi=.TRUE.,
(PID.TID 0000.0001) >  useDiagnostics=.TRUE.,
(PID.TID 0000.0001) > /
(PID.TID 0000.0001) 
(PID.TID 0000.0001)  PACKAGES_BOOT: finished reading data.pkg
(PID.TID 0000.0001)  PACKAGES_BOOT: On/Off package Summary
 --------  pkgs with a standard "usePKG" On/Off switch in "data.pkg":  --------
 pkg/gmredi               compiled   and   used ( useGMRedi                = T )
 pkg/diagnostics          compiled   and   used ( useDiagnostics           = T )
 -------- pkgs without standard "usePKG" On/Off switch in "data.pkg":  --------
 pkg/generic_advdiff      compiled   and   used ( useGAD                   = T )
 pkg/mom_common           compiled   and   used ( momStepping              = T )
 pkg/mom_vecinv           compiled but not used ( +vectorInvariantMomentum = F )
 pkg/mom_fluxform         compiled   and   used ( & not vectorInvariantMom = T )
 pkg/monitor              compiled   and   used ( monitorFreq > 0.         = T )
 pkg/debug                compiled but not used ( debugMode                = F )
 pkg/rw                   compiled   and   used
 pkg/mdsio                compiled   and   used
(PID.TID 0000.0001)  PACKAGES_BOOT: End of package Summary
(PID.TID 0000.0001) 
(PID.TID 0000.0001)  GM_READPARMS: opening data.gmredi
(PID.TID 0000.0001)  OPEN_COPY_DATA_FILE: opening file data.gmredi
(PID.TID 0000.0001) // =======================================================
(PID.TID 0000.0001) // Parameter file "data.gmredi"
(PID.TID 0000.0001) // =======================================================
(PID.TID 0000.0001) ># GM-Redi parameters
(PID.TID 0000.0001) > &GM_PARM01
(PID.TID 0000.0001) > GM_AdvForm=.TRUE.,
(PID.TID 0000.0001) > GM_useBVP = .TRUE.,
(PID.TID 0000.0001) > GM_BVP_modeNumber=5,
(PID.TID 0000.0001) > GM_background_K=1000.,
(PID.TID 0000.0001) > GM_taper_scheme='linear',
(PID.TID 0000.0001) > GM_maxSlope    =1.E-02,
(PID.TID 0000.0001) > GM_facTrL2dz   = 0.,
(PID.TID 0000.0001) >#GM_facTrL2ML   = 5.,
(PID.TID 0000.0001) >#GM_maxTransLay = 500.,
(PID.TID 0000.0001) > GM_useSubMeso = .TRUE.,
(PID.TID 0000.0001) > subMeso_Ceff  = 3.e-2,
(PID.TID 0000.0001) >#subMeso_LfMin = 5.e+3,
(PID.TID 0000.0001) > /
(PID.TID 0000.0001) >
(PID.TID 0000.0001) 
(PID.TID 0000.0001)  GM_READPARMS: finished reading data.gmredi
(PID.TID 0000.0001)  DIAGNOSTICS_READPARMS: opening data.diagnostics
(PID.TID 0000.0001)  OPEN_COPY_DATA_FILE: opening file data.diagnostics
(PID.TID 0000.0001) // =======================================================
(PID.TID 0000.0001) // Parameter file "data.diagnostics"
(PID.TID 0000.0001) // =======================================================
(PID.TID 0000.0001) ># Diagnostic Package Choices
(PID.TID 0000.0001) >#--------------------
(PID.TID 0000.0001) >#  dumpAtLast (logical): always write output at the end of simulation (default=F)
(PID.TID 0000.0001) >#  diag_mnc   (logical): write to NetCDF files (default=useMNC)
(PID.TID 0000.0001) >#--for each output-stream:
(PID.TID 0000.0001) >#  fileName(n) : prefix of the output file name (max 80c long) for outp.stream n
(PID.TID 0000.0001) >#  frequency(n):< 0 : write snap-shot output every |frequency| seconds
(PID.TID 0000.0001) >#               > 0 : write time-average output every frequency seconds
(PID.TID 0000.0001) >#  timePhase(n)     : write at time = timePhase + multiple of |frequency|
(PID.TID 0000.0001) >#    averagingFreq  : frequency (in s) for periodic averaging interval
(PID.TID 0000.0001) >#    averagingPhase : phase     (in s) for periodic averaging interval
(PID.TID 0000.0001) >#    repeatCycle    : number of averaging intervals in 1 cycle
(PID.TID 0000.0001) >#  levels(:,n) : list of levels to write to file (Notes: declared as REAL)
(PID.TID 0000.0001) >#                when this entry is missing, select all common levels of this list
(PID.TID 0000.0001) >#  fields(:,n) : list of selected diagnostics fields (8.c) in outp.stream n
(PID.TID 0000.0001) >#                (see "available_diagnostics.log" file for the full list of diags)
(PID.TID 0000.0001) >#  missing_value(n) : missing value for real-type fields in output file "n"
(PID.TID 0000.0001) >#  fileFlags(n)     : specific code (8c string) for output file "n"
(PID.TID 0000.0001) >#--------------------
(PID.TID 0000.0001) > &DIAGNOSTICS_LIST
(PID.TID 0000.0001) ># diag_mnc     = .FALSE.,
(PID.TID 0000.0001) >  fields(1:8,1) = 'ETAN    ','DETADT2 ','PHIBOT  ',
(PID.TID 0000.0001) >                  'MXLDEPTH','GM_BVPcW','GM_BVPcS',
(PID.TID 0000.0001) >                  'SubMesLf','SubMpsiY',
(PID.TID 0000.0001) >#                 'GM_hTrsL','GM_baseS','GM_rLamb',
(PID.TID 0000.0001) >#                 'GM_VisbK',
(PID.TID 0000.0001) >   levels(1,1) = 1.,
(PID.TID 0000.0001) >  fileName(1) = 'surfDiag',
(PID.TID 0000.0001) >  frequency(1) = -86400.,
(PID.TID 0000.0001) >  timePhase(1) = 0.,
(PID.TID 0000.0001) >
(PID.TID 0000.0001) >  fields(1:7,2)  = 'UVEL    ','VVEL    ','WVEL    ','PHIHYD  ',
(PID.TID 0000.0001) >                   'THETA   ','THETASQ ','UVELSQ  ',
(PID.TID 0000.0001) ># do not specify levels => all levels are selected
(PID.TID 0000.0001) >  fileName(2) = 'dynDiag',
(PID.TID 0000.0001) >  frequency(2) = -864000.,
(PID.TID 0000.0001) >  timePhase(2) = 0.,
(PID.TID 0000.0001) >
(PID.TID 0000.0001) >  fields(1:8,3)  = 'DRHODR  ','RHOAnoma',
(PID.TID 0000.0001) >                   'GM_Kwy  ','GM_Kwz  ','GM_Kvy  ',
(PID.TID 0000.0001) >                   'THETA   ',
(PID.TID 0000.0001) >                   'GM_PsiY ','GM_Kvz  ',
(PID.TID 0000.0001) >  fileName(3) = 'oceDiag',
(PID.TID 0000.0001) >  frequency(3) = -86400.,
(PID.TID 0000.0001) >  timePhase(3) = 0.,
(PID.TID 0000.0001) >
(PID.TID 0000.0001) >  fields(1:5,4)  = 'ADVy_TH ','ADVr_TH ',
(PID.TID 0000.0001) >                   'DFyE_TH ','DFrE_TH ',
(PID.TID 0000.0001) >                   'DFrI_TH ',
(PID.TID 0000.0001) >#                  'ADVx_SLT',
(PID.TID 0000.0001) >#  fileName(4) = 'flxDiag',
(PID.TID 0000.0001) >  frequency(4) = 1728000.,
(PID.TID 0000.0001) > /
(PID.TID 0000.0001) >
(PID.TID 0000.0001) >#--------------------
(PID.TID 0000.0001) ># Parameter for Diagnostics of per level statistics:
(PID.TID 0000.0001) >#--------------------
(PID.TID 0000.0001) >#  diagSt_mnc (logical): write stat-diags to NetCDF files (default=diag_mnc)
(PID.TID 0000.0001) >#  diagSt_regMaskFile : file containing the region-mask to read-in
(PID.TID 0000.0001) >#  nSetRegMskFile   : number of region-mask sets within the region-mask file
(PID.TID 0000.0001) >#  set_regMask(i)   : region-mask set-index that identifies the region "i"
(PID.TID 0000.0001) >#  val_regMask(i)   : region "i" identifier value in the region mask
(PID.TID 0000.0001) >#--for each output-stream:
(PID.TID 0000.0001) >#  stat_fName(n) : prefix of the output file name (max 80c long) for outp.stream n
(PID.TID 0000.0001) >#  stat_freq(n):< 0 : write snap-shot output every |stat_freq| seconds
(PID.TID 0000.0001) >#               > 0 : write time-average output every stat_freq seconds
(PID.TID 0000.0001) >#  stat_phase(n)    : write at time = stat_phase + multiple of |stat_freq|
(PID.TID 0000.0001) >#  stat_region(:,n) : list of "regions" (default: 1 region only=global)
(PID.TID 0000.0001) >#  stat_fields(:,n) : list of selected diagnostics fields (8.c) in outp.stream n
(PID.TID 0000.0001) >#                (see "available_diagnostics.log" file for the full list of diags)
(PID.TID 0000.0001) >#--------------------
(PID.TID 0000.0001) > &DIAG_STATIS_PARMS
(PID.TID 0000.0001) ># stat_fields(1:13,1) = 'ETAN    ','UVEL    ','VVEL    ','WVEL    ', 'THETA   ',
(PID.TID 0000.0001) >#                       'MXLDEPTH','SubMesLf','SubMpsiY','GM_PsiY ',
(PID.TID 0000.0001) >#                       'GM_Kwy  ','GM_Kwz  ','GM_Kvy  ','GM_Kvz  ',
(PID.TID 0000.0001) >##                      'GM_hTrsL','GM_baseS','GM_rLamb',
(PID.TID 0000.0001) >## stat_fName(1) = 'dynStDiag',
(PID.TID 0000.0001) >#   stat_freq(1) = 18000.,
(PID.TID 0000.0001) >## stat_phase(1) = 0.,
(PID.TID 0000.0001) > /
(PID.TID 0000.0001) 
(PID.TID 0000.0001) S/R DIAGNOSTICS_READPARMS, read namelist "diagnostics_list": start
(PID.TID 0000.0001) S/R DIAGNOSTICS_READPARMS, read namelist "diagnostics_list": OK
(PID.TID 0000.0001) S/R DIAGNOSTICS_READPARMS, read namelist "DIAG_STATIS_PARMS": start
(PID.TID 0000.0001) S/R DIAGNOSTICS_READPARMS, read namelist "DIAG_STATIS_PARMS": OK
(PID.TID 0000.0001)  DIAGNOSTICS_READPARMS: global parameter summary:
(PID.TID 0000.0001)  dumpAtLast = /* always write time-ave diags at the end */
(PID.TID 0000.0001)                   F
(PID.TID 0000.0001)     ;
(PID.TID 0000.0001)  diag_mnc =   /* write NetCDF output files */
(PID.TID 0000.0001)                   F
(PID.TID 0000.0001)     ;
(PID.TID 0000.0001)  useMissingValue = /* put MissingValue where mask = 0 */
(PID.TID 0000.0001)                   F
(PID.TID 0000.0001)     ;
(PID.TID 0000.0001)  diagCG_maxIters = /* max number of iters in diag_cg2d */
(PID.TID 0000.0001)                    1000
(PID.TID 0000.0001)     ;
(PID.TID 0000.0001)  diagCG_resTarget = /* residual target for diag_cg2d */
(PID.TID 0000.0001)                 1.000000000000000E-13
(PID.TID 0000.0001)     ;
(PID.TID 0000.0001)  diagCG_pcOffDFac = /* preconditioner off-diagonal factor */
(PID.TID 0000.0001)                 9.611687812379854E-01
(PID.TID 0000.0001)     ;
(PID.TID 0000.0001) -----------------------------------------------------
(PID.TID 0000.0001)  DIAGNOSTICS_READPARMS: active diagnostics summary:
(PID.TID 0000.0001) -----------------------------------------------------
(PID.TID 0000.0001) Creating Output Stream: surfDiag
(PID.TID 0000.0001) Output Frequency:     -86400.000000 ; Phase:           0.000000
(PID.TID 0000.0001)  Averaging Freq.:          0.000000 , Phase:           0.000000 , Cycle:   1
(PID.TID 0000.0001)  missing value: -9.990000000000E+02
(PID.TID 0000.0001)  Levels:       1.
(PID.TID 0000.0001)  Fields:    ETAN     DETADT2  PHIBOT   MXLDEPTH GM_BVPcW GM_BVPcS SubMesLf SubMpsiY
(PID.TID 0000.0001) Creating Output Stream: dynDiag
(PID.TID 0000.0001) Output Frequency:    -864000.000000 ; Phase:           0.000000
(PID.TID 0000.0001)  Averaging Freq.:          0.000000 , Phase:           0.000000 , Cycle:   1
(PID.TID 0000.0001)  missing value: -9.990000000000E+02
(PID.TID 0000.0001)  Levels:    will be set later
(PID.TID 0000.0001)  Fields:    UVEL     VVEL     WVEL     PHIHYD   THETA    THETASQ  UVELSQ
(PID.TID 0000.0001) Creating Output Stream: oceDiag
(PID.TID 0000.0001) Output Frequency:     -86400.000000 ; Phase:           0.000000
(PID.TID 0000.0001)  Averaging Freq.:          0.000000 , Phase:           0.000000 , Cycle:   1
(PID.TID 0000.0001)  missing value: -9.990000000000E+02
(PID.TID 0000.0001)  Levels:    will be set later
(PID.TID 0000.0001)  Fields:    DRHODR   RHOAnoma GM_Kwy   GM_Kwz   GM_Kvy   THETA    GM_PsiY  GM_Kvz
(PID.TID 0000.0001) -----------------------------------------------------
(PID.TID 0000.0001)  DIAGNOSTICS_READPARMS: statistics diags. summary:
(PID.TID 0000.0001) -----------------------------------------------------
(PID.TID 0000.0001) 
(PID.TID 0000.0001) SET_PARMS: done
(PID.TID 0000.0001) Enter INI_VERTICAL_GRID: setInterFDr=    T ; setCenterDr=    F
(PID.TID 0000.0001) %MON XC_max                       =   5.0000000000000E+04
(PID.TID 0000.0001) %MON XC_min                       =   5.0000000000000E+04
(PID.TID 0000.0001) %MON XC_mean                      =   5.0000000000000E+04
(PID.TID 0000.0001) %MON XC_sd                        =   0.0000000000000E+00
(PID.TID 0000.0001) %MON XG_max                       =   0.0000000000000E+00
(PID.TID 0000.0001) %MON XG_min                       =   0.0000000000000E+00
(PID.TID 0000.0001) %MON XG_mean                      =   0.0000000000000E+00
(PID.TID 0000.0001) %MON XG_sd                        =   0.0000000000000E+00
(PID.TID 0000.0001) %MON DXC_max                      =   1.0000000000000E+05
(PID.TID 0000.0001) %MON DXC_min                      =   1.0000000000000E+05
(PID.TID 0000.0001) %MON DXC_mean                     =   1.0000000000000E+05
(PID.TID 0000.0001) %MON DXC_sd                       =   0.0000000000000E+00
(PID.TID 0000.0001) %MON DXF_max                      =   1.0000000000000E+05
(PID.TID 0000.0001) %MON DXF_min                      =   1.0000000000000E+05
(PID.TID 0000.0001) %MON DXF_mean                     =   1.0000000000000E+05
(PID.TID 0000.0001) %MON DXF_sd                       =   0.0000000000000E+00
(PID.TID 0000.0001) %MON DXG_max                      =   1.0000000000000E+05
(PID.TID 0000.0001) %MON DXG_min                      =   1.0000000000000E+05
(PID.TID 0000.0001) %MON DXG_mean                     =   1.0000000000000E+05
(PID.TID 0000.0001) %MON DXG_sd                       =   0.0000000000000E+00
(PID.TID 0000.0001) %MON DXV_max                      =   1.0000000000000E+05
(PID.TID 0000.0001) %MON DXV_min                      =   1.0000000000000E+05
(PID.TID 0000.0001) %MON DXV_mean                     =   1.0000000000000E+05
(PID.TID 0000.0001) %MON DXV_sd                       =   0.0000000000000E+00
(PID.TID 0000.0001) %MON YC_max                       =   3.1500000000000E+06
(PID.TID 0000.0001) %MON YC_min                       =   5.0000000000000E+04
(PID.TID 0000.0001) %MON YC_mean                      =   1.6000000000000E+06
(PID.TID 0000.0001) %MON YC_sd                        =   9.2330926563097E+05
(PID.TID 0000.0001) %MON YG_max                       =   3.1000000000000E+06
(PID.TID 0000.0001) %MON YG_min                       =   0.0000000000000E+00
(PID.TID 0000.0001) %MON YG_mean                      =   1.5500000000000E+06
(PID.TID 0000.0001) %MON YG_sd                        =   9.2330926563097E+05
(PID.TID 0000.0001) %MON DYC_max                      =   1.0000000000000E+05
(PID.TID 0000.0001) %MON DYC_min                      =   1.0000000000000E+05
(PID.TID 0000.0001) %MON DYC_mean                     =   1.0000000000000E+05
(PID.TID 0000.0001) %MON DYC_sd                       =   0.0000000000000E+00
(PID.TID 0000.0001) %MON DYF_max                      =   1.0000000000000E+05
(PID.TID 0000.0001) %MON DYF_min                      =   1.0000000000000E+05
(PID.TID 0000.0001) %MON DYF_mean                     =   1.0000000000000E+05
(PID.TID 0000.0001) %MON DYF_sd                       =   0.0000000000000E+00
(PID.TID 0000.0001) %MON DYG_max                      =   1.0000000000000E+05
(PID.TID 0000.0001) %MON DYG_min                      =   1.0000000000000E+05
(PID.TID 0000.0001) %MON DYG_mean                     =   1.0000000000000E+05
(PID.TID 0000.0001) %MON DYG_sd                       =   0.0000000000000E+00
(PID.TID 0000.0001) %MON DYU_max                      =   1.0000000000000E+05
(PID.TID 0000.0001) %MON DYU_min                      =   1.0000000000000E+05
(PID.TID 0000.0001) %MON DYU_mean                     =   1.0000000000000E+05
(PID.TID 0000.0001) %MON DYU_sd                       =   0.0000000000000E+00
(PID.TID 0000.0001) %MON RA_max                       =   1.0000000000000E+10
(PID.TID 0000.0001) %MON RA_min                       =   1.0000000000000E+10
(PID.TID 0000.0001) %MON RA_mean                      =   1.0000000000000E+10
(PID.TID 0000.0001) %MON RA_sd                        =   0.0000000000000E+00
(PID.TID 0000.0001) %MON RAW_max                      =   1.0000000000000E+10
(PID.TID 0000.0001) %MON RAW_min                      =   1.0000000000000E+10
(PID.TID 0000.0001) %MON RAW_mean                     =   1.0000000000000E+10
(PID.TID 0000.0001) %MON RAW_sd                       =   0.0000000000000E+00
(PID.TID 0000.0001) %MON RAS_max                      =   1.0000000000000E+10
(PID.TID 0000.0001) %MON RAS_min                      =   1.0000000000000E+10
(PID.TID 0000.0001) %MON RAS_mean                     =   1.0000000000000E+10
(PID.TID 0000.0001) %MON RAS_sd                       =   0.0000000000000E+00
(PID.TID 0000.0001) %MON RAZ_max                      =   1.0000000000000E+10
(PID.TID 0000.0001) %MON RAZ_min                      =   1.0000000000000E+10
(PID.TID 0000.0001) %MON RAZ_mean                     =   1.0000000000000E+10
(PID.TID 0000.0001) %MON RAZ_sd                       =   0.0000000000000E+00
(PID.TID 0000.0001) %MON AngleCS_max                  =   1.0000000000000E+00
(PID.TID 0000.0001) %MON AngleCS_min                  =   1.0000000000000E+00
(PID.TID 0000.0001) %MON AngleCS_mean                 =   1.0000000000000E+00
(PID.TID 0000.0001) %MON AngleCS_sd                   =   0.0000000000000E+00
(PID.TID 0000.0001) %MON AngleSN_max                  =   0.0000000000000E+00
(PID.TID 0000.0001) %MON AngleSN_min                  =   0.0000000000000E+00
(PID.TID 0000.0001) %MON AngleSN_mean                 =   0.0000000000000E+00
(PID.TID 0000.0001) %MON AngleSN_sd                   =   0.0000000000000E+00
(PID.TID 0000.0001)  MDS_READ_FIELD: opening global file: topo_slp.bin
(PID.TID 0000.0001) // =======================================================
(PID.TID 0000.0001) // Field Model R_low (ini_masks_etc)
(PID.TID 0000.0001) // CMIN =         -1.999737326001201E+03
(PID.TID 0000.0001) // CMAX =         -1.400262673998799E+03
(PID.TID 0000.0001) // CINT =          2.220276488897786E+01
(PID.TID 0000.0001) // SYMBOLS (CMIN->CMAX): -abcdefghijklmnopqrstuvwxyz+
(PID.TID 0000.0001) //                  0.0: .
(PID.TID 0000.0001) // RANGE I (Lo:Hi:Step):(    -2:     4:     1)
(PID.TID 0000.0001) // RANGE J (Lo:Hi:Step):(    35:    -2:    -1)
(PID.TID 0000.0001) // RANGE K (Lo:Hi:Step):(   1:   1:   1)
(PID.TID 0000.0001) // =======================================================
(PID.TID 0000.0001) K =   1
(PID.TID 0000.0001) //
(PID.TID 0000.0001) // |--J--|2101234
(PID.TID 0000.0001) //     35 -------
(PID.TID 0000.0001) //     34 -------
(PID.TID 0000.0001) //     33 .......
(PID.TID 0000.0001) //     32 .......
(PID.TID 0000.0001) //     31 +++++++
(PID.TID 0000.0001) //     30 +++++++
(PID.TID 0000.0001) //     29 +++++++
(PID.TID 0000.0001) //     28 +++++++
(PID.TID 0000.0001) //     27 +++++++
(PID.TID 0000.0001) //     26 +++++++
(PID.TID 0000.0001) //     25 +++++++
(PID.TID 0000.0001) //     24 +++++++
(PID.TID 0000.0001) //     23 +++++++
(PID.TID 0000.0001) //     22 zzzzzzz
(PID.TID 0000.0001) //     21 yyyyyyy
(PID.TID 0000.0001) //     20 wwwwwww
(PID.TID 0000.0001) //     19 uuuuuuu
(PID.TID 0000.0001) //     18 sssssss
(PID.TID 0000.0001) //     17 ooooooo
(PID.TID 0000.0001) //     16 lllllll
(PID.TID 0000.0001) //     15 hhhhhhh
(PID.TID 0000.0001) //     14 fffffff
(PID.TID 0000.0001) //     19 uuuuuuu
(PID.TID 0000.0001) //     18 sssssss
(PID.TID 0000.0001) //     17 ooooooo
(PID.TID 0000.0001) //     16 lllllll
(PID.TID 0000.0001) //     15 hhhhhhh
(PID.TID 0000.0001) //     14 fffffff
(PID.TID 0000.0001) //     13 ddddddd
(PID.TID 0000.0001) //     12 bbbbbbb
(PID.TID 0000.0001) //     11 aaaaaaa
(PID.TID 0000.0001) //     10 aaaaaaa
(PID.TID 0000.0001) //      9 -------
(PID.TID 0000.0001) //      8 -------
(PID.TID 0000.0001) //      7 -------
(PID.TID 0000.0001) //      6 -------
(PID.TID 0000.0001) //      5 -------
(PID.TID 0000.0001) //      4 -------
(PID.TID 0000.0001) //      3 -------
(PID.TID 0000.0001) //      2 -------
(PID.TID 0000.0001) //      1 .......
(PID.TID 0000.0001) //      0 .......
(PID.TID 0000.0001) //     -1 +++++++
(PID.TID 0000.0001) //     -2 +++++++
(PID.TID 0000.0001) // =======================================================
(PID.TID 0000.0001) // END OF FIELD                                          =
(PID.TID 0000.0001) // =======================================================
(PID.TID 0000.0001) 
(PID.TID 0000.0001) // =======================================================
(PID.TID 0000.0001) // Field Model Ro_surf (ini_masks_etc)
(PID.TID 0000.0001) // CMIN =          1.000000000000000E+32
(PID.TID 0000.0001) // CMAX =         -1.000000000000000E+32
(PID.TID 0000.0001) // CINT =          0.000000000000000E+00
(PID.TID 0000.0001) // SYMBOLS (CMIN->CMAX): -abcdefghijklmnopqrstuvwxyz+
(PID.TID 0000.0001) //                  0.0: .
(PID.TID 0000.0001) // RANGE I (Lo:Hi:Step):(    -2:     4:     1)
(PID.TID 0000.0001) // RANGE J (Lo:Hi:Step):(    35:    -2:    -1)
(PID.TID 0000.0001) // RANGE K (Lo:Hi:Step):(   1:   1:   1)
(PID.TID 0000.0001) // =======================================================
(PID.TID 0000.0001) // =======================================================
(PID.TID 0000.0001) // END OF FIELD                                          =
(PID.TID 0000.0001) // =======================================================
(PID.TID 0000.0001) 
(PID.TID 0000.0001) // =======================================================
(PID.TID 0000.0001) // Field hFacC at iteration          0
(PID.TID 0000.0001) // CMIN =          1.000000000000000E+00
(PID.TID 0000.0001) // CMAX =          1.000000000000000E+00
(PID.TID 0000.0001) // CINT =          0.000000000000000E+00
(PID.TID 0000.0001) // SYMBOLS (CMIN->CMAX): -abcdefghijklmnopqrstuvwxyz+
(PID.TID 0000.0001) //                  0.0: .
(PID.TID 0000.0001) // RANGE I (Lo:Hi:Step):(    -2:     4:     1)
(PID.TID 0000.0001) // RANGE J (Lo:Hi:Step):(    35:    -2:    -1)
(PID.TID 0000.0001) // RANGE K (Lo:Hi:Step):(   1:   1:   1)
(PID.TID 0000.0001) // =======================================================
(PID.TID 0000.0001) // =======================================================
(PID.TID 0000.0001) // END OF FIELD                                          =
(PID.TID 0000.0001) // =======================================================
(PID.TID 0000.0001) 
(PID.TID 0000.0001) // =======================================================
(PID.TID 0000.0001) // Field hFacW at iteration          0
(PID.TID 0000.0001) // CMIN =          1.000000000000000E+00
(PID.TID 0000.0001) // CMAX =          1.000000000000000E+00
(PID.TID 0000.0001) // CINT =          0.000000000000000E+00
(PID.TID 0000.0001) // SYMBOLS (CMIN->CMAX): -abcdefghijklmnopqrstuvwxyz+
(PID.TID 0000.0001) //                  0.0: .
(PID.TID 0000.0001) // RANGE I (Lo:Hi:Step):(    -2:     4:     1)
(PID.TID 0000.0001) // RANGE J (Lo:Hi:Step):(    35:    -2:    -1)
(PID.TID 0000.0001) // RANGE K (Lo:Hi:Step):(   1:   1:   1)
(PID.TID 0000.0001) // =======================================================
(PID.TID 0000.0001) // =======================================================
(PID.TID 0000.0001) // END OF FIELD                                          =
(PID.TID 0000.0001) // =======================================================
(PID.TID 0000.0001) 
(PID.TID 0000.0001) // =======================================================
(PID.TID 0000.0001) // Field hFacS at iteration          0
(PID.TID 0000.0001) // CMIN =          1.000000000000000E+00
(PID.TID 0000.0001) // CMAX =          1.000000000000000E+00
(PID.TID 0000.0001) // CINT =          0.000000000000000E+00
(PID.TID 0000.0001) // SYMBOLS (CMIN->CMAX): -abcdefghijklmnopqrstuvwxyz+
(PID.TID 0000.0001) //                  0.0: .
(PID.TID 0000.0001) // RANGE I (Lo:Hi:Step):(    -2:     4:     1)
(PID.TID 0000.0001) // RANGE J (Lo:Hi:Step):(    35:    -2:    -1)
(PID.TID 0000.0001) // RANGE K (Lo:Hi:Step):(   1:   1:   1)
(PID.TID 0000.0001) // =======================================================
(PID.TID 0000.0001) // =======================================================
(PID.TID 0000.0001) // END OF FIELD                                          =
(PID.TID 0000.0001) // =======================================================
(PID.TID 0000.0001) 
(PID.TID 0000.0001) GAD_INIT_FIXED: GAD_OlMinSize=  1  0  1
(PID.TID 0000.0001) 
(PID.TID 0000.0001) // ===================================
(PID.TID 0000.0001) // GAD parameters :
(PID.TID 0000.0001) // ===================================
(PID.TID 0000.0001) tempAdvScheme =   /* Temp. Horiz.Advection scheme selector */
(PID.TID 0000.0001)                       2
(PID.TID 0000.0001)     ;
(PID.TID 0000.0001) tempVertAdvScheme =   /* Temp. Vert. Advection scheme selector */
(PID.TID 0000.0001)                       2
(PID.TID 0000.0001)     ;
(PID.TID 0000.0001) tempMultiDimAdvec =   /* use Muti-Dim Advec method for Temp */
(PID.TID 0000.0001)                   F
(PID.TID 0000.0001)     ;
(PID.TID 0000.0001) tempSOM_Advection = /* use 2nd Order Moment Advection for Temp */
(PID.TID 0000.0001)                   F
(PID.TID 0000.0001)     ;
(PID.TID 0000.0001) AdamsBashforthGt = /* apply Adams-Bashforth extrapolation on Gt */
(PID.TID 0000.0001)                   T
(PID.TID 0000.0001)     ;
(PID.TID 0000.0001) AdamsBashforth_T = /* apply Adams-Bashforth extrapolation on Temp */
(PID.TID 0000.0001)                   F
(PID.TID 0000.0001)     ;
(PID.TID 0000.0001) saltAdvScheme =   /* Salt. Horiz.advection scheme selector */
(PID.TID 0000.0001)                       2
(PID.TID 0000.0001)     ;
(PID.TID 0000.0001) saltVertAdvScheme =   /* Salt. Vert. Advection scheme selector */
(PID.TID 0000.0001)                       2
(PID.TID 0000.0001)     ;
(PID.TID 0000.0001) saltMultiDimAdvec =   /* use Muti-Dim Advec method for Salt */
(PID.TID 0000.0001)                   F
(PID.TID 0000.0001)     ;
(PID.TID 0000.0001) saltSOM_Advection = /* use 2nd Order Moment Advection for Salt */
(PID.TID 0000.0001)                   F
(PID.TID 0000.0001)     ;
(PID.TID 0000.0001) AdamsBashforthGs = /* apply Adams-Bashforth extrapolation on Gs */
(PID.TID 0000.0001)                   T
(PID.TID 0000.0001)     ;
(PID.TID 0000.0001) AdamsBashforth_S = /* apply Adams-Bashforth extrapolation on Salt */
(PID.TID 0000.0001)                   F
(PID.TID 0000.0001)     ;
(PID.TID 0000.0001) // ===================================
(PID.TID 0000.0001) ------------------------------------------------------------
(PID.TID 0000.0001) DIAGNOSTICS_SET_LEVELS: done
(PID.TID 0000.0001)  Total Nb of available Diagnostics: ndiagt=   212
(PID.TID 0000.0001)  write list of available Diagnostics to file: available_diagnostics.log
(PID.TID 0000.0001) SETDIAG: Allocate  1 x  1 Levels for Diagnostic #    23 ETAN
(PID.TID 0000.0001) SETDIAG: Allocate  1 x  1 Levels for Diagnostic #    25 DETADT2
(PID.TID 0000.0001) SETDIAG: Allocate  1 x  1 Levels for Diagnostic #    73 PHIBOT
(PID.TID 0000.0001) SETDIAG: Allocate  1 x  1 Levels for Diagnostic #    76 MXLDEPTH
(PID.TID 0000.0001) SETDIAG: Allocate  1 x  1 Levels for Diagnostic #   211 GM_BVPcW
(PID.TID 0000.0001) SETDIAG: Allocate  1 x  1 Levels for Diagnostic #   212 GM_BVPcS
(PID.TID 0000.0001) SETDIAG: Allocate  1 x  1 Levels for Diagnostic #   194 SubMesLf
(PID.TID 0000.0001) SETDIAG: Allocate  1 x  1 Levels for Diagnostic #   196 SubMpsiY
(PID.TID 0000.0001) SETDIAG: Allocate 25 x  1 Levels for Diagnostic #    30 UVEL
(PID.TID 0000.0001) SETDIAG: Allocate 25 x  1 Levels for Diagnostic #    31 VVEL
(PID.TID 0000.0001) SETDIAG: Allocate 25 x  1 Levels for Diagnostic #    32 WVEL
(PID.TID 0000.0001) SETDIAG: Allocate 25 x  1 Levels for Diagnostic #    71 PHIHYD
(PID.TID 0000.0001) SETDIAG: Allocate 25 x  1 Levels for Diagnostic #    26 THETA
(PID.TID 0000.0001) SETDIAG: Allocate 25 x  1 Levels for Diagnostic #    33 THETASQ
(PID.TID 0000.0001) SETDIAG: Allocate 25 x  1 Levels for Diagnostic #    36 UVELSQ
(PID.TID 0000.0001) SETDIAG: Allocate 25 x  1 Levels for Diagnostic #    77 DRHODR
(PID.TID 0000.0001) SETDIAG: Allocate 25 x  1 Levels for Diagnostic #    64 RHOAnoma
(PID.TID 0000.0001) SETDIAG: Allocate 25 x  1 Levels for Diagnostic #   202 GM_Kwy
(PID.TID 0000.0001) SETDIAG: Allocate 25 x  1 Levels for Diagnostic #   203 GM_Kwz
(PID.TID 0000.0001) SETDIAG: Allocate 25 x  1 Levels for Diagnostic #   198 GM_Kvy
(PID.TID 0000.0001) SETDIAG: Allocate 25 x  1 Levels for Diagnostic #    26 THETA
(PID.TID 0000.0001) SETDIAG: Allocate 25 x  1 Levels for Diagnostic #   205 GM_PsiY
(PID.TID 0000.0001) SETDIAG: Allocate 25 x  1 Levels for Diagnostic #   200 GM_Kvz
(PID.TID 0000.0001)   space allocated for all diagnostics:     383 levels
(PID.TID 0000.0001)   set mate pointer for diag #   211  GM_BVPcW , Parms: SU P    M1 , mate:   212
(PID.TID 0000.0001)   set mate pointer for diag #   212  GM_BVPcS , Parms: SV P    M1 , mate:   211
(PID.TID 0000.0001)   set mate pointer for diag #    30  UVEL     , Parms: UUR     MR , mate:    31
(PID.TID 0000.0001)   set mate pointer for diag #    31  VVEL     , Parms: VVR     MR , mate:    30
(PID.TID 0000.0001) DIAGNOSTICS_SET_POINTERS: Set levels for Outp.Stream: dynDiag
(PID.TID 0000.0001)  Levels:       1.   2.   3.   4.   5.   6.   7.   8.   9.  10.  11.  12.  13.  14.  15.  16.  17.  18.  19.  20.
(PID.TID 0000.0001)  Levels:      21.  22.  23.  24.  25.
(PID.TID 0000.0001) DIAGNOSTICS_SET_POINTERS: Set levels for Outp.Stream: oceDiag
(PID.TID 0000.0001)  Levels:       1.   2.   3.   4.   5.   6.   7.   8.   9.  10.  11.  12.  13.  14.  15.  16.  17.  18.  19.  20.
(PID.TID 0000.0001)  Levels:      21.  22.  23.  24.  25.
(PID.TID 0000.0001) DIAGNOSTICS_SET_POINTERS: done
(PID.TID 0000.0001) ------------------------------------------------------------
(PID.TID 0000.0001) DIAGSTATS_SET_REGIONS: define no region
(PID.TID 0000.0001) ------------------------------------------------------------
(PID.TID 0000.0001)   space allocated for all stats-diags:       0 levels
(PID.TID 0000.0001) DIAGSTATS_SET_POINTERS: done
(PID.TID 0000.0001) ------------------------------------------------------------
(PID.TID 0000.0001) %MON fCori_max                    =   1.0000000000000E-04
(PID.TID 0000.0001) %MON fCori_min                    =   1.0000000000000E-04
(PID.TID 0000.0001) %MON fCori_mean                   =   1.0000000000000E-04
(PID.TID 0000.0001) %MON fCori_sd                     =   2.7105054312138E-20
(PID.TID 0000.0001) %MON fCoriG_max                   =   1.0000000000000E-04
(PID.TID 0000.0001) %MON fCoriG_min                   =   1.0000000000000E-04
(PID.TID 0000.0001) %MON fCoriG_mean                  =   1.0000000000000E-04
(PID.TID 0000.0001) %MON fCoriG_sd                    =   2.7105054312138E-20
(PID.TID 0000.0001) %MON fCoriCos_max                 =   0.0000000000000E+00
(PID.TID 0000.0001) %MON fCoriCos_min                 =   0.0000000000000E+00
(PID.TID 0000.0001) %MON fCoriCos_mean                =   0.0000000000000E+00
(PID.TID 0000.0001) %MON fCoriCos_sd                  =   0.0000000000000E+00
(PID.TID 0000.0001) INI_CG2D: CG2D normalisation factor =  5.0006567712553626E-04
(PID.TID 0000.0001) 
(PID.TID 0000.0001) // =======================================================
(PID.TID 0000.0001) // Model configuration
(PID.TID 0000.0001) // =======================================================
(PID.TID 0000.0001) //
(PID.TID 0000.0001) // "Physical" paramters ( PARM01 in namelist )
(PID.TID 0000.0001) //
(PID.TID 0000.0001) buoyancyRelation = /* Type of relation to get Buoyancy */
(PID.TID 0000.0001)               'OCEANIC'
(PID.TID 0000.0001)     ;
(PID.TID 0000.0001) fluidIsAir   =  /* fluid major constituent is Air */
(PID.TID 0000.0001)                   F
(PID.TID 0000.0001)     ;
(PID.TID 0000.0001) fluidIsWater =  /* fluid major constituent is Water */
(PID.TID 0000.0001)                   T
(PID.TID 0000.0001)     ;
(PID.TID 0000.0001) usingPCoords =  /* use p (or p*) vertical coordinate */
(PID.TID 0000.0001)                   F
(PID.TID 0000.0001)     ;
(PID.TID 0000.0001) usingZCoords =  /* use z (or z*) vertical coordinate */
(PID.TID 0000.0001)                   T
(PID.TID 0000.0001)     ;
(PID.TID 0000.0001) tRef =   /* Reference temperature profile ( oC or K ) */
(PID.TID 0000.0001)                 2.900000000000000E+01,      /* K =  1 */
(PID.TID 0000.0001)                 2.800000000000000E+01,      /* K =  2 */
(PID.TID 0000.0001)                 2.700000000000000E+01,      /* K =  3 */
(PID.TID 0000.0001)                 2.600000000000000E+01,      /* K =  4 */
(PID.TID 0000.0001)                 2.500000000000000E+01,      /* K =  5 */
(PID.TID 0000.0001)                 2.400000000000000E+01,      /* K =  6 */
(PID.TID 0000.0001)                 2.300000000000000E+01,      /* K =  7 */
(PID.TID 0000.0001)                 2.200000000000000E+01,      /* K =  8 */
(PID.TID 0000.0001)                 2.100000000000000E+01,      /* K =  9 */
(PID.TID 0000.0001)                 2.000000000000000E+01,      /* K = 10 */
(PID.TID 0000.0001)                 1.900000000000000E+01,      /* K = 11 */
(PID.TID 0000.0001)                 1.800000000000000E+01,      /* K = 12 */
(PID.TID 0000.0001)                 1.700000000000000E+01,      /* K = 13 */
(PID.TID 0000.0001)                 1.600000000000000E+01,      /* K = 14 */
(PID.TID 0000.0001)                 1.500000000000000E+01,      /* K = 15 */
(PID.TID 0000.0001)                 1.400000000000000E+01,      /* K = 16 */
(PID.TID 0000.0001)                 1.300000000000000E+01,      /* K = 17 */
(PID.TID 0000.0001)                 1.200000000000000E+01,      /* K = 18 */
(PID.TID 0000.0001)                 1.100000000000000E+01,      /* K = 19 */
(PID.TID 0000.0001)                 1.000000000000000E+01,      /* K = 20 */
(PID.TID 0000.0001)                 9.000000000000000E+00,      /* K = 21 */
(PID.TID 0000.0001)                 7.000000000000000E+00,      /* K = 22 */
(PID.TID 0000.0001)                 8.000000000000000E+00,      /* K = 23 */
(PID.TID 0000.0001)                 6.000000000000000E+00,      /* K = 24 */
(PID.TID 0000.0001)                 5.000000000000000E+00       /* K = 25 */
(PID.TID 0000.0001)     ;
(PID.TID 0000.0001) sRef =   /* Reference salinity profile ( g/kg ) */
(PID.TID 0000.0001)    25 @  3.000000000000000E+01              /* K =  1: 25 */
(PID.TID 0000.0001)     ;
(PID.TID 0000.0001) useStrainTensionVisc= /* Use StrainTension Form of Viscous Operator */
(PID.TID 0000.0001)                   F
(PID.TID 0000.0001)     ;
(PID.TID 0000.0001) useVariableVisc = /* Use variable horizontal viscosity */
(PID.TID 0000.0001)                   F
(PID.TID 0000.0001)     ;
(PID.TID 0000.0001) useHarmonicVisc = /* Use harmonic horizontal viscosity */
(PID.TID 0000.0001)                   F
(PID.TID 0000.0001)     ;
(PID.TID 0000.0001) useBiharmonicVisc= /* Use biharmonic horiz.  viscosity */
(PID.TID 0000.0001)                   T
(PID.TID 0000.0001)     ;
(PID.TID 0000.0001) useSmag3D = /* Use isotropic 3-D Smagorinsky viscosity */
(PID.TID 0000.0001)                   F
(PID.TID 0000.0001)     ;
(PID.TID 0000.0001) viscAh  =   /* Lateral harmonic viscosity ( m^2/s ) */
(PID.TID 0000.0001)                 0.000000000000000E+00
(PID.TID 0000.0001)     ;
(PID.TID 0000.0001) viscA4  =   /* Lateral biharmonic viscosity ( m^4/s ) */
(PID.TID 0000.0001)                 1.200000000000000E+06
(PID.TID 0000.0001)     ;
(PID.TID 0000.0001) no_slip_sides =  /* Viscous BCs: No-slip sides */
(PID.TID 0000.0001)                   F
(PID.TID 0000.0001)     ;
(PID.TID 0000.0001) sideDragFactor = /* side-drag scaling factor (non-dim) */
(PID.TID 0000.0001)                 2.000000000000000E+00
(PID.TID 0000.0001)     ;
(PID.TID 0000.0001) viscArNr = /* vertical profile of vertical viscosity ( m^2/s )*/
(PID.TID 0000.0001)    25 @  2.000000000000000E-04              /* K =  1: 25 */
(PID.TID 0000.0001)     ;
(PID.TID 0000.0001) no_slip_bottom =  /* Viscous BCs: No-slip bottom */
(PID.TID 0000.0001)                   T
(PID.TID 0000.0001)     ;
(PID.TID 0000.0001) bottomVisc_pCell = /* Partial-cell in bottom Visc. BC */
(PID.TID 0000.0001)                   F
(PID.TID 0000.0001)     ;
(PID.TID 0000.0001) bottomDragLinear = /* linear bottom-drag coefficient ( m/s ) */
(PID.TID 0000.0001)                 1.000000000000000E-03
(PID.TID 0000.0001)     ;
(PID.TID 0000.0001) bottomDragQuadratic = /* quadratic bottom-drag coefficient (-) */
(PID.TID 0000.0001)                 0.000000000000000E+00
(PID.TID 0000.0001)     ;
(PID.TID 0000.0001) selectBotDragQuadr = /* select quadratic bottom drag options */
(PID.TID 0000.0001)                      -1
(PID.TID 0000.0001)     ;
(PID.TID 0000.0001) diffKhT =   /* Laplacian diffusion of heat laterally ( m^2/s ) */
(PID.TID 0000.0001)                 0.000000000000000E+00
(PID.TID 0000.0001)     ;
(PID.TID 0000.0001) diffK4T =   /* Biharmonic diffusion of heat laterally ( m^4/s ) */
(PID.TID 0000.0001)                 0.000000000000000E+00
(PID.TID 0000.0001)     ;
(PID.TID 0000.0001) diffKhS =   /* Laplacian diffusion of salt laterally ( m^2/s ) */
(PID.TID 0000.0001)                 0.000000000000000E+00
(PID.TID 0000.0001)     ;
(PID.TID 0000.0001) diffK4S =   /* Biharmonic diffusion of salt laterally ( m^4/s ) */
(PID.TID 0000.0001)                 0.000000000000000E+00
(PID.TID 0000.0001)     ;
(PID.TID 0000.0001) diffKrNrT = /* vertical profile of vertical diffusion of Temp ( m^2/s )*/
(PID.TID 0000.0001)     6 @  1.000000000000000E-02,             /* K =  1:  6 */
(PID.TID 0000.0001)    19 @  2.000000000000000E-05              /* K =  7: 25 */
(PID.TID 0000.0001)     ;
(PID.TID 0000.0001) diffKrNrS = /* vertical profile of vertical diffusion of Salt ( m^2/s )*/
(PID.TID 0000.0001)     6 @  1.000000000000000E-02,             /* K =  1:  6 */
(PID.TID 0000.0001)    19 @  2.000000000000000E-05              /* K =  7: 25 */
(PID.TID 0000.0001)     ;
(PID.TID 0000.0001) diffKrBL79surf = /* Surface diffusion for Bryan and Lewis 79 ( m^2/s ) */
(PID.TID 0000.0001)                 0.000000000000000E+00
(PID.TID 0000.0001)     ;
(PID.TID 0000.0001) diffKrBL79deep = /* Deep diffusion for Bryan and Lewis 1979 ( m^2/s ) */
(PID.TID 0000.0001)                 0.000000000000000E+00
(PID.TID 0000.0001)     ;
(PID.TID 0000.0001) diffKrBL79scl = /* Depth scale for Bryan and Lewis 1979 ( m ) */
(PID.TID 0000.0001)                 2.000000000000000E+02
(PID.TID 0000.0001)     ;
(PID.TID 0000.0001) diffKrBL79Ho = /* Turning depth for Bryan and Lewis 1979 ( m ) */
(PID.TID 0000.0001)                -2.000000000000000E+03
(PID.TID 0000.0001)     ;
(PID.TID 0000.0001) ivdc_kappa = /* Implicit Vertical Diffusivity for Convection ( m^2/s) */
(PID.TID 0000.0001)                 0.000000000000000E+00
(PID.TID 0000.0001)     ;
(PID.TID 0000.0001) hMixCriteria=  /* Criteria for mixed-layer diagnostic */
(PID.TID 0000.0001)                -1.000000000000000E-01
(PID.TID 0000.0001)     ;
(PID.TID 0000.0001) dRhoSmall =  /* Parameter for mixed-layer diagnostic */
(PID.TID 0000.0001)                 1.000000000000000E-06
(PID.TID 0000.0001)     ;
(PID.TID 0000.0001) hMixSmooth=  /* Smoothing parameter for mixed-layer diagnostic */
(PID.TID 0000.0001)                 0.000000000000000E+00
(PID.TID 0000.0001)     ;
(PID.TID 0000.0001) eosType =  /* Type of Equation of State */
(PID.TID 0000.0001)               'LINEAR'
(PID.TID 0000.0001)     ;
(PID.TID 0000.0001) tAlpha = /* Linear EOS thermal expansion coefficient ( 1/oC ) */
(PID.TID 0000.0001)                 2.000000000000000E-04
(PID.TID 0000.0001)     ;
(PID.TID 0000.0001) sBeta  = /* Linear EOS haline contraction coefficient ( 1/(g/kg) ) */
(PID.TID 0000.0001)                 0.000000000000000E+00
(PID.TID 0000.0001)     ;
(PID.TID 0000.0001) rhoNil    = /* Reference density for Linear EOS ( kg/m^3 ) */
(PID.TID 0000.0001)                 1.000000000000000E+03
(PID.TID 0000.0001)     ;
(PID.TID 0000.0001) selectP_inEOS_Zc = /* select pressure to use in EOS (0,1,2,3) */
(PID.TID 0000.0001)                       0
(PID.TID 0000.0001)     0= -g*rhoConst*z ; 1= pRef (from tRef,sRef); 2= Hyd P ; 3= Hyd+NH P
(PID.TID 0000.0001)     ;
(PID.TID 0000.0001) surf_pRef = /* Surface reference pressure ( Pa ) */
(PID.TID 0000.0001)                 1.013250000000000E+05
(PID.TID 0000.0001)     ;
(PID.TID 0000.0001) HeatCapacity_Cp =  /* Specific heat capacity ( J/kg/K ) */
(PID.TID 0000.0001)                 3.994000000000000E+03
(PID.TID 0000.0001)     ;
(PID.TID 0000.0001) celsius2K = /* 0 degree Celsius converted to Kelvin ( K ) */
(PID.TID 0000.0001)                 2.731500000000000E+02
(PID.TID 0000.0001)     ;
(PID.TID 0000.0001) rhoConst  = /* Reference density (Boussinesq)  ( kg/m^3 ) */
(PID.TID 0000.0001)                 1.000000000000000E+03
(PID.TID 0000.0001)     ;
(PID.TID 0000.0001) rhoFacC = /* normalized Reference density @ cell-Center (-) */
(PID.TID 0000.0001)    25 @  1.000000000000000E+00              /* K =  1: 25 */
(PID.TID 0000.0001)     ;
(PID.TID 0000.0001) rhoFacF = /* normalized Reference density @ W-Interface (-) */
(PID.TID 0000.0001)    26 @  1.000000000000000E+00              /* K =  1: 26 */
(PID.TID 0000.0001)     ;
(PID.TID 0000.0001) rhoConstFresh = /* Fresh-water reference density ( kg/m^3 ) */
(PID.TID 0000.0001)                 1.000000000000000E+03
(PID.TID 0000.0001)     ;
(PID.TID 0000.0001) gravity =   /* Gravitational acceleration ( m/s^2 ) */
(PID.TID 0000.0001)                 9.810000000000000E+00
(PID.TID 0000.0001)     ;
(PID.TID 0000.0001) gBaro =   /* Barotropic gravity ( m/s^2 ) */
(PID.TID 0000.0001)                 9.810000000000000E+00
(PID.TID 0000.0001)     ;
(PID.TID 0000.0001) gravFacC = /* gravity factor (vs surf.) @ cell-Center (-) */
(PID.TID 0000.0001)    25 @  1.000000000000000E+00              /* K =  1: 25 */
(PID.TID 0000.0001)     ;
(PID.TID 0000.0001) gravFacF = /* gravity factor (vs surf.) @ W-Interface (-) */
(PID.TID 0000.0001)    26 @  1.000000000000000E+00              /* K =  1: 26 */
(PID.TID 0000.0001)     ;
(PID.TID 0000.0001) rotationPeriod =   /* Rotation Period ( s ) */
(PID.TID 0000.0001)                 8.616400000000000E+04
(PID.TID 0000.0001)     ;
(PID.TID 0000.0001) omega =   /* Angular velocity ( rad/s ) */
(PID.TID 0000.0001)                 7.292123516990375E-05
(PID.TID 0000.0001)     ;
(PID.TID 0000.0001) f0 =   /* Reference coriolis parameter ( 1/s ) */
(PID.TID 0000.0001)                 1.000000000000000E-04
(PID.TID 0000.0001)     ;
(PID.TID 0000.0001) beta =   /* Beta ( 1/(m.s) ) */
(PID.TID 0000.0001)                 0.000000000000000E+00
(PID.TID 0000.0001)     ;
(PID.TID 0000.0001) fPrime =   /* Second coriolis parameter ( 1/s ) */
(PID.TID 0000.0001)                 0.000000000000000E+00
(PID.TID 0000.0001)     ;
(PID.TID 0000.0001) rigidLid =   /* Rigid lid on/off flag */
(PID.TID 0000.0001)                   F
(PID.TID 0000.0001)     ;
(PID.TID 0000.0001) implicitFreeSurface =   /* Implicit free surface on/off flag */
(PID.TID 0000.0001)                   T
(PID.TID 0000.0001)     ;
(PID.TID 0000.0001) freeSurfFac =   /* Implicit free surface factor */
(PID.TID 0000.0001)                 1.000000000000000E+00
(PID.TID 0000.0001)     ;
(PID.TID 0000.0001) implicSurfPress =  /* Surface Pressure implicit factor (0-1) */
(PID.TID 0000.0001)                 1.000000000000000E+00
(PID.TID 0000.0001)     ;
(PID.TID 0000.0001) implicDiv2DFlow =  /* Barot. Flow Div. implicit factor (0-1) */
(PID.TID 0000.0001)                 1.000000000000000E+00
(PID.TID 0000.0001)     ;
(PID.TID 0000.0001) uniformLin_PhiSurf = /* use uniform Bo_surf on/off flag */
(PID.TID 0000.0001)                   T
(PID.TID 0000.0001)     ;
(PID.TID 0000.0001) uniformFreeSurfLev = /* free-surface level-index is uniform */
(PID.TID 0000.0001)                   T
(PID.TID 0000.0001)     ;
(PID.TID 0000.0001) sIceLoadFac =  /* scale factor for sIceLoad (0-1) */
(PID.TID 0000.0001)                 1.000000000000000E+00
(PID.TID 0000.0001)     ;
(PID.TID 0000.0001) hFacMin =   /* minimum partial cell factor (hFac) */
(PID.TID 0000.0001)                 1.000000000000000E-01
(PID.TID 0000.0001)     ;
(PID.TID 0000.0001) hFacMinDr = /* minimum partial cell thickness ( m) */
(PID.TID 0000.0001)                 0.000000000000000E+00
(PID.TID 0000.0001)     ;
(PID.TID 0000.0001) exactConserv =  /* Exact Volume Conservation on/off flag */
(PID.TID 0000.0001)                   F
(PID.TID 0000.0001)     ;
(PID.TID 0000.0001) linFSConserveTr = /* Tracer correction for Lin Free Surface on/off flag */
(PID.TID 0000.0001)                   F
(PID.TID 0000.0001)     ;
(PID.TID 0000.0001) nonlinFreeSurf = /* Non-linear Free Surf. options (-1,0,1,2,3)*/
(PID.TID 0000.0001)                       0
(PID.TID 0000.0001)      -1,0= Off ; 1,2,3= On, 2=+rescale gU,gV, 3=+update cg2d solv.
(PID.TID 0000.0001)     ;
(PID.TID 0000.0001) hFacInf =   /* lower threshold for hFac (nonlinFreeSurf only)*/
(PID.TID 0000.0001)                 2.000000000000000E-01
(PID.TID 0000.0001)     ;
(PID.TID 0000.0001) hFacSup =   /* upper threshold for hFac (nonlinFreeSurf only)*/
(PID.TID 0000.0001)                 2.000000000000000E+00
(PID.TID 0000.0001)     ;
(PID.TID 0000.0001) select_rStar = /* r* Vertical coord. options (=0 r coord.; >0 uses r*)*/
(PID.TID 0000.0001)                       0
(PID.TID 0000.0001)     ;
(PID.TID 0000.0001) useRealFreshWaterFlux = /* Real Fresh Water Flux on/off flag*/
(PID.TID 0000.0001)                   F
(PID.TID 0000.0001)     ;
(PID.TID 0000.0001) temp_EvPrRn = /* Temp. of Evap/Prec/R (UNSET=use local T)(oC)*/
(PID.TID 0000.0001)                 1.234567000000000E+05
(PID.TID 0000.0001)     ;
(PID.TID 0000.0001) salt_EvPrRn = /* Salin. of Evap/Prec/R (UNSET=use local S)(g/kg)*/
(PID.TID 0000.0001)                 0.000000000000000E+00
(PID.TID 0000.0001)     ;
(PID.TID 0000.0001) selectAddFluid = /* option for mass source/sink of fluid (=0: off) */
(PID.TID 0000.0001)                       0
(PID.TID 0000.0001)     ;
(PID.TID 0000.0001) temp_addMass = /* Temp. of addMass array (UNSET=use local T)(oC)*/
(PID.TID 0000.0001)                 1.234567000000000E+05
(PID.TID 0000.0001)     ;
(PID.TID 0000.0001) salt_addMass = /* Salin. of addMass array (UNSET=use local S)(g/kg)*/
(PID.TID 0000.0001)                 0.000000000000000E+00
(PID.TID 0000.0001)     ;
(PID.TID 0000.0001) convertFW2Salt = /* convert F.W. Flux to Salt Flux (-1=use local S)(g/kg)*/
(PID.TID 0000.0001)                 3.500000000000000E+01
(PID.TID 0000.0001)     ;
(PID.TID 0000.0001) use3Dsolver = /* use 3-D pressure solver on/off flag */
(PID.TID 0000.0001)                   F
(PID.TID 0000.0001)     ;
(PID.TID 0000.0001) nonHydrostatic =  /* Non-Hydrostatic on/off flag */
(PID.TID 0000.0001)                   F
(PID.TID 0000.0001)     ;
(PID.TID 0000.0001) nh_Am2 = /* Non-Hydrostatic terms scaling factor */
(PID.TID 0000.0001)                 1.000000000000000E+00
(PID.TID 0000.0001)     ;
(PID.TID 0000.0001) implicitNHPress = /* Non-Hyd Pressure implicit factor (0-1)*/
(PID.TID 0000.0001)                 1.000000000000000E+00
(PID.TID 0000.0001)     ;
(PID.TID 0000.0001) selectNHfreeSurf = /* Non-Hyd (free-)Surface option */
(PID.TID 0000.0001)                       0
(PID.TID 0000.0001)     ;
(PID.TID 0000.0001) quasiHydrostatic = /* Quasi-Hydrostatic on/off flag */
(PID.TID 0000.0001)                   F
(PID.TID 0000.0001)     ;
(PID.TID 0000.0001) calc_wVelocity = /* vertical velocity calculation on/off flag */
(PID.TID 0000.0001)                   T
(PID.TID 0000.0001)     ;
(PID.TID 0000.0001) momStepping =  /* Momentum equation on/off flag */
(PID.TID 0000.0001)                   T
(PID.TID 0000.0001)     ;
(PID.TID 0000.0001) vectorInvariantMomentum= /* Vector-Invariant Momentum on/off */
(PID.TID 0000.0001)                   F
(PID.TID 0000.0001)     ;
(PID.TID 0000.0001) momAdvection =  /* Momentum advection on/off flag */
(PID.TID 0000.0001)                   T
(PID.TID 0000.0001)     ;
(PID.TID 0000.0001) momViscosity =  /* Momentum viscosity on/off flag */
(PID.TID 0000.0001)                   T
(PID.TID 0000.0001)     ;
(PID.TID 0000.0001) momImplVertAdv= /* Momentum implicit vert. advection on/off*/
(PID.TID 0000.0001)                   F
(PID.TID 0000.0001)     ;
(PID.TID 0000.0001) implicitViscosity = /* Implicit viscosity on/off flag */
(PID.TID 0000.0001)                   F
(PID.TID 0000.0001)     ;
(PID.TID 0000.0001) selectImplicitDrag= /* Implicit bot Drag options (0,1,2)*/
(PID.TID 0000.0001)                       0
(PID.TID 0000.0001)     0= Expl. ; 1= Impl. on provis. Vel ; 2= Fully Impl (with surf.P)
(PID.TID 0000.0001)     ;
(PID.TID 0000.0001) metricTerms =  /* metric-Terms on/off flag */
(PID.TID 0000.0001)                   F
(PID.TID 0000.0001)     ;
(PID.TID 0000.0001) useNHMTerms = /* Non-Hydrostatic Metric-Terms on/off */
(PID.TID 0000.0001)                   F
(PID.TID 0000.0001)     ;
(PID.TID 0000.0001) selectCoriMap = /* Coriolis Map options (0,1,2,3)*/
(PID.TID 0000.0001)                       1
(PID.TID 0000.0001)     0= f-Plane ; 1= Beta-Plane ; 2= Spherical ; 3= read from file
(PID.TID 0000.0001)     ;
(PID.TID 0000.0001) use3dCoriolis = /* 3-D Coriolis on/off flag */
(PID.TID 0000.0001)                   F
(PID.TID 0000.0001)     ;
(PID.TID 0000.0001) useCoriolis =  /* Coriolis on/off flag */
(PID.TID 0000.0001)                   T
(PID.TID 0000.0001)     ;
(PID.TID 0000.0001) useCDscheme =  /* CD scheme on/off flag */
(PID.TID 0000.0001)                   F
(PID.TID 0000.0001)     ;
(PID.TID 0000.0001) selectCoriScheme= /* Scheme selector for Coriolis-Term */
(PID.TID 0000.0001)                       0
(PID.TID 0000.0001)    = 0 : original discretization (simple averaging, no hFac)
(PID.TID 0000.0001)    = 1 : Wet-point averaging (Jamar & Ozer 1986)
(PID.TID 0000.0001)    = 2 : energy conserving scheme (no hFac weight)
(PID.TID 0000.0001)    = 3 : energy conserving scheme using Wet-point averaging
(PID.TID 0000.0001)     ;
(PID.TID 0000.0001) momForcing =  /* Momentum forcing on/off flag */
(PID.TID 0000.0001)                   T
(PID.TID 0000.0001)     ;
(PID.TID 0000.0001) momTidalForcing = /* Momentum Tidal forcing on/off flag */
(PID.TID 0000.0001)                   T
(PID.TID 0000.0001)     ;
(PID.TID 0000.0001) momPressureForcing =  /* Momentum pressure term on/off flag */
(PID.TID 0000.0001)                   T
(PID.TID 0000.0001)     ;
(PID.TID 0000.0001) implicitIntGravWave= /* Implicit Internal Gravity Wave flag */
(PID.TID 0000.0001)                   F
(PID.TID 0000.0001)     ;
(PID.TID 0000.0001) staggerTimeStep =    /* Stagger time stepping on/off flag */
(PID.TID 0000.0001)                   F
(PID.TID 0000.0001)     ;
(PID.TID 0000.0001) doResetHFactors = /* reset thickness factors @ each time-step */
(PID.TID 0000.0001)                   F
(PID.TID 0000.0001)     ;
(PID.TID 0000.0001) multiDimAdvection =  /* enable/disable Multi-Dim Advection */
(PID.TID 0000.0001)                   T
(PID.TID 0000.0001)     ;
(PID.TID 0000.0001) useMultiDimAdvec =   /* Multi-Dim Advection is/is-not used */
(PID.TID 0000.0001)                   F
(PID.TID 0000.0001)     ;
(PID.TID 0000.0001) implicitDiffusion = /* Implicit Diffusion on/off flag */
(PID.TID 0000.0001)                   T
(PID.TID 0000.0001)     ;
(PID.TID 0000.0001) tempStepping =  /* Temperature equation on/off flag */
(PID.TID 0000.0001)                   T
(PID.TID 0000.0001)     ;
(PID.TID 0000.0001) tempAdvection = /* Temperature advection on/off flag */
(PID.TID 0000.0001)                   T
(PID.TID 0000.0001)     ;
(PID.TID 0000.0001) tempImplVertAdv = /* Temp. implicit vert. advection on/off */
(PID.TID 0000.0001)                   F
(PID.TID 0000.0001)     ;
(PID.TID 0000.0001) tempForcing  =  /* Temperature forcing on/off flag */
(PID.TID 0000.0001)                   T
(PID.TID 0000.0001)     ;
(PID.TID 0000.0001) doThetaClimRelax = /* apply SST relaxation on/off flag */
(PID.TID 0000.0001)                   F
(PID.TID 0000.0001)     ;
(PID.TID 0000.0001) tempIsActiveTr = /* Temp. is a dynamically Active Tracer */
(PID.TID 0000.0001)                   T
(PID.TID 0000.0001)     ;
(PID.TID 0000.0001) saltStepping =  /* Salinity equation on/off flag */
(PID.TID 0000.0001)                   T
(PID.TID 0000.0001)     ;
(PID.TID 0000.0001) saltAdvection = /* Salinity advection on/off flag */
(PID.TID 0000.0001)                   T
(PID.TID 0000.0001)     ;
(PID.TID 0000.0001) saltImplVertAdv = /* Sali. implicit vert. advection on/off */
(PID.TID 0000.0001)                   F
(PID.TID 0000.0001)     ;
(PID.TID 0000.0001) saltForcing  =  /* Salinity forcing on/off flag */
(PID.TID 0000.0001)                   T
(PID.TID 0000.0001)     ;
(PID.TID 0000.0001) doSaltClimRelax = /* apply SSS relaxation on/off flag */
(PID.TID 0000.0001)                   F
(PID.TID 0000.0001)     ;
(PID.TID 0000.0001) saltIsActiveTr = /* Salt  is a dynamically Active Tracer */
(PID.TID 0000.0001)                   F
(PID.TID 0000.0001)     ;
(PID.TID 0000.0001)  readBinaryPrec = /* Precision used for reading binary files */
(PID.TID 0000.0001)                      64
(PID.TID 0000.0001)     ;
(PID.TID 0000.0001) writeBinaryPrec = /* Precision used for writing binary files */
(PID.TID 0000.0001)                      64
(PID.TID 0000.0001)     ;
(PID.TID 0000.0001)  rwSuffixType =   /* select format of mds file suffix */
(PID.TID 0000.0001)                       0
(PID.TID 0000.0001)    = 0 : myIter (I10.10) ;   = 1 : 100*myTime (100th sec) ;
(PID.TID 0000.0001)    = 2 : myTime (seconds);   = 3 : myTime/360 (10th of hr);
(PID.TID 0000.0001)    = 4 : myTime/3600 (hours)
(PID.TID 0000.0001)     ;
(PID.TID 0000.0001)  globalFiles = /* write "global" (=not per tile) files */
(PID.TID 0000.0001)                   F
(PID.TID 0000.0001)     ;
(PID.TID 0000.0001)  useSingleCpuIO = /* only master MPI process does I/O */
(PID.TID 0000.0001)                   F
(PID.TID 0000.0001)     ;
(PID.TID 0000.0001)  useSingleCpuInput = /* only master process reads input */
(PID.TID 0000.0001)                   F
(PID.TID 0000.0001)     ;
(PID.TID 0000.0001) /* debLev[*]  : level of debug & auxiliary message printing */
(PID.TID 0000.0001) debLevZero =  0 ; /* level of disabled aux. msg printing */
(PID.TID 0000.0001)    debLevA =  1 ; /* level of minimum  aux. msg printing */
(PID.TID 0000.0001)    debLevB =  2 ; /* level of low aux. print (report read-file opening)*/
(PID.TID 0000.0001)    debLevC =  3 ; /* level of moderate debug prt (most pkgs debug msg) */
(PID.TID 0000.0001)    debLevD =  4 ; /* level of enhanced debug prt (add DEBUG_STATS prt) */
(PID.TID 0000.0001)    debLevE =  5 ; /* level of extensive debug printing */
(PID.TID 0000.0001) debugLevel =  /* select debug printing level */
(PID.TID 0000.0001)                       2
(PID.TID 0000.0001)     ;
(PID.TID 0000.0001)  plotLevel =  /* select PLOT_FIELD printing level */
(PID.TID 0000.0001)                       2
(PID.TID 0000.0001)     ;
(PID.TID 0000.0001) //
(PID.TID 0000.0001) // Elliptic solver(s) paramters ( PARM02 in namelist )
(PID.TID 0000.0001) //
(PID.TID 0000.0001) cg2dMaxIters =   /* Upper limit on 2d con. grad iterations  */
(PID.TID 0000.0001)                    1000
(PID.TID 0000.0001)     ;
(PID.TID 0000.0001) cg2dMinItersNSA =   /* Minimum number of iterations of 2d con. grad solver  */
(PID.TID 0000.0001)                       0
(PID.TID 0000.0001)     ;
(PID.TID 0000.0001) cg2dUseMinResSol= /* use cg2d last-iter(=0) / min-resid.(=1) solution */
(PID.TID 0000.0001)                       0
(PID.TID 0000.0001)     ;
(PID.TID 0000.0001) cg2dTargetResidual =   /* 2d con. grad target residual  */
(PID.TID 0000.0001)                 1.000000000000000E-13
(PID.TID 0000.0001)     ;
(PID.TID 0000.0001) cg2dTargetResWunit =   /* CG2d target residual [W units] */
(PID.TID 0000.0001)                -1.000000000000000E+00
(PID.TID 0000.0001)     ;
(PID.TID 0000.0001) cg2dPreCondFreq =   /* Freq. for updating cg2d preconditioner */
(PID.TID 0000.0001)                       1
(PID.TID 0000.0001)     ;
(PID.TID 0000.0001) useSRCGSolver =  /* use single reduction CG solver(s) */
(PID.TID 0000.0001)                   F
(PID.TID 0000.0001)     ;
(PID.TID 0000.0001) useNSACGSolver =  /* use not-self-adjoint CG solver */
(PID.TID 0000.0001)                   F
(PID.TID 0000.0001)     ;
(PID.TID 0000.0001) printResidualFreq = /* Freq. for printing CG residual */
(PID.TID 0000.0001)                       0
(PID.TID 0000.0001)     ;
(PID.TID 0000.0001) //
(PID.TID 0000.0001) // Time stepping paramters ( PARM03 in namelist )
(PID.TID 0000.0001) //
(PID.TID 0000.0001) deltaTMom =   /* Momentum equation timestep ( s ) */
(PID.TID 0000.0001)                 3.600000000000000E+03
(PID.TID 0000.0001)     ;
(PID.TID 0000.0001) deltaTFreeSurf = /* FreeSurface equation timestep ( s ) */
(PID.TID 0000.0001)                 3.600000000000000E+03
(PID.TID 0000.0001)     ;
(PID.TID 0000.0001) dTtracerLev =  /* Tracer equation timestep ( s ) */
(PID.TID 0000.0001)    25 @  3.600000000000000E+03              /* K =  1: 25 */
(PID.TID 0000.0001)     ;
(PID.TID 0000.0001) deltaTClock  =   /* Model clock timestep ( s ) */
(PID.TID 0000.0001)                 3.600000000000000E+03
(PID.TID 0000.0001)     ;
(PID.TID 0000.0001) cAdjFreq =   /* Convective adjustment interval ( s ) */
(PID.TID 0000.0001)                 3.600000000000000E+03
(PID.TID 0000.0001)     ;
(PID.TID 0000.0001) momForcingOutAB = /* =1: take Momentum Forcing out of Adams-Bash. stepping */
(PID.TID 0000.0001)                       0
(PID.TID 0000.0001)     ;
(PID.TID 0000.0001) tracForcingOutAB = /* =1: take T,S,pTr Forcing out of Adams-Bash. stepping */
(PID.TID 0000.0001)                       0
(PID.TID 0000.0001)     ;
(PID.TID 0000.0001) momDissip_In_AB = /* put Dissipation Tendency in Adams-Bash. stepping */
(PID.TID 0000.0001)                   T
(PID.TID 0000.0001)     ;
(PID.TID 0000.0001) doAB_onGtGs = /* apply AB on Tendencies (rather than on T,S)*/
(PID.TID 0000.0001)                   T
(PID.TID 0000.0001)     ;
(PID.TID 0000.0001) abEps =   /* Adams-Bashforth-2 stabilizing weight */
(PID.TID 0000.0001)                 1.000000000000000E-01
(PID.TID 0000.0001)     ;
(PID.TID 0000.0001) applyExchUV_early = /* Apply EXCH to U,V earlier in time-step */
(PID.TID 0000.0001)                   F
(PID.TID 0000.0001)     ;
(PID.TID 0000.0001) pickupStrictlyMatch= /* stop if pickup do not strictly match */
(PID.TID 0000.0001)                   T
(PID.TID 0000.0001)     ;
(PID.TID 0000.0001) nIter0   =   /* Run starting timestep number */
(PID.TID 0000.0001)                       0
(PID.TID 0000.0001)     ;
(PID.TID 0000.0001) nTimeSteps = /* Number of timesteps */
(PID.TID 0000.0001)                      25
(PID.TID 0000.0001)     ;
(PID.TID 0000.0001) nEndIter =   /* Run ending timestep number */
(PID.TID 0000.0001)                      25
(PID.TID 0000.0001)     ;
(PID.TID 0000.0001) baseTime =   /* Model base time ( s ) */
(PID.TID 0000.0001)                 0.000000000000000E+00
(PID.TID 0000.0001)     ;
(PID.TID 0000.0001) startTime =  /* Run start time ( s ) */
(PID.TID 0000.0001)                 0.000000000000000E+00
(PID.TID 0000.0001)     ;
(PID.TID 0000.0001) endTime  =   /* Integration ending time ( s ) */
(PID.TID 0000.0001)                 9.000000000000000E+04
(PID.TID 0000.0001)     ;
(PID.TID 0000.0001) pChkPtFreq = /* Permanent restart/pickup file interval ( s ) */
(PID.TID 0000.0001)                 0.000000000000000E+00
(PID.TID 0000.0001)     ;
(PID.TID 0000.0001) chkPtFreq  = /* Rolling restart/pickup file interval ( s ) */
(PID.TID 0000.0001)                 0.000000000000000E+00
(PID.TID 0000.0001)     ;
(PID.TID 0000.0001) pickup_write_mdsio =   /* Model IO flag. */
(PID.TID 0000.0001)                   T
(PID.TID 0000.0001)     ;
(PID.TID 0000.0001) pickup_read_mdsio =   /* Model IO flag. */
(PID.TID 0000.0001)                   T
(PID.TID 0000.0001)     ;
(PID.TID 0000.0001) writePickupAtEnd =   /* Model IO flag. */
(PID.TID 0000.0001)                   T
(PID.TID 0000.0001)     ;
(PID.TID 0000.0001) dumpFreq =   /* Model state write out interval ( s ). */
(PID.TID 0000.0001)                 2.592000000000000E+06
(PID.TID 0000.0001)     ;
(PID.TID 0000.0001) dumpInitAndLast= /* write out Initial & Last iter. model state */
(PID.TID 0000.0001)                   T
(PID.TID 0000.0001)     ;
(PID.TID 0000.0001) snapshot_mdsio =   /* Model IO flag. */
(PID.TID 0000.0001)                   T
(PID.TID 0000.0001)     ;
(PID.TID 0000.0001) monitorFreq =   /* Monitor output interval ( s ). */
(PID.TID 0000.0001)                 1.000000000000000E+00
(PID.TID 0000.0001)     ;
(PID.TID 0000.0001) monitorSelect = /* select group of variables to monitor */
(PID.TID 0000.0001)                       1
(PID.TID 0000.0001)     ;
(PID.TID 0000.0001) monitor_stdio =   /* Model IO flag. */
(PID.TID 0000.0001)                   T
(PID.TID 0000.0001)     ;
(PID.TID 0000.0001) externForcingPeriod =   /* forcing period (s) */
(PID.TID 0000.0001)                 0.000000000000000E+00
(PID.TID 0000.0001)     ;
(PID.TID 0000.0001) externForcingCycle =   /* period of the cyle (s). */
(PID.TID 0000.0001)                 0.000000000000000E+00
(PID.TID 0000.0001)     ;
(PID.TID 0000.0001) tauThetaClimRelax =   /* relaxation time scale (s) */
(PID.TID 0000.0001)                 0.000000000000000E+00
(PID.TID 0000.0001)     ;
(PID.TID 0000.0001) tauSaltClimRelax =   /* relaxation time scale (s) */
(PID.TID 0000.0001)                 0.000000000000000E+00
(PID.TID 0000.0001)     ;
(PID.TID 0000.0001) latBandClimRelax =   /* max. Lat. where relaxation */
(PID.TID 0000.0001)                 9.600000000000000E+06
(PID.TID 0000.0001)     ;
(PID.TID 0000.0001) //
(PID.TID 0000.0001) // Gridding paramters ( PARM04 in namelist )
(PID.TID 0000.0001) //
(PID.TID 0000.0001) usingCartesianGrid = /* Cartesian coordinates flag ( True/False ) */
(PID.TID 0000.0001)                   T
(PID.TID 0000.0001)     ;
(PID.TID 0000.0001) usingCylindricalGrid = /* Cylindrical coordinates flag ( True/False ) */
(PID.TID 0000.0001)                   F
(PID.TID 0000.0001)     ;
(PID.TID 0000.0001) usingSphericalPolarGrid = /* Spherical coordinates flag ( True/False ) */
(PID.TID 0000.0001)                   F
(PID.TID 0000.0001)     ;
(PID.TID 0000.0001) usingCurvilinearGrid = /* Curvilinear coordinates flag ( True/False ) */
(PID.TID 0000.0001)                   F
(PID.TID 0000.0001)     ;
(PID.TID 0000.0001) useMin4hFacEdges = /* set hFacW,S as minimum of adjacent hFacC factor */
(PID.TID 0000.0001)                   F
(PID.TID 0000.0001)     ;
(PID.TID 0000.0001) interViscAr_pCell = /* account for partial-cell in interior vert. viscosity */
(PID.TID 0000.0001)                   F
(PID.TID 0000.0001)     ;
(PID.TID 0000.0001) interDiffKr_pCell = /* account for partial-cell in interior vert. diffusion */
(PID.TID 0000.0001)                   F
(PID.TID 0000.0001)     ;
(PID.TID 0000.0001) pCellMix_select = /* option to enhance mixing near surface & bottom */
(PID.TID 0000.0001)                       0
(PID.TID 0000.0001)     ;
(PID.TID 0000.0001) selectSigmaCoord = /* Hybrid-Sigma Vert. Coordinate option */
(PID.TID 0000.0001)                       0
(PID.TID 0000.0001)     ;
(PID.TID 0000.0001) rSigmaBnd = /* r/sigma transition ( units of r ==  m ) */
(PID.TID 0000.0001)                 1.234567000000000E+05
(PID.TID 0000.0001)     ;
(PID.TID 0000.0001) rkSign =   /* index orientation relative to vertical coordinate */
(PID.TID 0000.0001)                -1.000000000000000E+00
(PID.TID 0000.0001)     ;
(PID.TID 0000.0001) gravitySign = /* gravity orientation relative to vertical coordinate */
(PID.TID 0000.0001)                -1.000000000000000E+00
(PID.TID 0000.0001)     ;
(PID.TID 0000.0001) seaLev_Z =  /* reference height of sea-level [m] */
(PID.TID 0000.0001)                 0.000000000000000E+00
(PID.TID 0000.0001)     ;
(PID.TID 0000.0001) top_Pres =  /* reference pressure at the top [Pa] */
(PID.TID 0000.0001)                 0.000000000000000E+00
(PID.TID 0000.0001)     ;
(PID.TID 0000.0001) mass2rUnit = /* convert mass per unit area [kg/m2] to r-units [m] */
(PID.TID 0000.0001)                 1.000000000000000E-03
(PID.TID 0000.0001)     ;
(PID.TID 0000.0001) rUnit2mass = /* convert r-units [m] to mass per unit area [kg/m2] */
(PID.TID 0000.0001)                 1.000000000000000E+03
(PID.TID 0000.0001)     ;
(PID.TID 0000.0001) drC =   /* C spacing ( units of r ) */
(PID.TID 0000.0001)                 1.000000000000000E+01,      /* K =  1 */
(PID.TID 0000.0001)     9 @  2.000000000000000E+01,             /* K =  2: 10 */
(PID.TID 0000.0001)                 2.200000000000000E+01,      /* K = 11 */
(PID.TID 0000.0001)                 2.650000000000000E+01,      /* K = 12 */
(PID.TID 0000.0001)                 3.200000000000000E+01,      /* K = 13 */
(PID.TID 0000.0001)                 3.850000000000000E+01,      /* K = 14 */
(PID.TID 0000.0001)                 4.650000000000000E+01,      /* K = 15 */
(PID.TID 0000.0001)                 5.600000000000000E+01,      /* K = 16 */
(PID.TID 0000.0001)                 6.750000000000000E+01,      /* K = 17 */
(PID.TID 0000.0001)                 8.150000000000000E+01,      /* K = 18 */
(PID.TID 0000.0001)                 9.800000000000000E+01,      /* K = 19 */
(PID.TID 0000.0001)                 1.175000000000000E+02,      /* K = 20 */
(PID.TID 0000.0001)                 1.415000000000000E+02,      /* K = 21 */
(PID.TID 0000.0001)                 1.705000000000000E+02,      /* K = 22 */
(PID.TID 0000.0001)                 2.050000000000000E+02,      /* K = 23 */
(PID.TID 0000.0001)                 2.470000000000000E+02,      /* K = 24 */
(PID.TID 0000.0001)                 2.975000000000000E+02,      /* K = 25 */
(PID.TID 0000.0001)                 1.625000000000000E+02       /* K = 26 */
(PID.TID 0000.0001)     ;
(PID.TID 0000.0001) drF =   /* W spacing ( units of r ) */
(PID.TID 0000.0001)    10 @  2.000000000000000E+01,             /* K =  1: 10 */
(PID.TID 0000.0001)                 2.400000000000000E+01,      /* K = 11 */
(PID.TID 0000.0001)                 2.900000000000000E+01,      /* K = 12 */
(PID.TID 0000.0001)                 3.500000000000000E+01,      /* K = 13 */
(PID.TID 0000.0001)                 4.200000000000000E+01,      /* K = 14 */
(PID.TID 0000.0001)                 5.100000000000000E+01,      /* K = 15 */
(PID.TID 0000.0001)                 6.100000000000000E+01,      /* K = 16 */
(PID.TID 0000.0001)                 7.400000000000000E+01,      /* K = 17 */
(PID.TID 0000.0001)                 8.900000000000000E+01,      /* K = 18 */
(PID.TID 0000.0001)                 1.070000000000000E+02,      /* K = 19 */
(PID.TID 0000.0001)                 1.280000000000000E+02,      /* K = 20 */
(PID.TID 0000.0001)                 1.550000000000000E+02,      /* K = 21 */
(PID.TID 0000.0001)                 1.860000000000000E+02,      /* K = 22 */
(PID.TID 0000.0001)                 2.240000000000000E+02,      /* K = 23 */
(PID.TID 0000.0001)                 2.700000000000000E+02,      /* K = 24 */
(PID.TID 0000.0001)                 3.250000000000000E+02       /* K = 25 */
(PID.TID 0000.0001)     ;
(PID.TID 0000.0001) delX = /* U spacing ( m - cartesian, degrees - spherical ) */
(PID.TID 0000.0001)                 1.000000000000000E+05       /* I =  1 */
(PID.TID 0000.0001)     ;
(PID.TID 0000.0001) delY = /* V spacing ( m - cartesian, degrees - spherical ) */
(PID.TID 0000.0001)    32 @  1.000000000000000E+05              /* J =  1: 32 */
(PID.TID 0000.0001)     ;
(PID.TID 0000.0001) xgOrigin = /* X-axis origin of West  edge (cartesian: m, lat-lon: deg) */
(PID.TID 0000.0001)                 0.000000000000000E+00
(PID.TID 0000.0001)     ;
(PID.TID 0000.0001) ygOrigin = /* Y-axis origin of South edge (cartesian: m, lat-lon: deg) */
(PID.TID 0000.0001)                 0.000000000000000E+00
(PID.TID 0000.0001)     ;
(PID.TID 0000.0001) rSphere =  /* Radius ( ignored - cartesian, m - spherical ) */
(PID.TID 0000.0001)                 6.370000000000000E+06
(PID.TID 0000.0001)     ;
(PID.TID 0000.0001) deepAtmosphere = /* Deep/Shallow Atmosphere flag (True/False) */
(PID.TID 0000.0001)                   F
(PID.TID 0000.0001)     ;
(PID.TID 0000.0001) xC =  /* xC(:,1,:,1) : P-point X coord ( deg. or m if cartesian) */
(PID.TID 0000.0001)                 5.000000000000000E+04       /* I =  1 */
(PID.TID 0000.0001)     ;
(PID.TID 0000.0001) yC =  /* yC(1,:,1,:) : P-point Y coord ( deg. or m if cartesian) */
(PID.TID 0000.0001)                 5.000000000000000E+04,      /* J =  1 */
(PID.TID 0000.0001)                 1.500000000000000E+05,      /* J =  2 */
(PID.TID 0000.0001)                 2.500000000000000E+05,      /* J =  3 */
(PID.TID 0000.0001)                 3.500000000000000E+05,      /* J =  4 */
(PID.TID 0000.0001)                 4.500000000000000E+05,      /* J =  5 */
(PID.TID 0000.0001)                 5.500000000000000E+05,      /* J =  6 */
(PID.TID 0000.0001)                 6.500000000000000E+05,      /* J =  7 */
(PID.TID 0000.0001)                 7.500000000000000E+05,      /* J =  8 */
(PID.TID 0000.0001)                 8.500000000000000E+05,      /* J =  9 */
(PID.TID 0000.0001)                 9.500000000000000E+05,      /* J = 10 */
(PID.TID 0000.0001)                 1.050000000000000E+06,      /* J = 11 */
(PID.TID 0000.0001)                 1.150000000000000E+06,      /* J = 12 */
(PID.TID 0000.0001)                 1.250000000000000E+06,      /* J = 13 */
(PID.TID 0000.0001)                 1.350000000000000E+06,      /* J = 14 */
(PID.TID 0000.0001)                 1.450000000000000E+06,      /* J = 15 */
(PID.TID 0000.0001)                 1.550000000000000E+06,      /* J = 16 */
(PID.TID 0000.0001)                 1.650000000000000E+06,      /* J = 17 */
(PID.TID 0000.0001)                 1.750000000000000E+06,      /* J = 18 */
(PID.TID 0000.0001)                 1.850000000000000E+06,      /* J = 19 */
(PID.TID 0000.0001)                 1.950000000000000E+06,      /* J = 20 */
(PID.TID 0000.0001)                 2.050000000000000E+06,      /* J = 21 */
(PID.TID 0000.0001)                 2.150000000000000E+06,      /* J = 22 */
(PID.TID 0000.0001)                 2.250000000000000E+06,      /* J = 23 */
(PID.TID 0000.0001)                 2.350000000000000E+06,      /* J = 24 */
(PID.TID 0000.0001)                 2.450000000000000E+06,      /* J = 25 */
(PID.TID 0000.0001)                 2.550000000000000E+06,      /* J = 26 */
(PID.TID 0000.0001)                 2.650000000000000E+06,      /* J = 27 */
(PID.TID 0000.0001)                 2.750000000000000E+06,      /* J = 28 */
(PID.TID 0000.0001)                 2.850000000000000E+06,      /* J = 29 */
(PID.TID 0000.0001)                 2.950000000000000E+06,      /* J = 30 */
(PID.TID 0000.0001)                 3.050000000000000E+06,      /* J = 31 */
(PID.TID 0000.0001)                 3.150000000000000E+06       /* J = 32 */
(PID.TID 0000.0001)     ;
(PID.TID 0000.0001) rcoord = /* P-point R coordinate (  units of r ) */
(PID.TID 0000.0001)                -1.000000000000000E+01,      /* K =  1 */
(PID.TID 0000.0001)                -3.000000000000000E+01,      /* K =  2 */
(PID.TID 0000.0001)                -5.000000000000000E+01,      /* K =  3 */
(PID.TID 0000.0001)                -7.000000000000000E+01,      /* K =  4 */
(PID.TID 0000.0001)                -9.000000000000000E+01,      /* K =  5 */
(PID.TID 0000.0001)                -1.100000000000000E+02,      /* K =  6 */
(PID.TID 0000.0001)                -1.300000000000000E+02,      /* K =  7 */
(PID.TID 0000.0001)                -1.500000000000000E+02,      /* K =  8 */
(PID.TID 0000.0001)                -1.700000000000000E+02,      /* K =  9 */
(PID.TID 0000.0001)                -1.900000000000000E+02,      /* K = 10 */
(PID.TID 0000.0001)                -2.120000000000000E+02,      /* K = 11 */
(PID.TID 0000.0001)                -2.385000000000000E+02,      /* K = 12 */
(PID.TID 0000.0001)                -2.705000000000000E+02,      /* K = 13 */
(PID.TID 0000.0001)                -3.090000000000000E+02,      /* K = 14 */
(PID.TID 0000.0001)                -3.555000000000000E+02,      /* K = 15 */
(PID.TID 0000.0001)                -4.115000000000000E+02,      /* K = 16 */
(PID.TID 0000.0001)                -4.790000000000000E+02,      /* K = 17 */
(PID.TID 0000.0001)                -5.605000000000000E+02,      /* K = 18 */
(PID.TID 0000.0001)                -6.585000000000000E+02,      /* K = 19 */
(PID.TID 0000.0001)                -7.760000000000000E+02,      /* K = 20 */
(PID.TID 0000.0001)                -9.175000000000000E+02,      /* K = 21 */
(PID.TID 0000.0001)                -1.088000000000000E+03,      /* K = 22 */
(PID.TID 0000.0001)                -1.293000000000000E+03,      /* K = 23 */
(PID.TID 0000.0001)                -1.540000000000000E+03,      /* K = 24 */
(PID.TID 0000.0001)                -1.837500000000000E+03       /* K = 25 */
(PID.TID 0000.0001)     ;
(PID.TID 0000.0001) rF =   /* W-Interf. R coordinate (  units of r ) */
(PID.TID 0000.0001)                 0.000000000000000E+00,      /* K =  1 */
(PID.TID 0000.0001)                -2.000000000000000E+01,      /* K =  2 */
(PID.TID 0000.0001)                -4.000000000000000E+01,      /* K =  3 */
(PID.TID 0000.0001)                -6.000000000000000E+01,      /* K =  4 */
(PID.TID 0000.0001)                -8.000000000000000E+01,      /* K =  5 */
(PID.TID 0000.0001)                -1.000000000000000E+02,      /* K =  6 */
(PID.TID 0000.0001)                -1.200000000000000E+02,      /* K =  7 */
(PID.TID 0000.0001)                -1.400000000000000E+02,      /* K =  8 */
(PID.TID 0000.0001)                -1.600000000000000E+02,      /* K =  9 */
(PID.TID 0000.0001)                -1.800000000000000E+02,      /* K = 10 */
(PID.TID 0000.0001)                -2.000000000000000E+02,      /* K = 11 */
(PID.TID 0000.0001)                -2.240000000000000E+02,      /* K = 12 */
(PID.TID 0000.0001)                -2.530000000000000E+02,      /* K = 13 */
(PID.TID 0000.0001)                -2.880000000000000E+02,      /* K = 14 */
(PID.TID 0000.0001)                -3.300000000000000E+02,      /* K = 15 */
(PID.TID 0000.0001)                -3.810000000000000E+02,      /* K = 16 */
(PID.TID 0000.0001)                -4.420000000000000E+02,      /* K = 17 */
(PID.TID 0000.0001)                -5.160000000000000E+02,      /* K = 18 */
(PID.TID 0000.0001)                -6.050000000000000E+02,      /* K = 19 */
(PID.TID 0000.0001)                -7.120000000000000E+02,      /* K = 20 */
(PID.TID 0000.0001)                -8.400000000000000E+02,      /* K = 21 */
(PID.TID 0000.0001)                -9.950000000000000E+02,      /* K = 22 */
(PID.TID 0000.0001)                -1.181000000000000E+03,      /* K = 23 */
(PID.TID 0000.0001)                -1.405000000000000E+03,      /* K = 24 */
(PID.TID 0000.0001)                -1.675000000000000E+03,      /* K = 25 */
(PID.TID 0000.0001)                -2.000000000000000E+03       /* K = 26 */
(PID.TID 0000.0001)     ;
(PID.TID 0000.0001) deepFacC = /* deep-model grid factor @ cell-Center (-) */
(PID.TID 0000.0001)    25 @  1.000000000000000E+00              /* K =  1: 25 */
(PID.TID 0000.0001)     ;
(PID.TID 0000.0001) deepFacF = /* deep-model grid factor @ W-Interface (-) */
(PID.TID 0000.0001)    26 @  1.000000000000000E+00              /* K =  1: 26 */
(PID.TID 0000.0001)     ;
(PID.TID 0000.0001) rVel2wUnit = /* convert units: rVel -> wSpeed (=1 if z-coord)*/
(PID.TID 0000.0001)    26 @  1.000000000000000E+00              /* K =  1: 26 */
(PID.TID 0000.0001)     ;
(PID.TID 0000.0001) wUnit2rVel = /* convert units: wSpeed -> rVel (=1 if z-coord)*/
(PID.TID 0000.0001)    26 @  1.000000000000000E+00              /* K =  1: 26 */
(PID.TID 0000.0001)     ;
(PID.TID 0000.0001) dBdrRef = /* Vertical grad. of reference buoyancy [(m/s/r)^2] */
(PID.TID 0000.0001)                 0.000000000000000E+00,      /* K =  1 */
(PID.TID 0000.0001)     9 @  9.810000000000001E-05,             /* K =  2: 10 */
(PID.TID 0000.0001)                 8.918181818181819E-05,      /* K = 11 */
(PID.TID 0000.0001)                 7.403773584905661E-05,      /* K = 12 */
(PID.TID 0000.0001)                 6.131250000000001E-05,      /* K = 13 */
(PID.TID 0000.0001)                 5.096103896103897E-05,      /* K = 14 */
(PID.TID 0000.0001)                 4.219354838709678E-05,      /* K = 15 */
(PID.TID 0000.0001)                 3.503571428571429E-05,      /* K = 16 */
(PID.TID 0000.0001)                 2.906666666666667E-05,      /* K = 17 */
(PID.TID 0000.0001)                 2.407361963190185E-05,      /* K = 18 */
(PID.TID 0000.0001)                 2.002040816326531E-05,      /* K = 19 */
(PID.TID 0000.0001)                 1.669787234042553E-05,      /* K = 20 */
(PID.TID 0000.0001)                 1.386572438162544E-05,      /* K = 21 */
(PID.TID 0000.0001)                 2.301466275659825E-05,      /* K = 22 */
(PID.TID 0000.0001)                -9.570731707317075E-06,      /* K = 23 */
(PID.TID 0000.0001)                 1.588663967611337E-05,      /* K = 24 */
(PID.TID 0000.0001)                 6.594957983193279E-06       /* K = 25 */
(PID.TID 0000.0001)     ;
(PID.TID 0000.0001) rotateGrid = /* use rotated grid ( True/False ) */
(PID.TID 0000.0001)                   F
(PID.TID 0000.0001)     ;
(PID.TID 0000.0001) phiEuler = /* Euler angle, rotation about original z-coordinate [rad] */
(PID.TID 0000.0001)                 0.000000000000000E+00
(PID.TID 0000.0001)     ;
(PID.TID 0000.0001) thetaEuler = /* Euler angle, rotation about new x-coordinate [rad] */
(PID.TID 0000.0001)                 0.000000000000000E+00
(PID.TID 0000.0001)     ;
(PID.TID 0000.0001) psiEuler = /* Euler angle, rotation about new z-coordinate [rad] */
(PID.TID 0000.0001)                 0.000000000000000E+00
(PID.TID 0000.0001)     ;
(PID.TID 0000.0001) dxF =  /* dxF(:,1,:,1) ( units: m ) */
(PID.TID 0000.0001)                 1.000000000000000E+05       /* I =  1 */
(PID.TID 0000.0001)     ;
(PID.TID 0000.0001) dxF =  /* dxF(1,:,1,:) ( units: m ) */
(PID.TID 0000.0001)    32 @  1.000000000000000E+05              /* J =  1: 32 */
(PID.TID 0000.0001)     ;
(PID.TID 0000.0001) dyF =  /* dyF(:,1,:,1) ( units: m ) */
(PID.TID 0000.0001)                 1.000000000000000E+05       /* I =  1 */
(PID.TID 0000.0001)     ;
(PID.TID 0000.0001) dyF =  /* dyF(1,:,1,:) ( units: m ) */
(PID.TID 0000.0001)    32 @  1.000000000000000E+05              /* J =  1: 32 */
(PID.TID 0000.0001)     ;
(PID.TID 0000.0001) dxG =  /* dxG(:,1,:,1) ( units: m ) */
(PID.TID 0000.0001)                 1.000000000000000E+05       /* I =  1 */
(PID.TID 0000.0001)     ;
(PID.TID 0000.0001) dxG =  /* dxG(1,:,1,:) ( units: m ) */
(PID.TID 0000.0001)    32 @  1.000000000000000E+05              /* J =  1: 32 */
(PID.TID 0000.0001)     ;
(PID.TID 0000.0001) dyG =  /* dyG(:,1,:,1) ( units: m ) */
(PID.TID 0000.0001)                 1.000000000000000E+05       /* I =  1 */
(PID.TID 0000.0001)     ;
(PID.TID 0000.0001) dyG =  /* dyG(1,:,1,:) ( units: m ) */
(PID.TID 0000.0001)    32 @  1.000000000000000E+05              /* J =  1: 32 */
(PID.TID 0000.0001)     ;
(PID.TID 0000.0001) dxC =  /* dxC(:,1,:,1) ( units: m ) */
(PID.TID 0000.0001)                 1.000000000000000E+05       /* I =  1 */
(PID.TID 0000.0001)     ;
(PID.TID 0000.0001) dxC =  /* dxC(1,:,1,:) ( units: m ) */
(PID.TID 0000.0001)    32 @  1.000000000000000E+05              /* J =  1: 32 */
(PID.TID 0000.0001)     ;
(PID.TID 0000.0001) dyC =  /* dyC(:,1,:,1) ( units: m ) */
(PID.TID 0000.0001)                 1.000000000000000E+05       /* I =  1 */
(PID.TID 0000.0001)     ;
(PID.TID 0000.0001) dyC =  /* dyC(1,:,1,:) ( units: m ) */
(PID.TID 0000.0001)    32 @  1.000000000000000E+05              /* J =  1: 32 */
(PID.TID 0000.0001)     ;
(PID.TID 0000.0001) dxV =  /* dxV(:,1,:,1) ( units: m ) */
(PID.TID 0000.0001)                 1.000000000000000E+05       /* I =  1 */
(PID.TID 0000.0001)     ;
(PID.TID 0000.0001) dxV =  /* dxV(1,:,1,:) ( units: m ) */
(PID.TID 0000.0001)    32 @  1.000000000000000E+05              /* J =  1: 32 */
(PID.TID 0000.0001)     ;
(PID.TID 0000.0001) dyU =  /* dyU(:,1,:,1) ( units: m ) */
(PID.TID 0000.0001)                 1.000000000000000E+05       /* I =  1 */
(PID.TID 0000.0001)     ;
(PID.TID 0000.0001) dyU =  /* dyU(1,:,1,:) ( units: m ) */
(PID.TID 0000.0001)    32 @  1.000000000000000E+05              /* J =  1: 32 */
(PID.TID 0000.0001)     ;
(PID.TID 0000.0001) rA  =  /* rA (:,1,:,1) ( units: m^2 ) */
(PID.TID 0000.0001)                 1.000000000000000E+10       /* I =  1 */
(PID.TID 0000.0001)     ;
(PID.TID 0000.0001) rA  =  /* rA (1,:,1,:) ( units: m^2 ) */
(PID.TID 0000.0001)    32 @  1.000000000000000E+10              /* J =  1: 32 */
(PID.TID 0000.0001)     ;
(PID.TID 0000.0001) rAw =  /* rAw(:,1,:,1) ( units: m^2 ) */
(PID.TID 0000.0001)                 1.000000000000000E+10       /* I =  1 */
(PID.TID 0000.0001)     ;
(PID.TID 0000.0001) rAw =  /* rAw(1,:,1,:) ( units: m^2 ) */
(PID.TID 0000.0001)    32 @  1.000000000000000E+10              /* J =  1: 32 */
(PID.TID 0000.0001)     ;
(PID.TID 0000.0001) rAs =  /* rAs(:,1,:,1) ( units: m^2 ) */
(PID.TID 0000.0001)                 1.000000000000000E+10       /* I =  1 */
(PID.TID 0000.0001)     ;
(PID.TID 0000.0001) rAs =  /* rAs(1,:,1,:) ( units: m^2 ) */
(PID.TID 0000.0001)    32 @  1.000000000000000E+10              /* J =  1: 32 */
(PID.TID 0000.0001)     ;
(PID.TID 0000.0001) globalArea = /* Integrated horizontal Area (m^2) */
(PID.TID 0000.0001)                 3.000000000000000E+11
(PID.TID 0000.0001)     ;
(PID.TID 0000.0001) // =======================================================
(PID.TID 0000.0001) // End of Model config. summary
(PID.TID 0000.0001) // =======================================================
(PID.TID 0000.0001) 
(PID.TID 0000.0001) == Packages configuration : Check & print summary ==
(PID.TID 0000.0001) 
(PID.TID 0000.0001) GMREDI_CHECK: #define GMREDI
(PID.TID 0000.0001) GM_AdvForm =     /* if FALSE => use SkewFlux Form */
(PID.TID 0000.0001)                   T
(PID.TID 0000.0001)     ;
(PID.TID 0000.0001) GM_InMomAsStress = /* if TRUE => apply as Eddy Stress */
(PID.TID 0000.0001)                   F
(PID.TID 0000.0001)     ;
(PID.TID 0000.0001) GM_AdvSeparate = /* Calc Bolus & Euler Adv. separately */
(PID.TID 0000.0001)                   F
(PID.TID 0000.0001)     ;
(PID.TID 0000.0001) GM_ExtraDiag =   /* Tensor Extra Diag (line 1&2) non 0 */
(PID.TID 0000.0001)                   T
(PID.TID 0000.0001)     ;
(PID.TID 0000.0001) GM_isopycK =    /* Background Isopyc. Diffusivity [m^2/s] */
(PID.TID 0000.0001)                 1.000000000000000E+03
(PID.TID 0000.0001)     ;
(PID.TID 0000.0001) GM_skewflx*K =  /* Background GM_SkewFlx Diffusivity [m^2/s] */
(PID.TID 0000.0001)                 0.000000000000000E+00
(PID.TID 0000.0001)     ;
(PID.TID 0000.0001) GM_advec*K =    /* Backg. GM-Advec(=Bolus) Diffusivity [m^2/s]*/
(PID.TID 0000.0001)                 1.000000000000000E+03
(PID.TID 0000.0001)     ;
(PID.TID 0000.0001) GM_Kmin_horiz = /* Minimum Horizontal Diffusivity [m^2/s] */
(PID.TID 0000.0001)                 0.000000000000000E+00
(PID.TID 0000.0001)     ;
(PID.TID 0000.0001) GM_Visbeck_alpha = /* Visbeck alpha coeff. [-] */
(PID.TID 0000.0001)                 0.000000000000000E+00
(PID.TID 0000.0001)     ;
(PID.TID 0000.0001) GM_Small_Number =  /* epsilon used in slope calc */
(PID.TID 0000.0001)                 9.999999999999999E-21
(PID.TID 0000.0001)     ;
(PID.TID 0000.0001) GM_slopeSqCutoff = /* Slope^2 cut-off value */
(PID.TID 0000.0001)                 1.000000000000000E+48
(PID.TID 0000.0001)     ;
(PID.TID 0000.0001) GM_taper_scheme =  /* Type of Tapering/Clipping scheme */
(PID.TID 0000.0001)               'linear                                  '
(PID.TID 0000.0001)     ;
(PID.TID 0000.0001) GM_maxSlope =  /* Maximum Slope (Tapering/Clipping) */
(PID.TID 0000.0001)                 1.000000000000000E-02
(PID.TID 0000.0001)     ;
(PID.TID 0000.0001) GM_facTrL2dz = /* Minimum Trans.Layer Thick. (factor of dz) */
(PID.TID 0000.0001)                 0.000000000000000E+00
(PID.TID 0000.0001)     ;
(PID.TID 0000.0001) GM_facTrL2ML = /* Max.Trans.Layer Thick. (factor of MxL Depth)*/
(PID.TID 0000.0001)                 5.000000000000000E+00
(PID.TID 0000.0001)     ;
(PID.TID 0000.0001) GM_maxTransLay = /* Maximum Transition Layer Thickness [m] */
(PID.TID 0000.0001)                 5.000000000000000E+02
(PID.TID 0000.0001)     ;
(PID.TID 0000.0001) GM_UseBVP = /* if TRUE => use bvp a la Ferrari et al. (2010) */
(PID.TID 0000.0001)                   T
(PID.TID 0000.0001)     ;
(PID.TID 0000.0001) GM_BVP_ModeNumber = /* Vertical mode number for BVP wave speed */
(PID.TID 0000.0001)                       5
(PID.TID 0000.0001)     ;
(PID.TID 0000.0001) GM_BVP_cMin = /* Minimum wave speed for BVP [m/s] */
(PID.TID 0000.0001)                 1.000000000000000E-01
(PID.TID 0000.0001)     ;
(PID.TID 0000.0001) GM_useSubMeso = /* if TRUE => use Sub-Meso param. (B.Fox-Kemper) */
(PID.TID 0000.0001)                   T
(PID.TID 0000.0001)     ;
(PID.TID 0000.0001) subMeso_Ceff = /* efficiency coeff. of Mixed-Layer Eddies [-] */
(PID.TID 0000.0001)                 3.000000000000000E-02
(PID.TID 0000.0001)     ;
(PID.TID 0000.0001) subMeso_invTau = /* inverse of Sub-Meso mixing time-scale [/s] */
(PID.TID 0000.0001)                 2.000000000000000E-06
(PID.TID 0000.0001)     ;
(PID.TID 0000.0001) subMeso_LfMin = /* minimum length-scale "Lf" [m] */
(PID.TID 0000.0001)                 1.000000000000000E+03
(PID.TID 0000.0001)     ;
(PID.TID 0000.0001) subMeso_Lmax = /* maximum grid-scale length [m] */
(PID.TID 0000.0001)                 1.100000000000000E+05
(PID.TID 0000.0001)     ;
(PID.TID 0000.0001) GM_useLeithQG = /* if TRUE => add QG Leith viscosity to GMRedi tensor */
(PID.TID 0000.0001)                   F
(PID.TID 0000.0001)     ;
(PID.TID 0000.0001) GAD_CHECK: #define ALLOW_GENERIC_ADVDIFF
(PID.TID 0000.0001) // =======================================================
(PID.TID 0000.0001) // Check Model config. (CONFIG_CHECK):
(PID.TID 0000.0001) // CONFIG_CHECK : Normal End
(PID.TID 0000.0001) // =======================================================
(PID.TID 0000.0001) 
(PID.TID 0000.0001)  MDS_READ_FIELD: opening global file: u_ini.bin
(PID.TID 0000.0001)  MDS_READ_FIELD: opening global file: t_ini.bin
(PID.TID 0000.0001)  MDS_READ_FIELD: opening global file: s_ini.bin
(PID.TID 0000.0001) Start initial hydrostatic pressure computation
(PID.TID 0000.0001) Pressure is predetermined for buoyancyRelation OCEANIC
(PID.TID 0000.0001) 
(PID.TID 0000.0001)  write diagnostics summary to file ioUnit:      6
Iter.Nb:         0 ; Time(s):  0.0000000000000E+00
------------------------------------------------------------------------
2D/3D diagnostics: Number of lists:     3
------------------------------------------------------------------------
listId=    1 ; file name: surfDiag
 nFlds, nActive,       freq     &     phase        , nLev               
    8  |    8  |    -86400.000000         0.000000 |   1
 levels:   1
 diag# | name   |   ipt  |  iMate | kLev|   count |   mate.C|           
    23 |ETAN    |      1 |      0 |   1 |       0 |
    25 |DETADT2 |      2 |      0 |   1 |       0 |
    73 |PHIBOT  |      3 |      0 |   1 |       0 |
    76 |MXLDEPTH|      4 |      0 |   1 |       0 |
   211 |GM_BVPcW|      5 |      6 |   1 |       0 |       0 |
   212 |GM_BVPcS|      6 |      5 |   1 |       0 |       0 |
   194 |SubMesLf|      7 |      0 |   1 |       0 |
   196 |SubMpsiY|      8 |      0 |   1 |       0 |
------------------------------------------------------------------------
listId=    2 ; file name: dynDiag
 nFlds, nActive,       freq     &     phase        , nLev               
    7  |    7  |   -864000.000000         0.000000 |  25
 levels:   1   2   3   4   5   6   7   8   9  10  11  12  13  14  15  16  17  18  19  20  21  22  23  24  25
 diag# | name   |   ipt  |  iMate | kLev|   count |   mate.C|           
    30 |UVEL    |      9 |     34 |  25 |       0 |       0 |
    31 |VVEL    |     34 |      9 |  25 |       0 |       0 |
    32 |WVEL    |     59 |      0 |  25 |       0 |
    71 |PHIHYD  |     84 |      0 |  25 |       0 |
    26 |THETA   |    109 |      0 |  25 |       0 |
    33 |THETASQ |    134 |      0 |  25 |       0 |
    36 |UVELSQ  |    159 |      0 |  25 |       0 |
------------------------------------------------------------------------
listId=    3 ; file name: oceDiag
 nFlds, nActive,       freq     &     phase        , nLev               
    8  |    8  |    -86400.000000         0.000000 |  25
 levels:   1   2   3   4   5   6   7   8   9  10  11  12  13  14  15  16  17  18  19  20  21  22  23  24  25
 diag# | name   |   ipt  |  iMate | kLev|   count |   mate.C|           
    77 |DRHODR  |    184 |      0 |  25 |       0 |
    64 |RHOAnoma|    209 |      0 |  25 |       0 |
   202 |GM_Kwy  |    234 |      0 |  25 |       0 |
   203 |GM_Kwz  |    259 |      0 |  25 |       0 |
   198 |GM_Kvy  |    284 |      0 |  25 |       0 |
    26 |THETA   |    309 |      0 |  25 |       0 |
   205 |GM_PsiY |    334 |      0 |  25 |       0 |
   200 |GM_Kvz  |    359 |      0 |  25 |       0 |
------------------------------------------------------------------------
Global & Regional Statistics diagnostics: Number of lists:     0
------------------------------------------------------------------------
(PID.TID 0000.0001) // =======================================================
(PID.TID 0000.0001) // Model current state
(PID.TID 0000.0001) // =======================================================
(PID.TID 0000.0001) 
(PID.TID 0000.0001) // =======================================================
(PID.TID 0000.0001) // Begin MONITOR dynamic field statistics
(PID.TID 0000.0001) // =======================================================
(PID.TID 0000.0001) %MON time_tsnumber                =                     0
(PID.TID 0000.0001) %MON time_secondsf                =   0.0000000000000E+00
(PID.TID 0000.0001) %MON dynstat_eta_max              =   0.0000000000000E+00
(PID.TID 0000.0001) %MON dynstat_eta_min              =   0.0000000000000E+00
(PID.TID 0000.0001) %MON dynstat_eta_mean             =   0.0000000000000E+00
(PID.TID 0000.0001) %MON dynstat_eta_sd               =   0.0000000000000E+00
(PID.TID 0000.0001) %MON dynstat_eta_del2             =   0.0000000000000E+00
(PID.TID 0000.0001) %MON dynstat_uvel_max             =   1.2708890949034E-01
(PID.TID 0000.0001) %MON dynstat_uvel_min             =  -1.2708890949034E-01
(PID.TID 0000.0001) %MON dynstat_uvel_mean            =  -5.4975756068516E-06
(PID.TID 0000.0001) %MON dynstat_uvel_sd              =   2.0322315569060E-02
(PID.TID 0000.0001) %MON dynstat_uvel_del2            =   5.0509287841793E-04
(PID.TID 0000.0001) %MON dynstat_vvel_max             =   0.0000000000000E+00
(PID.TID 0000.0001) %MON dynstat_vvel_min             =   0.0000000000000E+00
(PID.TID 0000.0001) %MON dynstat_vvel_mean            =   0.0000000000000E+00
(PID.TID 0000.0001) %MON dynstat_vvel_sd              =   0.0000000000000E+00
(PID.TID 0000.0001) %MON dynstat_vvel_del2            =   0.0000000000000E+00
(PID.TID 0000.0001) %MON dynstat_wvel_max             =  -0.0000000000000E+00
(PID.TID 0000.0001) %MON dynstat_wvel_min             =  -0.0000000000000E+00
(PID.TID 0000.0001) %MON dynstat_wvel_mean            =   0.0000000000000E+00
(PID.TID 0000.0001) %MON dynstat_wvel_sd              =   0.0000000000000E+00
(PID.TID 0000.0001) %MON dynstat_wvel_del2            =   0.0000000000000E+00
(PID.TID 0000.0001) %MON dynstat_theta_max            =   1.3324548570971E+01
(PID.TID 0000.0001) %MON dynstat_theta_min            =   6.2538226645252E+00
(PID.TID 0000.0001) %MON dynstat_theta_mean           =   8.4642401720337E+00
(PID.TID 0000.0001) %MON dynstat_theta_sd             =   1.4059935903981E+00
(PID.TID 0000.0001) %MON dynstat_theta_del2           =   7.4185613820284E-03
(PID.TID 0000.0001) %MON dynstat_salt_max             =   1.1996530790116E+01
(PID.TID 0000.0001) %MON dynstat_salt_min             =   1.0464440295541E+01
(PID.TID 0000.0001) %MON dynstat_salt_mean            =   1.1308841661162E+01
(PID.TID 0000.0001) %MON dynstat_salt_sd              =   5.1722696788685E-01
(PID.TID 0000.0001) %MON dynstat_salt_del2            =   5.6431444333042E-04
(PID.TID 0000.0001) %MON advcfl_uvel_max              =   4.5752007416521E-03
(PID.TID 0000.0001) %MON advcfl_vvel_max              =   0.0000000000000E+00
(PID.TID 0000.0001) %MON advcfl_wvel_max              =   0.0000000000000E+00
(PID.TID 0000.0001) %MON advcfl_W_hf_max              =   0.0000000000000E+00
(PID.TID 0000.0001) %MON pe_b_mean                    =   0.0000000000000E+00
(PID.TID 0000.0001) %MON ke_max                       =   8.0757954577213E-03
(PID.TID 0000.0001) %MON ke_mean                      =   2.0649827015589E-04
(PID.TID 0000.0001) %MON ke_vol                       =   5.0981346415358E+14
(PID.TID 0000.0001) // =======================================================
(PID.TID 0000.0001) // End MONITOR dynamic field statistics
(PID.TID 0000.0001) // =======================================================
(PID.TID 0000.0001) SOLVE_FOR_PRESSURE: putPmEinXvector =    F
 cg2d: Sum(rhs),rhsMax =  -2.42542802248585E-16  7.84478485396824E-01
(PID.TID 0000.0001)      cg2d_init_res =   1.84632981170703E+00
(PID.TID 0000.0001)      cg2d_iters(min,last) =      -1      28
(PID.TID 0000.0001)      cg2d_last_res =   4.10145676628236E-15
(PID.TID 0000.0001) // =======================================================
(PID.TID 0000.0001) // Begin MONITOR dynamic field statistics
(PID.TID 0000.0001) // =======================================================
(PID.TID 0000.0001) %MON time_tsnumber                =                     1
(PID.TID 0000.0001) %MON time_secondsf                =   3.6000000000000E+03
(PID.TID 0000.0001) %MON dynstat_eta_max              =   2.6931460151444E-01
(PID.TID 0000.0001) %MON dynstat_eta_min              =  -7.6771771361424E-02
(PID.TID 0000.0001) %MON dynstat_eta_mean             =   2.7592976888021E-16
(PID.TID 0000.0001) %MON dynstat_eta_sd               =   9.6792993958634E-02
(PID.TID 0000.0001) %MON dynstat_eta_del2             =   5.2210367225506E-03
(PID.TID 0000.0001) %MON dynstat_uvel_max             =   1.2708190064387E-01
(PID.TID 0000.0001) %MON dynstat_uvel_min             =  -1.2708190064387E-01
(PID.TID 0000.0001) %MON dynstat_uvel_mean            =  -5.6067134589115E-06
(PID.TID 0000.0001) %MON dynstat_uvel_sd              =   2.0322249914812E-02
(PID.TID 0000.0001) %MON dynstat_uvel_del2            =   5.0509041366132E-04
(PID.TID 0000.0001) %MON dynstat_vvel_max             =   9.2876133483272E-03
(PID.TID 0000.0001) %MON dynstat_vvel_min             =  -1.0028149377893E-02
(PID.TID 0000.0001) %MON dynstat_vvel_mean            =   4.7877125289136E-04
(PID.TID 0000.0001) %MON dynstat_vvel_sd              =   5.0967848889294E-03
(PID.TID 0000.0001) %MON dynstat_vvel_del2            =   3.6844455694336E-05
(PID.TID 0000.0001) %MON dynstat_wvel_max             =   7.4809611531787E-05
(PID.TID 0000.0001) %MON dynstat_wvel_min             =  -2.1325492044839E-05
(PID.TID 0000.0001) %MON dynstat_wvel_mean            =   3.0762417435869E-23
(PID.TID 0000.0001) %MON dynstat_wvel_sd              =   1.7338367110351E-05
(PID.TID 0000.0001) %MON dynstat_wvel_del2            =   3.0975995090818E-07
(PID.TID 0000.0001) %MON dynstat_theta_max            =   1.3324889781143E+01
(PID.TID 0000.0001) %MON dynstat_theta_min            =   6.2538231165989E+00
(PID.TID 0000.0001) %MON dynstat_theta_mean           =   8.4642401720337E+00
(PID.TID 0000.0001) %MON dynstat_theta_sd             =   1.4059932914598E+00
(PID.TID 0000.0001) %MON dynstat_theta_del2           =   7.4170677521096E-03
(PID.TID 0000.0001) %MON dynstat_salt_max             =   1.1996547989691E+01
(PID.TID 0000.0001) %MON dynstat_salt_min             =   1.0464446042935E+01
(PID.TID 0000.0001) %MON dynstat_salt_mean            =   1.1308841661162E+01
(PID.TID 0000.0001) %MON dynstat_salt_sd              =   5.1721897446923E-01
(PID.TID 0000.0001) %MON dynstat_salt_del2            =   5.6436282792496E-04
(PID.TID 0000.0001) %MON advcfl_uvel_max              =   4.5749484231792E-03
(PID.TID 0000.0001) %MON advcfl_vvel_max              =   3.6101337760413E-04
(PID.TID 0000.0001) %MON advcfl_wvel_max              =   2.6931460151443E-02
(PID.TID 0000.0001) %MON advcfl_W_hf_max              =   1.3422655951557E-02
(PID.TID 0000.0001) %MON pe_b_mean                    =   2.7041875712792E-05
(PID.TID 0000.0001) %MON ke_max                       =   8.0898330519274E-03
(PID.TID 0000.0001) %MON ke_mean                      =   2.1908618334722E-04
(PID.TID 0000.0001) %MON ke_vol                       =   5.0981346415358E+14
(PID.TID 0000.0001) // =======================================================
(PID.TID 0000.0001) // End MONITOR dynamic field statistics
(PID.TID 0000.0001) // =======================================================
 Computing Diagnostic #     23  ETAN         Counter:       1   Parms: SM      M1      
 Computing Diagnostic #     25  DETADT2      Counter:       1   Parms: SM      M1      
 Computing Diagnostic #     73  PHIBOT       Counter:       1   Parms: SM      M1      
 Computing Diagnostic #     76  MXLDEPTH     Counter:       1   Parms: SM      M1      
 Computing Diagnostic #    211  GM_BVPcW     Counter:       1   Parms: SU P    M1      
 Computing Diagnostic #    212  GM_BVPcS     Counter:       1   Parms: SV P    M1      
 Computing Diagnostic #    194  SubMesLf     Counter:       1   Parms: SM P    M1      
 Computing Diagnostic #    196  SubMpsiY     Counter:       1   Parms: VV      M1      
           Vector  Mate for  SubMpsiY     Diagnostic #    195  SubMpsiX not enabled
 Computing Diagnostic #     30  UVEL         Counter:       1   Parms: UUR     MR      
           Vector  Mate for  UVEL         Diagnostic #     31  VVEL     exists 
 Computing Diagnostic #     31  VVEL         Counter:       1   Parms: VVR     MR      
           Vector  Mate for  VVEL         Diagnostic #     30  UVEL     exists 
 Computing Diagnostic #     32  WVEL         Counter:       1   Parms: WM      LR      
 Computing Diagnostic #     71  PHIHYD       Counter:       1   Parms: SMR     MR      
 Computing Diagnostic #     26  THETA        Counter:       1   Parms: SMR     MR      
 Computing Diagnostic #     33  THETASQ      Counter:       1   Parms: SMRP    MR      
 Computing Diagnostic #     36  UVELSQ       Counter:       1   Parms: UURP    MR      
           Vector  Mate for  UVELSQ       Diagnostic #     37  VVELSQ   not enabled
 Computing Diagnostic #     77  DRHODR       Counter:       1   Parms: SM      LR      
 Computing Diagnostic #     64  RHOAnoma     Counter:       1   Parms: SMR     MR      
 Computing Diagnostic #    202  GM_Kwy       Counter:       1   Parms: VM      LR      
           Vector  Mate for  GM_Kwy       Diagnostic #    201  GM_Kwx   not enabled
 Computing Diagnostic #    203  GM_Kwz       Counter:       1   Parms: WM P    LR      
 Computing Diagnostic #    198  GM_Kvy       Counter:       1   Parms: VV P    MR      
           Vector  Mate for  GM_Kvy       Diagnostic #    197  GM_Kux   not enabled
 Computing Diagnostic #     26  THETA        Counter:       1   Parms: SMR     MR      
 Computing Diagnostic #    205  GM_PsiY      Counter:       1   Parms: VV      LR      
           Vector  Mate for  GM_PsiY      Diagnostic #    204  GM_PsiX  not enabled
 Computing Diagnostic #    200  GM_Kvz       Counter:       1   Parms: VV      MR      
           Vector  Mate for  GM_Kvz       Diagnostic #    199  GM_Kuz   not enabled
 cg2d: Sum(rhs),rhsMax =  -2.85882428840978E-15  9.91755296760455E-01
(PID.TID 0000.0001)      cg2d_init_res =   4.11566106123805E-01
(PID.TID 0000.0001)      cg2d_iters(min,last) =      -1      28
(PID.TID 0000.0001)      cg2d_last_res =   2.55574768766310E-16
(PID.TID 0000.0001) // =======================================================
(PID.TID 0000.0001) // Begin MONITOR dynamic field statistics
(PID.TID 0000.0001) // =======================================================
(PID.TID 0000.0001) %MON time_tsnumber                =                     2
(PID.TID 0000.0001) %MON time_secondsf                =   7.2000000000000E+03
(PID.TID 0000.0001) %MON dynstat_eta_max              =   4.0022865024037E-01
(PID.TID 0000.0001) %MON dynstat_eta_min              =  -9.7666604834903E-02
(PID.TID 0000.0001) %MON dynstat_eta_mean             =   3.4014383951823E-16
(PID.TID 0000.0001) %MON dynstat_eta_sd               =   1.5214211274727E-01
(PID.TID 0000.0001) %MON dynstat_eta_del2             =   6.3116501758283E-03
(PID.TID 0000.0001) %MON dynstat_uvel_max             =   1.2417841485456E-01
(PID.TID 0000.0001) %MON dynstat_uvel_min             =  -1.2452023978655E-01
(PID.TID 0000.0001) %MON dynstat_uvel_mean            =   2.5984572113800E-04
(PID.TID 0000.0001) %MON dynstat_uvel_sd              =   1.9217061404394E-02
(PID.TID 0000.0001) %MON dynstat_uvel_del2            =   5.0654330806929E-04
(PID.TID 0000.0001) %MON dynstat_vvel_max             =   8.3989640416610E-03
(PID.TID 0000.0001) %MON dynstat_vvel_min             =  -9.5121276176103E-03
(PID.TID 0000.0001) %MON dynstat_vvel_mean            =   3.0176062413293E-04
(PID.TID 0000.0001) %MON dynstat_vvel_sd              =   4.6535581703446E-03
(PID.TID 0000.0001) %MON dynstat_vvel_del2            =   6.7808879557272E-05
(PID.TID 0000.0001) %MON dynstat_wvel_max             =   4.3770779058314E-05
(PID.TID 0000.0001) %MON dynstat_wvel_min             =  -1.4648171758090E-05
(PID.TID 0000.0001) %MON dynstat_wvel_mean            =  -3.0762417435869E-22
(PID.TID 0000.0001) %MON dynstat_wvel_sd              =   1.2309483897780E-05
(PID.TID 0000.0001) %MON dynstat_wvel_del2            =   2.6586886428475E-07
(PID.TID 0000.0001) %MON dynstat_theta_max            =   1.3325053053306E+01
(PID.TID 0000.0001) %MON dynstat_theta_min            =   6.2538305567731E+00
(PID.TID 0000.0001) %MON dynstat_theta_mean           =   8.4641423829082E+00
(PID.TID 0000.0001) %MON dynstat_theta_sd             =   1.4057879298719E+00
(PID.TID 0000.0001) %MON dynstat_theta_del2           =   7.4116080346890E-03
(PID.TID 0000.0001) %MON dynstat_salt_max             =   1.1996563077296E+01
(PID.TID 0000.0001) %MON dynstat_salt_min             =   1.0464448760311E+01
(PID.TID 0000.0001) %MON dynstat_salt_mean            =   1.1308818038726E+01
(PID.TID 0000.0001) %MON dynstat_salt_sd              =   5.1720192944983E-01
(PID.TID 0000.0001) %MON dynstat_salt_del2            =   5.6440956182659E-04
(PID.TID 0000.0001) %MON advcfl_uvel_max              =   4.4827286323158E-03
(PID.TID 0000.0001) %MON advcfl_vvel_max              =   3.4243659423397E-04
(PID.TID 0000.0001) %MON advcfl_wvel_max              =   1.3267125906833E-02
(PID.TID 0000.0001) %MON advcfl_W_hf_max              =   7.6030521736468E-03
(PID.TID 0000.0001) %MON pe_b_mean                    =   6.6810981390860E-05
(PID.TID 0000.0001) %MON ke_max                       =   7.7622259337848E-03
(PID.TID 0000.0001) %MON ke_mean                      =   1.9512831081557E-04
(PID.TID 0000.0001) %MON ke_vol                       =   5.0981346415358E+14
(PID.TID 0000.0001) // =======================================================
(PID.TID 0000.0001) // End MONITOR dynamic field statistics
(PID.TID 0000.0001) // =======================================================
 cg2d: Sum(rhs),rhsMax =  -4.20496970576778E-15  9.55255982577350E-01
(PID.TID 0000.0001)      cg2d_init_res =   1.49888171418092E-01
(PID.TID 0000.0001)      cg2d_iters(min,last) =      -1      27
(PID.TID 0000.0001)      cg2d_last_res =   4.95050072580852E-14
(PID.TID 0000.0001) // =======================================================
(PID.TID 0000.0001) // Begin MONITOR dynamic field statistics
(PID.TID 0000.0001) // =======================================================
(PID.TID 0000.0001) %MON time_tsnumber                =                     3
(PID.TID 0000.0001) %MON time_secondsf                =   1.0800000000000E+04
(PID.TID 0000.0001) %MON dynstat_eta_max              =   4.1110058672046E-01
(PID.TID 0000.0001) %MON dynstat_eta_min              =  -1.1122823535418E-01
(PID.TID 0000.0001) %MON dynstat_eta_mean             =   4.7620137532552E-16
(PID.TID 0000.0001) %MON dynstat_eta_sd               =   1.6155977757491E-01
(PID.TID 0000.0001) %MON dynstat_eta_del2             =   5.9237064013316E-03
(PID.TID 0000.0001) %MON dynstat_uvel_max             =   1.2631165335917E-01
(PID.TID 0000.0001) %MON dynstat_uvel_min             =  -1.2696184003360E-01
(PID.TID 0000.0001) %MON dynstat_uvel_mean            =   3.2776829673618E-04
(PID.TID 0000.0001) %MON dynstat_uvel_sd              =   1.9426657726490E-02
(PID.TID 0000.0001) %MON dynstat_uvel_del2            =   5.2916451129591E-04
(PID.TID 0000.0001) %MON dynstat_vvel_max             =   1.2498489807572E-02
(PID.TID 0000.0001) %MON dynstat_vvel_min             =  -1.3723247273912E-02
(PID.TID 0000.0001) %MON dynstat_vvel_mean            =  -1.8277403109775E-04
(PID.TID 0000.0001) %MON dynstat_vvel_sd              =   2.4641142765959E-03
(PID.TID 0000.0001) %MON dynstat_vvel_del2            =   9.5802550278150E-05
(PID.TID 0000.0001) %MON dynstat_wvel_max             =   2.5492186630119E-05
(PID.TID 0000.0001) %MON dynstat_wvel_min             =  -2.0653112465273E-05
(PID.TID 0000.0001) %MON dynstat_wvel_mean            =   2.4609933948695E-22
(PID.TID 0000.0001) %MON dynstat_wvel_sd              =   8.2289254334925E-06
(PID.TID 0000.0001) %MON dynstat_wvel_del2            =   3.4598422194154E-07
(PID.TID 0000.0001) %MON dynstat_theta_max            =   1.3325409705886E+01
(PID.TID 0000.0001) %MON dynstat_theta_min            =   6.2538410713384E+00
(PID.TID 0000.0001) %MON dynstat_theta_mean           =   8.4641180774885E+00
(PID.TID 0000.0001) %MON dynstat_theta_sd             =   1.4057439014562E+00
(PID.TID 0000.0001) %MON dynstat_theta_del2           =   7.4090766553362E-03
(PID.TID 0000.0001) %MON dynstat_salt_max             =   1.1996581512629E+01
(PID.TID 0000.0001) %MON dynstat_salt_min             =   1.0464137646243E+01
(PID.TID 0000.0001) %MON dynstat_salt_mean            =   1.1308801672462E+01
(PID.TID 0000.0001) %MON dynstat_salt_sd              =   5.1719412499488E-01
(PID.TID 0000.0001) %MON dynstat_salt_del2            =   5.6452387832522E-04
(PID.TID 0000.0001) %MON advcfl_uvel_max              =   4.5706262412097E-03
(PID.TID 0000.0001) %MON advcfl_vvel_max              =   4.9403690186085E-04
(PID.TID 0000.0001) %MON advcfl_wvel_max              =   3.4896266972822E-03
(PID.TID 0000.0001) %MON advcfl_W_hf_max              =   2.8936691709918E-03
(PID.TID 0000.0001) %MON pe_b_mean                    =   7.5338237976010E-05
(PID.TID 0000.0001) %MON ke_max                       =   8.1131803594484E-03
(PID.TID 0000.0001) %MON ke_mean                      =   1.9168412483513E-04
(PID.TID 0000.0001) %MON ke_vol                       =   5.0981346415358E+14
(PID.TID 0000.0001) // =======================================================
(PID.TID 0000.0001) // End MONITOR dynamic field statistics
(PID.TID 0000.0001) // =======================================================
 cg2d: Sum(rhs),rhsMax =  -6.36990460378684E-15  9.20699556620604E-01
(PID.TID 0000.0001)      cg2d_init_res =   9.13949953368014E-02
(PID.TID 0000.0001)      cg2d_iters(min,last) =      -1      28
(PID.TID 0000.0001)      cg2d_last_res =   3.32062518819925E-16
(PID.TID 0000.0001) // =======================================================
(PID.TID 0000.0001) // Begin MONITOR dynamic field statistics
(PID.TID 0000.0001) // =======================================================
(PID.TID 0000.0001) %MON time_tsnumber                =                     4
(PID.TID 0000.0001) %MON time_secondsf                =   1.4400000000000E+04
(PID.TID 0000.0001) %MON dynstat_eta_max              =   3.8569333807934E-01
(PID.TID 0000.0001) %MON dynstat_eta_min              =  -9.9990224876356E-02
(PID.TID 0000.0001) %MON dynstat_eta_mean             =   5.3914388020833E-16
(PID.TID 0000.0001) %MON dynstat_eta_sd               =   1.5003383609510E-01
(PID.TID 0000.0001) %MON dynstat_eta_del2             =   5.7514618397316E-03
(PID.TID 0000.0001) %MON dynstat_uvel_max             =   1.3066668789239E-01
(PID.TID 0000.0001) %MON dynstat_uvel_min             =  -1.3180972622889E-01
(PID.TID 0000.0001) %MON dynstat_uvel_mean            =   1.6321591522964E-04
(PID.TID 0000.0001) %MON dynstat_uvel_sd              =   2.0054141645743E-02
(PID.TID 0000.0001) %MON dynstat_uvel_del2            =   5.5668360080159E-04
(PID.TID 0000.0001) %MON dynstat_vvel_max             =   1.5500023598026E-02
(PID.TID 0000.0001) %MON dynstat_vvel_min             =  -1.7334083326357E-02
(PID.TID 0000.0001) %MON dynstat_vvel_mean            =  -4.1076150336912E-04
(PID.TID 0000.0001) %MON dynstat_vvel_sd              =   2.2196936003309E-03
(PID.TID 0000.0001) %MON dynstat_vvel_del2            =   1.1322265814188E-04
(PID.TID 0000.0001) %MON dynstat_wvel_max             =   2.1944550510739E-05
(PID.TID 0000.0001) %MON dynstat_wvel_min             =  -3.1400765549988E-05
(PID.TID 0000.0001) %MON dynstat_wvel_mean            =  -9.2287252307606E-23
(PID.TID 0000.0001) %MON dynstat_wvel_sd              =   9.2378259186279E-06
(PID.TID 0000.0001) %MON dynstat_wvel_del2            =   4.2760457892517E-07
(PID.TID 0000.0001) %MON dynstat_theta_max            =   1.3325823317239E+01
(PID.TID 0000.0001) %MON dynstat_theta_min            =   6.2538427963355E+00
(PID.TID 0000.0001) %MON dynstat_theta_mean           =   8.4641311815384E+00
(PID.TID 0000.0001) %MON dynstat_theta_sd             =   1.4057719035953E+00
(PID.TID 0000.0001) %MON dynstat_theta_del2           =   7.4060935221235E-03
(PID.TID 0000.0001) %MON dynstat_salt_max             =   1.1996600736128E+01
(PID.TID 0000.0001) %MON dynstat_salt_min             =   1.0463921351951E+01
(PID.TID 0000.0001) %MON dynstat_salt_mean            =   1.1308801389940E+01
(PID.TID 0000.0001) %MON dynstat_salt_sd              =   5.1718894822764E-01
(PID.TID 0000.0001) %MON dynstat_salt_del2            =   5.6468851047482E-04
(PID.TID 0000.0001) %MON advcfl_uvel_max              =   4.7451501442400E-03
(PID.TID 0000.0001) %MON advcfl_vvel_max              =   6.2402699974884E-04
(PID.TID 0000.0001) %MON advcfl_wvel_max              =   3.4557838801053E-03
(PID.TID 0000.0001) %MON advcfl_W_hf_max              =   3.6799085830180E-03
(PID.TID 0000.0001) %MON pe_b_mean                    =   6.4972173074851E-05
(PID.TID 0000.0001) %MON ke_max                       =   8.7763777347750E-03
(PID.TID 0000.0001) %MON ke_mean                      =   2.0354556025144E-04
(PID.TID 0000.0001) %MON ke_vol                       =   5.0981346415358E+14
(PID.TID 0000.0001) // =======================================================
(PID.TID 0000.0001) // End MONITOR dynamic field statistics
(PID.TID 0000.0001) // =======================================================
 cg2d: Sum(rhs),rhsMax =  -7.06379399417756E-15  9.03310169758021E-01
(PID.TID 0000.0001)      cg2d_init_res =   8.17541401623957E-02
(PID.TID 0000.0001)      cg2d_iters(min,last) =      -1      28
(PID.TID 0000.0001)      cg2d_last_res =   2.29585683108414E-16
(PID.TID 0000.0001) // =======================================================
(PID.TID 0000.0001) // Begin MONITOR dynamic field statistics
(PID.TID 0000.0001) // =======================================================
(PID.TID 0000.0001) %MON time_tsnumber                =                     5
(PID.TID 0000.0001) %MON time_secondsf                =   1.8000000000000E+04
(PID.TID 0000.0001) %MON dynstat_eta_max              =   3.6037972518432E-01
(PID.TID 0000.0001) %MON dynstat_eta_min              =  -7.8088424777001E-02
(PID.TID 0000.0001) %MON dynstat_eta_mean             =   5.7474772135417E-16
(PID.TID 0000.0001) %MON dynstat_eta_sd               =   1.3660393029921E-01
(PID.TID 0000.0001) %MON dynstat_eta_del2             =   5.7457323418878E-03
(PID.TID 0000.0001) %MON dynstat_uvel_max             =   1.3516242904560E-01
(PID.TID 0000.0001) %MON dynstat_uvel_min             =  -1.3695548963763E-01
(PID.TID 0000.0001) %MON dynstat_uvel_mean            =  -2.7399006897053E-05
(PID.TID 0000.0001) %MON dynstat_uvel_sd              =   2.0646885209654E-02
(PID.TID 0000.0001) %MON dynstat_uvel_del2            =   5.8479263821896E-04
(PID.TID 0000.0001) %MON dynstat_vvel_max             =   1.5988765035466E-02
(PID.TID 0000.0001) %MON dynstat_vvel_min             =  -1.7735581983299E-02
(PID.TID 0000.0001) %MON dynstat_vvel_mean            =  -2.7392888281073E-04
(PID.TID 0000.0001) %MON dynstat_vvel_sd              =   2.5221275001255E-03
(PID.TID 0000.0001) %MON dynstat_vvel_del2            =   1.2162513528209E-04
(PID.TID 0000.0001) %MON dynstat_wvel_max             =   2.1183877895892E-05
(PID.TID 0000.0001) %MON dynstat_wvel_min             =  -3.4222235294362E-05
(PID.TID 0000.0001) %MON dynstat_wvel_mean            =  -7.6906043589672E-23
(PID.TID 0000.0001) %MON dynstat_wvel_sd              =   9.9412018301084E-06
(PID.TID 0000.0001) %MON dynstat_wvel_del2            =   4.7814324849814E-07
(PID.TID 0000.0001) %MON dynstat_theta_max            =   1.3326218895863E+01
(PID.TID 0000.0001) %MON dynstat_theta_min            =   6.2538382338196E+00
(PID.TID 0000.0001) %MON dynstat_theta_mean           =   8.4641467446398E+00
(PID.TID 0000.0001) %MON dynstat_theta_sd             =   1.4058013842033E+00
(PID.TID 0000.0001) %MON dynstat_theta_del2           =   7.4024966982441E-03
(PID.TID 0000.0001) %MON dynstat_salt_max             =   1.1996619269743E+01
(PID.TID 0000.0001) %MON dynstat_salt_min             =   1.0463518252089E+01
(PID.TID 0000.0001) %MON dynstat_salt_mean            =   1.1308809433228E+01
(PID.TID 0000.0001) %MON dynstat_salt_sd              =   5.1718146853359E-01
(PID.TID 0000.0001) %MON dynstat_salt_del2            =   5.6474729276132E-04
(PID.TID 0000.0001) %MON advcfl_uvel_max              =   4.9303976269548E-03
(PID.TID 0000.0001) %MON advcfl_vvel_max              =   6.3848095139875E-04
(PID.TID 0000.0001) %MON advcfl_wvel_max              =   3.8523344477736E-03
(PID.TID 0000.0001) %MON advcfl_W_hf_max              =   4.0908703763050E-03
(PID.TID 0000.0001) %MON pe_b_mean                    =   5.3861116914286E-05
(PID.TID 0000.0001) %MON ke_max                       =   9.4704014357330E-03
(PID.TID 0000.0001) %MON ke_mean                      =   2.1623916297130E-04
(PID.TID 0000.0001) %MON ke_vol                       =   5.0981346415358E+14
(PID.TID 0000.0001) // =======================================================
(PID.TID 0000.0001) // End MONITOR dynamic field statistics
(PID.TID 0000.0001) // =======================================================
 cg2d: Sum(rhs),rhsMax =  -7.00828284294630E-15  8.95342222836301E-01
(PID.TID 0000.0001)      cg2d_init_res =   5.02819049403641E-02
(PID.TID 0000.0001)      cg2d_iters(min,last) =      -1      28
(PID.TID 0000.0001)      cg2d_last_res =   2.46070215275496E-16
(PID.TID 0000.0001) // =======================================================
(PID.TID 0000.0001) // Begin MONITOR dynamic field statistics
(PID.TID 0000.0001) // =======================================================
(PID.TID 0000.0001) %MON time_tsnumber                =                     6
(PID.TID 0000.0001) %MON time_secondsf                =   2.1600000000000E+04
(PID.TID 0000.0001) %MON dynstat_eta_max              =   3.4762313640727E-01
(PID.TID 0000.0001) %MON dynstat_eta_min              =  -8.0536794106682E-02
(PID.TID 0000.0001) %MON dynstat_eta_mean             =   5.7665506998698E-16
(PID.TID 0000.0001) %MON dynstat_eta_sd               =   1.2996104541872E-01
(PID.TID 0000.0001) %MON dynstat_eta_del2             =   5.7532054067980E-03
(PID.TID 0000.0001) %MON dynstat_uvel_max             =   1.3920519699225E-01
(PID.TID 0000.0001) %MON dynstat_uvel_min             =  -1.4147733590689E-01
(PID.TID 0000.0001) %MON dynstat_uvel_mean            =  -9.4450850335357E-05
(PID.TID 0000.0001) %MON dynstat_uvel_sd              =   2.1164175404129E-02
(PID.TID 0000.0001) %MON dynstat_uvel_del2            =   6.1199443243335E-04
(PID.TID 0000.0001) %MON dynstat_vvel_max             =   1.4724616148617E-02
(PID.TID 0000.0001) %MON dynstat_vvel_min             =  -1.5709868980017E-02
(PID.TID 0000.0001) %MON dynstat_vvel_mean            =   1.2664541510469E-05
(PID.TID 0000.0001) %MON dynstat_vvel_sd              =   2.0658081948862E-03
(PID.TID 0000.0001) %MON dynstat_vvel_del2            =   1.2123070089486E-04
(PID.TID 0000.0001) %MON dynstat_wvel_max             =   2.0283442683978E-05
(PID.TID 0000.0001) %MON dynstat_wvel_min             =  -3.1721112175575E-05
(PID.TID 0000.0001) %MON dynstat_wvel_mean            =   2.6917115256385E-22
(PID.TID 0000.0001) %MON dynstat_wvel_sd              =   9.0543690548534E-06
(PID.TID 0000.0001) %MON dynstat_wvel_del2            =   5.0079088471802E-07
(PID.TID 0000.0001) %MON dynstat_theta_max            =   1.3326585577418E+01
(PID.TID 0000.0001) %MON dynstat_theta_min            =   6.2538338187512E+00
(PID.TID 0000.0001) %MON dynstat_theta_mean           =   8.4641560905522E+00
(PID.TID 0000.0001) %MON dynstat_theta_sd             =   1.4058184486150E+00
(PID.TID 0000.0001) %MON dynstat_theta_del2           =   7.3989741171608E-03
(PID.TID 0000.0001) %MON dynstat_salt_max             =   1.1996636723122E+01
(PID.TID 0000.0001) %MON dynstat_salt_min             =   1.0463601322958E+01
(PID.TID 0000.0001) %MON dynstat_salt_mean            =   1.1308816346127E+01
(PID.TID 0000.0001) %MON dynstat_salt_sd              =   5.1717271474445E-01
(PID.TID 0000.0001) %MON dynstat_salt_del2            =   5.6484651416467E-04
(PID.TID 0000.0001) %MON advcfl_uvel_max              =   5.0931840926480E-03
(PID.TID 0000.0001) %MON advcfl_vvel_max              =   5.6555528328063E-04
(PID.TID 0000.0001) %MON advcfl_wvel_max              =   3.3625796380016E-03
(PID.TID 0000.0001) %MON advcfl_W_hf_max              =   3.6014253994613E-03
(PID.TID 0000.0001) %MON pe_b_mean                    =   4.8750082818921E-05
(PID.TID 0000.0001) %MON ke_max                       =   1.0076680868104E-02
(PID.TID 0000.0001) %MON ke_mean                      =   2.2601578221010E-04
(PID.TID 0000.0001) %MON ke_vol                       =   5.0981346415358E+14
(PID.TID 0000.0001) // =======================================================
(PID.TID 0000.0001) // End MONITOR dynamic field statistics
(PID.TID 0000.0001) // =======================================================
 cg2d: Sum(rhs),rhsMax =  -7.58247631349462E-15  8.95334985355562E-01
(PID.TID 0000.0001)      cg2d_init_res =   8.25109036440036E-03
(PID.TID 0000.0001)      cg2d_iters(min,last) =      -1      28
(PID.TID 0000.0001)      cg2d_last_res =   1.84668344546626E-16
(PID.TID 0000.0001) // =======================================================
(PID.TID 0000.0001) // Begin MONITOR dynamic field statistics
(PID.TID 0000.0001) // =======================================================
(PID.TID 0000.0001) %MON time_tsnumber                =                     7
(PID.TID 0000.0001) %MON time_secondsf                =   2.5200000000000E+04
(PID.TID 0000.0001) %MON dynstat_eta_max              =   3.4732694395069E-01
(PID.TID 0000.0001) %MON dynstat_eta_min              =  -8.0832499238671E-02
(PID.TID 0000.0001) %MON dynstat_eta_mean             =   8.6434682210286E-16
(PID.TID 0000.0001) %MON dynstat_eta_sd               =   1.2982847083704E-01
(PID.TID 0000.0001) %MON dynstat_eta_del2             =   5.7538381253840E-03
(PID.TID 0000.0001) %MON dynstat_uvel_max             =   1.4245702812424E-01
(PID.TID 0000.0001) %MON dynstat_uvel_min             =  -1.4482269619193E-01
(PID.TID 0000.0001) %MON dynstat_uvel_mean            =  -3.0431667464548E-05
(PID.TID 0000.0001) %MON dynstat_uvel_sd              =   2.1548068259738E-02
(PID.TID 0000.0001) %MON dynstat_uvel_del2            =   6.3564751121588E-04
(PID.TID 0000.0001) %MON dynstat_vvel_max             =   1.2034276037876E-02
(PID.TID 0000.0001) %MON dynstat_vvel_min             =  -1.2103752484006E-02
(PID.TID 0000.0001) %MON dynstat_vvel_mean            =   2.2689133307822E-04
(PID.TID 0000.0001) %MON dynstat_vvel_sd              =   1.4707686473373E-03
(PID.TID 0000.0001) %MON dynstat_vvel_del2            =   1.1378497296462E-04
(PID.TID 0000.0001) %MON dynstat_wvel_max             =   2.1228822831562E-05
(PID.TID 0000.0001) %MON dynstat_wvel_min             =  -2.6759633370876E-05
(PID.TID 0000.0001) %MON dynstat_wvel_mean            =   3.0762417435869E-23
(PID.TID 0000.0001) %MON dynstat_wvel_sd              =   7.5593373224943E-06
(PID.TID 0000.0001) %MON dynstat_wvel_del2            =   5.0047412672829E-07
(PID.TID 0000.0001) %MON dynstat_theta_max            =   1.3326916424292E+01
(PID.TID 0000.0001) %MON dynstat_theta_min            =   6.2538334597335E+00
(PID.TID 0000.0001) %MON dynstat_theta_mean           =   8.4641583101872E+00
(PID.TID 0000.0001) %MON dynstat_theta_sd             =   1.4058222309787E+00
(PID.TID 0000.0001) %MON dynstat_theta_del2           =   7.3958366411816E-03
(PID.TID 0000.0001) %MON dynstat_salt_max             =   1.1996652756912E+01
(PID.TID 0000.0001) %MON dynstat_salt_min             =   1.0463558455378E+01
(PID.TID 0000.0001) %MON dynstat_salt_mean            =   1.1308818304525E+01
(PID.TID 0000.0001) %MON dynstat_salt_sd              =   5.1716431505343E-01
(PID.TID 0000.0001) %MON dynstat_salt_del2            =   5.6489020344380E-04
(PID.TID 0000.0001) %MON advcfl_uvel_max              =   5.2136170629094E-03
(PID.TID 0000.0001) %MON advcfl_vvel_max              =   4.3573508942422E-04
(PID.TID 0000.0001) %MON advcfl_wvel_max              =   2.6234730749329E-03
(PID.TID 0000.0001) %MON advcfl_W_hf_max              =   2.8435429577474E-03
(PID.TID 0000.0001) %MON pe_b_mean                    =   4.8650672640766E-05
(PID.TID 0000.0001) %MON ke_max                       =   1.0525064375342E-02
(PID.TID 0000.0001) %MON ke_mean                      =   2.3322397145313E-04
(PID.TID 0000.0001) %MON ke_vol                       =   5.0981346415358E+14
(PID.TID 0000.0001) // =======================================================
(PID.TID 0000.0001) // End MONITOR dynamic field statistics
(PID.TID 0000.0001) // =======================================================
 cg2d: Sum(rhs),rhsMax =  -1.08003883614316E-14  8.99722061697425E-01
(PID.TID 0000.0001)      cg2d_init_res =   2.22293549025913E-02
(PID.TID 0000.0001)      cg2d_iters(min,last) =      -1      28
(PID.TID 0000.0001)      cg2d_last_res =   3.55867528290533E-16
(PID.TID 0000.0001) // =======================================================
(PID.TID 0000.0001) // Begin MONITOR dynamic field statistics
(PID.TID 0000.0001) // =======================================================
(PID.TID 0000.0001) %MON time_tsnumber                =                     8
(PID.TID 0000.0001) %MON time_secondsf                =   2.8800000000000E+04
(PID.TID 0000.0001) %MON dynstat_eta_max              =   3.5331712818845E-01
(PID.TID 0000.0001) %MON dynstat_eta_min              =  -8.1070119362059E-02
(PID.TID 0000.0001) %MON dynstat_eta_mean             =   8.1348419189453E-16
(PID.TID 0000.0001) %MON dynstat_eta_sd               =   1.3290460257035E-01
(PID.TID 0000.0001) %MON dynstat_eta_del2             =   5.7541013244257E-03
(PID.TID 0000.0001) %MON dynstat_uvel_max             =   1.4463055400087E-01
(PID.TID 0000.0001) %MON dynstat_uvel_min             =  -1.4676506281768E-01
(PID.TID 0000.0001) %MON dynstat_uvel_mean            =   9.3227921530177E-05
(PID.TID 0000.0001) %MON dynstat_uvel_sd              =   2.1758078990870E-02
(PID.TID 0000.0001) %MON dynstat_uvel_del2            =   6.5322897323342E-04
(PID.TID 0000.0001) %MON dynstat_vvel_max             =   8.2718534066381E-03
(PID.TID 0000.0001) %MON dynstat_vvel_min             =  -7.7608183699271E-03
(PID.TID 0000.0001) %MON dynstat_vvel_mean            =   2.8041854863489E-04
(PID.TID 0000.0001) %MON dynstat_vvel_sd              =   1.0344619770842E-03
(PID.TID 0000.0001) %MON dynstat_vvel_del2            =   1.0269311509018E-04
(PID.TID 0000.0001) %MON dynstat_wvel_max             =   1.9842292645931E-05
(PID.TID 0000.0001) %MON dynstat_wvel_min             =  -2.0957116131914E-05
(PID.TID 0000.0001) %MON dynstat_wvel_mean            =  -3.0762417435869E-23
(PID.TID 0000.0001) %MON dynstat_wvel_sd              =   5.9534320969805E-06
(PID.TID 0000.0001) %MON dynstat_wvel_del2            =   4.8350313122835E-07
(PID.TID 0000.0001) %MON dynstat_theta_max            =   1.3327225054724E+01
(PID.TID 0000.0001) %MON dynstat_theta_min            =   6.2538360830682E+00
(PID.TID 0000.0001) %MON dynstat_theta_mean           =   8.4641557366589E+00
(PID.TID 0000.0001) %MON dynstat_theta_sd             =   1.4058170483281E+00
(PID.TID 0000.0001) %MON dynstat_theta_del2           =   7.3932256323704E-03
(PID.TID 0000.0001) %MON dynstat_salt_max             =   1.1996667893144E+01
(PID.TID 0000.0001) %MON dynstat_salt_min             =   1.0463584142649E+01
(PID.TID 0000.0001) %MON dynstat_salt_mean            =   1.1308816651685E+01
(PID.TID 0000.0001) %MON dynstat_salt_sd              =   5.1715636503538E-01
(PID.TID 0000.0001) %MON dynstat_salt_del2            =   5.6487808465986E-04
(PID.TID 0000.0001) %MON advcfl_uvel_max              =   5.2835422614364E-03
(PID.TID 0000.0001) %MON advcfl_vvel_max              =   2.9778672263897E-04
(PID.TID 0000.0001) %MON advcfl_wvel_max              =   2.1012020862191E-03
(PID.TID 0000.0001) %MON advcfl_W_hf_max              =   2.2533482577844E-03
(PID.TID 0000.0001) %MON pe_b_mean                    =   5.0983425022466E-05
(PID.TID 0000.0001) %MON ke_max                       =   1.0785058472854E-02
(PID.TID 0000.0001) %MON ke_mean                      =   2.3726318976506E-04
(PID.TID 0000.0001) %MON ke_vol                       =   5.0981346415358E+14
(PID.TID 0000.0001) // =======================================================
(PID.TID 0000.0001) // End MONITOR dynamic field statistics
(PID.TID 0000.0001) // =======================================================
 cg2d: Sum(rhs),rhsMax =  -1.09530440273176E-14  9.03965949948382E-01
(PID.TID 0000.0001)      cg2d_init_res =   2.00199706126952E-02
(PID.TID 0000.0001)      cg2d_iters(min,last) =      -1      28
(PID.TID 0000.0001)      cg2d_last_res =   3.95078155345543E-16
(PID.TID 0000.0001) // =======================================================
(PID.TID 0000.0001) // Begin MONITOR dynamic field statistics
(PID.TID 0000.0001) // =======================================================
(PID.TID 0000.0001) %MON time_tsnumber                =                     9
(PID.TID 0000.0001) %MON time_secondsf                =   3.2400000000000E+04
(PID.TID 0000.0001) %MON dynstat_eta_max              =   3.5903659277956E-01
(PID.TID 0000.0001) %MON dynstat_eta_min              =  -8.2879733915648E-02
(PID.TID 0000.0001) %MON dynstat_eta_mean             =   1.0105768839518E-15
(PID.TID 0000.0001) %MON dynstat_eta_sd               =   1.3580317455572E-01
(PID.TID 0000.0001) %MON dynstat_eta_del2             =   5.7553167122340E-03
(PID.TID 0000.0001) %MON dynstat_uvel_max             =   1.4555704474457E-01
(PID.TID 0000.0001) %MON dynstat_uvel_min             =  -1.4735058404396E-01
(PID.TID 0000.0001) %MON dynstat_uvel_mean            =   2.0209329702755E-04
(PID.TID 0000.0001) %MON dynstat_uvel_sd              =   2.1793498049414E-02
(PID.TID 0000.0001) %MON dynstat_uvel_del2            =   6.6304019593460E-04
(PID.TID 0000.0001) %MON dynstat_vvel_max             =   4.2211830560183E-03
(PID.TID 0000.0001) %MON dynstat_vvel_min             =  -3.4159803908869E-03
(PID.TID 0000.0001) %MON dynstat_vvel_mean            =   1.9983833203408E-04
(PID.TID 0000.0001) %MON dynstat_vvel_sd              =   7.1885680007044E-04
(PID.TID 0000.0001) %MON dynstat_vvel_del2            =   9.2539073027321E-05
(PID.TID 0000.0001) %MON dynstat_wvel_max             =   1.6382157379613E-05
(PID.TID 0000.0001) %MON dynstat_wvel_min             =  -1.4862985904536E-05
(PID.TID 0000.0001) %MON dynstat_wvel_mean            =   6.1524834871738E-23
(PID.TID 0000.0001) %MON dynstat_wvel_sd              =   4.6606879729713E-06
(PID.TID 0000.0001) %MON dynstat_wvel_del2            =   4.5789014934043E-07
(PID.TID 0000.0001) %MON dynstat_theta_max            =   1.3327481966003E+01
(PID.TID 0000.0001) %MON dynstat_theta_min            =   6.2538389672234E+00
(PID.TID 0000.0001) %MON dynstat_theta_mean           =   8.4641521988442E+00
(PID.TID 0000.0001) %MON dynstat_theta_sd             =   1.4058100446732E+00
(PID.TID 0000.0001) %MON dynstat_theta_del2           =   7.3912333886692E-03
(PID.TID 0000.0001) %MON dynstat_salt_max             =   1.1996680746652E+01
(PID.TID 0000.0001) %MON dynstat_salt_min             =   1.0463691758395E+01
(PID.TID 0000.0001) %MON dynstat_salt_mean            =   1.1308814307735E+01
(PID.TID 0000.0001) %MON dynstat_salt_sd              =   5.1714849868786E-01
(PID.TID 0000.0001) %MON dynstat_salt_del2            =   5.6494350663872E-04
(PID.TID 0000.0001) %MON advcfl_uvel_max              =   5.3046210255826E-03
(PID.TID 0000.0001) %MON advcfl_vvel_max              =   1.5196259001666E-04
(PID.TID 0000.0001) %MON advcfl_wvel_max              =   1.8205504895245E-03
(PID.TID 0000.0001) %MON advcfl_W_hf_max              =   1.9409193200109E-03
(PID.TID 0000.0001) %MON pe_b_mean                    =   5.3231512943506E-05
(PID.TID 0000.0001) %MON ke_max                       =   1.0860378473681E-02
(PID.TID 0000.0001) %MON ke_mean                      =   2.3776612663532E-04
(PID.TID 0000.0001) %MON ke_vol                       =   5.0981346415358E+14
(PID.TID 0000.0001) // =======================================================
(PID.TID 0000.0001) // End MONITOR dynamic field statistics
(PID.TID 0000.0001) // =======================================================
 cg2d: Sum(rhs),rhsMax =  -1.31283872661925E-14  9.05806147050142E-01
(PID.TID 0000.0001)      cg2d_init_res =   6.86376882743235E-03
(PID.TID 0000.0001)      cg2d_iters(min,last) =      -1      28
(PID.TID 0000.0001)      cg2d_last_res =   3.66379291352218E-16
(PID.TID 0000.0001) // =======================================================
(PID.TID 0000.0001) // Begin MONITOR dynamic field statistics
(PID.TID 0000.0001) // =======================================================
(PID.TID 0000.0001) %MON time_tsnumber                =                    10
(PID.TID 0000.0001) %MON time_secondsf                =   3.6000000000000E+04
(PID.TID 0000.0001) %MON dynstat_eta_max              =   3.6107455490179E-01
(PID.TID 0000.0001) %MON dynstat_eta_min              =  -8.3566955154543E-02
(PID.TID 0000.0001) %MON dynstat_eta_mean             =   1.0722478230794E-15
(PID.TID 0000.0001) %MON dynstat_eta_sd               =   1.3679375992235E-01
(PID.TID 0000.0001) %MON dynstat_eta_del2             =   5.7561371425482E-03
(PID.TID 0000.0001) %MON dynstat_uvel_max             =   1.4520457840893E-01
(PID.TID 0000.0001) %MON dynstat_uvel_min             =  -1.4672596234657E-01
(PID.TID 0000.0001) %MON dynstat_uvel_mean            =   2.5497870466272E-04
(PID.TID 0000.0001) %MON dynstat_uvel_sd              =   2.1666663324642E-02
(PID.TID 0000.0001) %MON dynstat_uvel_del2            =   6.6436609227412E-04
(PID.TID 0000.0001) %MON dynstat_vvel_max             =   5.9685358206011E-03
(PID.TID 0000.0001) %MON dynstat_vvel_min             =  -5.5329354384372E-03
(PID.TID 0000.0001) %MON dynstat_vvel_mean            =   6.1243643460918E-05
(PID.TID 0000.0001) %MON dynstat_vvel_sd              =   8.6024827000421E-04
(PID.TID 0000.0001) %MON dynstat_vvel_del2            =   8.7677525645754E-05
(PID.TID 0000.0001) %MON dynstat_wvel_max             =   1.3773211643506E-05
(PID.TID 0000.0001) %MON dynstat_wvel_min             =  -1.5457681367088E-05
(PID.TID 0000.0001) %MON dynstat_wvel_mean            =  -1.9226510897418E-23
(PID.TID 0000.0001) %MON dynstat_wvel_sd              =   4.6066903137307E-06
(PID.TID 0000.0001) %MON dynstat_wvel_del2            =   4.3135857493053E-07
(PID.TID 0000.0001) %MON dynstat_theta_max            =   1.3327695728917E+01
(PID.TID 0000.0001) %MON dynstat_theta_min            =   6.2538407270326E+00
(PID.TID 0000.0001) %MON dynstat_theta_mean           =   8.4641503331065E+00
(PID.TID 0000.0001) %MON dynstat_theta_sd             =   1.4058061991142E+00
(PID.TID 0000.0001) %MON dynstat_theta_del2           =   7.3898931160052E-03
(PID.TID 0000.0001) %MON dynstat_salt_max             =   1.1996691600820E+01
(PID.TID 0000.0001) %MON dynstat_salt_min             =   1.0463805632494E+01
(PID.TID 0000.0001) %MON dynstat_salt_mean            =   1.1308813099880E+01
(PID.TID 0000.0001) %MON dynstat_salt_sd              =   5.1714053653311E-01
(PID.TID 0000.0001) %MON dynstat_salt_del2            =   5.6501856612215E-04
(PID.TID 0000.0001) %MON advcfl_uvel_max              =   5.2821346444764E-03
(PID.TID 0000.0001) %MON advcfl_vvel_max              =   2.1486728954164E-04
(PID.TID 0000.0001) %MON advcfl_wvel_max              =   1.4754735817962E-03
(PID.TID 0000.0001) %MON advcfl_W_hf_max              =   1.6075035402142E-03
(PID.TID 0000.0001) %MON pe_b_mean                    =   5.4010915527266E-05
(PID.TID 0000.0001) %MON ke_max                       =   1.0769489083921E-02
(PID.TID 0000.0001) %MON ke_mean                      =   2.3511195851677E-04
(PID.TID 0000.0001) %MON ke_vol                       =   5.0981346415358E+14
(PID.TID 0000.0001) // =======================================================
(PID.TID 0000.0001) // End MONITOR dynamic field statistics
(PID.TID 0000.0001) // =======================================================
 cg2d: Sum(rhs),rhsMax =  -1.46445355841962E-14  9.05730009565584E-01
(PID.TID 0000.0001)      cg2d_init_res =   4.37131700409567E-03
(PID.TID 0000.0001)      cg2d_iters(min,last) =      -1      28
(PID.TID 0000.0001)      cg2d_last_res =   3.13267286989599E-16
(PID.TID 0000.0001) // =======================================================
(PID.TID 0000.0001) // Begin MONITOR dynamic field statistics
(PID.TID 0000.0001) // =======================================================
(PID.TID 0000.0001) %MON time_tsnumber                =                    11
(PID.TID 0000.0001) %MON time_secondsf                =   3.9600000000000E+04
(PID.TID 0000.0001) %MON dynstat_eta_max              =   3.5993955284874E-01
(PID.TID 0000.0001) %MON dynstat_eta_min              =  -8.3091694131409E-02
(PID.TID 0000.0001) %MON dynstat_eta_mean             =   1.0925928751628E-15
(PID.TID 0000.0001) %MON dynstat_eta_sd               =   1.3621458547746E-01
(PID.TID 0000.0001) %MON dynstat_eta_del2             =   5.7563820907247E-03
(PID.TID 0000.0001) %MON dynstat_uvel_max             =   1.4367790855858E-01
(PID.TID 0000.0001) %MON dynstat_uvel_min             =  -1.4504823536183E-01
(PID.TID 0000.0001) %MON dynstat_uvel_mean            =   2.4763392203159E-04
(PID.TID 0000.0001) %MON dynstat_uvel_sd              =   2.1398599329192E-02
(PID.TID 0000.0001) %MON dynstat_uvel_del2            =   6.5750633242785E-04
(PID.TID 0000.0001) %MON dynstat_vvel_max             =   8.7360334740823E-03
(PID.TID 0000.0001) %MON dynstat_vvel_min             =  -8.6663465902162E-03
(PID.TID 0000.0001) %MON dynstat_vvel_mean            =  -6.2963533170079E-05
(PID.TID 0000.0001) %MON dynstat_vvel_sd              =   1.2976855528178E-03
(PID.TID 0000.0001) %MON dynstat_vvel_del2            =   8.9308130604094E-05
(PID.TID 0000.0001) %MON dynstat_wvel_max             =   1.4200774915283E-05
(PID.TID 0000.0001) %MON dynstat_wvel_min             =  -2.4442840904416E-05
(PID.TID 0000.0001) %MON dynstat_wvel_mean            =   1.8841980679470E-22
(PID.TID 0000.0001) %MON dynstat_wvel_sd              =   5.7326963265567E-06
(PID.TID 0000.0001) %MON dynstat_wvel_del2            =   4.0882444738769E-07
(PID.TID 0000.0001) %MON dynstat_theta_max            =   1.3327871027121E+01
(PID.TID 0000.0001) %MON dynstat_theta_min            =   6.2538413482200E+00
(PID.TID 0000.0001) %MON dynstat_theta_mean           =   8.4641504588444E+00
(PID.TID 0000.0001) %MON dynstat_theta_sd             =   1.4058061268833E+00
(PID.TID 0000.0001) %MON dynstat_theta_del2           =   7.3891621117124E-03
(PID.TID 0000.0001) %MON dynstat_salt_max             =   1.1996700651802E+01
(PID.TID 0000.0001) %MON dynstat_salt_min             =   1.0463889590017E+01
(PID.TID 0000.0001) %MON dynstat_salt_mean            =   1.1308813191370E+01
(PID.TID 0000.0001) %MON dynstat_salt_sd              =   5.1713248079829E-01
(PID.TID 0000.0001) %MON dynstat_salt_del2            =   5.6508076991716E-04
(PID.TID 0000.0001) %MON advcfl_uvel_max              =   5.2217364730258E-03
(PID.TID 0000.0001) %MON advcfl_vvel_max              =   3.1449720506696E-04
(PID.TID 0000.0001) %MON advcfl_wvel_max              =   2.4292964539436E-03
(PID.TID 0000.0001) %MON advcfl_W_hf_max              =   2.6293502182399E-03
(PID.TID 0000.0001) %MON pe_b_mean                    =   5.3554527461459E-05
(PID.TID 0000.0001) %MON ke_max                       =   1.0534247487986E-02
(PID.TID 0000.0001) %MON ke_mean                      =   2.2979155914215E-04
(PID.TID 0000.0001) %MON ke_vol                       =   5.0981346415358E+14
(PID.TID 0000.0001) // =======================================================
(PID.TID 0000.0001) // End MONITOR dynamic field statistics
(PID.TID 0000.0001) // =======================================================
 cg2d: Sum(rhs),rhsMax =  -1.32428790156069E-14  9.05300411509067E-01
(PID.TID 0000.0001)      cg2d_init_res =   7.06790978375215E-03
(PID.TID 0000.0001)      cg2d_iters(min,last) =      -1      28
(PID.TID 0000.0001)      cg2d_last_res =   2.58541618160674E-16
(PID.TID 0000.0001) // =======================================================
(PID.TID 0000.0001) // Begin MONITOR dynamic field statistics
(PID.TID 0000.0001) // =======================================================
(PID.TID 0000.0001) %MON time_tsnumber                =                    12
(PID.TID 0000.0001) %MON time_secondsf                =   4.3200000000000E+04
(PID.TID 0000.0001) %MON dynstat_eta_max              =   3.5802573640228E-01
(PID.TID 0000.0001) %MON dynstat_eta_min              =  -8.2031420912341E-02
(PID.TID 0000.0001) %MON dynstat_eta_mean             =   1.1955897013346E-15
(PID.TID 0000.0001) %MON dynstat_eta_sd               =   1.3526258661117E-01
(PID.TID 0000.0001) %MON dynstat_eta_del2             =   5.7569227840287E-03
(PID.TID 0000.0001) %MON dynstat_uvel_max             =   1.4121808766031E-01
(PID.TID 0000.0001) %MON dynstat_uvel_min             =  -1.4251300742274E-01
(PID.TID 0000.0001) %MON dynstat_uvel_mean            =   2.0029345691580E-04
(PID.TID 0000.0001) %MON dynstat_uvel_sd              =   2.1023991976953E-02
(PID.TID 0000.0001) %MON dynstat_uvel_del2            =   6.4369854008227E-04
(PID.TID 0000.0001) %MON dynstat_vvel_max             =   1.0759374016895E-02
(PID.TID 0000.0001) %MON dynstat_vvel_min             =  -1.0877072716208E-02
(PID.TID 0000.0001) %MON dynstat_vvel_mean            =  -1.3127719518317E-04
(PID.TID 0000.0001) %MON dynstat_vvel_sd              =   1.6632060549524E-03
(PID.TID 0000.0001) %MON dynstat_vvel_del2            =   9.4396948722236E-05
(PID.TID 0000.0001) %MON dynstat_wvel_max             =   2.0572088312303E-05
(PID.TID 0000.0001) %MON dynstat_wvel_min             =  -3.0420045283750E-05
(PID.TID 0000.0001) %MON dynstat_wvel_mean            =   7.6906043589672E-24
(PID.TID 0000.0001) %MON dynstat_wvel_sd              =   7.0068532124685E-06
(PID.TID 0000.0001) %MON dynstat_wvel_del2            =   3.9075617700798E-07
(PID.TID 0000.0001) %MON dynstat_theta_max            =   1.3328016259939E+01
(PID.TID 0000.0001) %MON dynstat_theta_min            =   6.2538414071124E+00
(PID.TID 0000.0001) %MON dynstat_theta_mean           =   8.4641514706772E+00
(PID.TID 0000.0001) %MON dynstat_theta_sd             =   1.4058077372649E+00
(PID.TID 0000.0001) %MON dynstat_theta_del2           =   7.3889274978067E-03
(PID.TID 0000.0001) %MON dynstat_salt_max             =   1.1996708305364E+01
(PID.TID 0000.0001) %MON dynstat_salt_min             =   1.0463953336219E+01
(PID.TID 0000.0001) %MON dynstat_salt_mean            =   1.1308813844452E+01
(PID.TID 0000.0001) %MON dynstat_salt_sd              =   5.1712439072395E-01
(PID.TID 0000.0001) %MON dynstat_salt_del2            =   5.6514449696486E-04
(PID.TID 0000.0001) %MON advcfl_uvel_max              =   5.1304682672185E-03
(PID.TID 0000.0001) %MON advcfl_vvel_max              =   3.9157461778349E-04
(PID.TID 0000.0001) %MON advcfl_wvel_max              =   3.0396679869438E-03
(PID.TID 0000.0001) %MON advcfl_W_hf_max              =   3.2878200122837E-03
(PID.TID 0000.0001) %MON pe_b_mean                    =   5.2808562011434E-05
(PID.TID 0000.0001) %MON ke_max                       =   1.0182459975737E-02
(PID.TID 0000.0001) %MON ke_mean                      =   2.2236133110294E-04
(PID.TID 0000.0001) %MON ke_vol                       =   5.0981346415358E+14
(PID.TID 0000.0001) // =======================================================
(PID.TID 0000.0001) // End MONITOR dynamic field statistics
(PID.TID 0000.0001) // =======================================================
 cg2d: Sum(rhs),rhsMax =  -1.56090418368393E-14  9.05577356484357E-01
(PID.TID 0000.0001)      cg2d_init_res =   4.74058349197639E-03
(PID.TID 0000.0001)      cg2d_iters(min,last) =      -1      28
(PID.TID 0000.0001)      cg2d_last_res =   2.10309639422668E-16
(PID.TID 0000.0001) // =======================================================
(PID.TID 0000.0001) // Begin MONITOR dynamic field statistics
(PID.TID 0000.0001) // =======================================================
(PID.TID 0000.0001) %MON time_tsnumber                =                    13
(PID.TID 0000.0001) %MON time_secondsf                =   4.6800000000000E+04
(PID.TID 0000.0001) %MON dynstat_eta_max              =   3.5715117087821E-01
(PID.TID 0000.0001) %MON dynstat_eta_min              =  -8.1002095335419E-02
(PID.TID 0000.0001) %MON dynstat_eta_mean             =   1.6161600748698E-15
(PID.TID 0000.0001) %MON dynstat_eta_sd               =   1.3476059516171E-01
(PID.TID 0000.0001) %MON dynstat_eta_del2             =   5.7583113687836E-03
(PID.TID 0000.0001) %MON dynstat_uvel_max             =   1.3818400599263E-01
(PID.TID 0000.0001) %MON dynstat_uvel_min             =  -1.3940835385388E-01
(PID.TID 0000.0001) %MON dynstat_uvel_mean            =   1.4112656589434E-04
(PID.TID 0000.0001) %MON dynstat_uvel_sd              =   2.0591344133376E-02
(PID.TID 0000.0001) %MON dynstat_uvel_del2            =   6.2492636520792E-04
(PID.TID 0000.0001) %MON dynstat_vvel_max             =   1.1779907451737E-02
(PID.TID 0000.0001) %MON dynstat_vvel_min             =  -1.1899389758836E-02
(PID.TID 0000.0001) %MON dynstat_vvel_mean            =  -1.3671511460996E-04
(PID.TID 0000.0001) %MON dynstat_vvel_sd              =   1.8506590916374E-03
(PID.TID 0000.0001) %MON dynstat_vvel_del2            =   9.8501047487673E-05
(PID.TID 0000.0001) %MON dynstat_wvel_max             =   2.5418492654907E-05
(PID.TID 0000.0001) %MON dynstat_wvel_min             =  -3.2812911484593E-05
(PID.TID 0000.0001) %MON dynstat_wvel_mean            =   1.4612148282038E-22
(PID.TID 0000.0001) %MON dynstat_wvel_sd              =   7.8198248600129E-06
(PID.TID 0000.0001) %MON dynstat_wvel_del2            =   3.7392345016267E-07
(PID.TID 0000.0001) %MON dynstat_theta_max            =   1.3328143345300E+01
(PID.TID 0000.0001) %MON dynstat_theta_min            =   6.2538414425814E+00
(PID.TID 0000.0001) %MON dynstat_theta_mean           =   8.4641522532267E+00
(PID.TID 0000.0001) %MON dynstat_theta_sd             =   1.4058089119976E+00
(PID.TID 0000.0001) %MON dynstat_theta_del2           =   7.3890226448079E-03
(PID.TID 0000.0001) %MON dynstat_salt_max             =   1.1996715115507E+01
(PID.TID 0000.0001) %MON dynstat_salt_min             =   1.0463928187337E+01
(PID.TID 0000.0001) %MON dynstat_salt_mean            =   1.1308814347319E+01
(PID.TID 0000.0001) %MON dynstat_salt_sd              =   5.1711631055789E-01
(PID.TID 0000.0001) %MON dynstat_salt_del2            =   5.6521803962166E-04
(PID.TID 0000.0001) %MON advcfl_uvel_max              =   5.0187007387398E-03
(PID.TID 0000.0001) %MON advcfl_vvel_max              =   4.2837803131811E-04
(PID.TID 0000.0001) %MON advcfl_wvel_max              =   3.2691892308259E-03
(PID.TID 0000.0001) %MON advcfl_W_hf_max              =   3.5392906661177E-03
(PID.TID 0000.0001) %MON pe_b_mean                    =   5.2417319231922E-05
(PID.TID 0000.0001) %MON ke_max                       =   9.7540983705214E-03
(PID.TID 0000.0001) %MON ke_mean                      =   2.1366596201832E-04
(PID.TID 0000.0001) %MON ke_vol                       =   5.0981346415358E+14
(PID.TID 0000.0001) // =======================================================
(PID.TID 0000.0001) // End MONITOR dynamic field statistics
(PID.TID 0000.0001) // =======================================================
 cg2d: Sum(rhs),rhsMax =  -2.05703509781330E-14  9.06624573489719E-01
(PID.TID 0000.0001)      cg2d_init_res =   2.54152020051731E-03
(PID.TID 0000.0001)      cg2d_iters(min,last) =      -1      27
(PID.TID 0000.0001)      cg2d_last_res =   6.34644628766074E-14
(PID.TID 0000.0001) // =======================================================
(PID.TID 0000.0001) // Begin MONITOR dynamic field statistics
(PID.TID 0000.0001) // =======================================================
(PID.TID 0000.0001) %MON time_tsnumber                =                    14
(PID.TID 0000.0001) %MON time_secondsf                =   5.0400000000000E+04
(PID.TID 0000.0001) %MON dynstat_eta_max              =   3.5740650252032E-01
(PID.TID 0000.0001) %MON dynstat_eta_min              =  -8.0354824690734E-02
(PID.TID 0000.0001) %MON dynstat_eta_mean             =   1.9063949584961E-15
(PID.TID 0000.0001) %MON dynstat_eta_sd               =   1.3481845996407E-01
(PID.TID 0000.0001) %MON dynstat_eta_del2             =   5.7603426984393E-03
(PID.TID 0000.0001) %MON dynstat_uvel_max             =   1.3500501303308E-01
(PID.TID 0000.0001) %MON dynstat_uvel_min             =  -1.3611824398242E-01
(PID.TID 0000.0001) %MON dynstat_uvel_mean            =   9.3410194651011E-05
(PID.TID 0000.0001) %MON dynstat_uvel_sd              =   2.0158258323837E-02
(PID.TID 0000.0001) %MON dynstat_uvel_del2            =   6.0364050674474E-04
(PID.TID 0000.0001) %MON dynstat_vvel_max             =   1.1616400407840E-02
(PID.TID 0000.0001) %MON dynstat_vvel_min             =  -1.1634409016717E-02
(PID.TID 0000.0001) %MON dynstat_vvel_mean            =  -9.6042646109169E-05
(PID.TID 0000.0001) %MON dynstat_vvel_sd              =   1.8371234779269E-03
(PID.TID 0000.0001) %MON dynstat_vvel_del2            =   9.8441005898569E-05
(PID.TID 0000.0001) %MON dynstat_wvel_max             =   2.7571725432767E-05
(PID.TID 0000.0001) %MON dynstat_wvel_min             =  -3.1559280885345E-05
(PID.TID 0000.0001) %MON dynstat_wvel_mean            =   2.0764631769211E-22
(PID.TID 0000.0001) %MON dynstat_wvel_sd              =   7.9471048353748E-06
(PID.TID 0000.0001) %MON dynstat_wvel_del2            =   3.5426138892620E-07
(PID.TID 0000.0001) %MON dynstat_theta_max            =   1.3328266553992E+01
(PID.TID 0000.0001) %MON dynstat_theta_min            =   6.2538416915593E+00
(PID.TID 0000.0001) %MON dynstat_theta_mean           =   8.4641524039833E+00
(PID.TID 0000.0001) %MON dynstat_theta_sd             =   1.4058088844533E+00
(PID.TID 0000.0001) %MON dynstat_theta_del2           =   7.3892489874028E-03
(PID.TID 0000.0001) %MON dynstat_salt_max             =   1.1996721708413E+01
(PID.TID 0000.0001) %MON dynstat_salt_min             =   1.0463954406970E+01
(PID.TID 0000.0001) %MON dynstat_salt_mean            =   1.1308814447892E+01
(PID.TID 0000.0001) %MON dynstat_salt_sd              =   5.1710825361296E-01
(PID.TID 0000.0001) %MON dynstat_salt_del2            =   5.6529547866505E-04
(PID.TID 0000.0001) %MON advcfl_uvel_max              =   4.9002567833670E-03
(PID.TID 0000.0001) %MON advcfl_vvel_max              =   4.1883872460180E-04
(PID.TID 0000.0001) %MON advcfl_wvel_max              =   3.1455739052214E-03
(PID.TID 0000.0001) %MON advcfl_W_hf_max              =   3.4081464107668E-03
(PID.TID 0000.0001) %MON pe_b_mean                    =   5.2462343803216E-05
(PID.TID 0000.0001) %MON ke_max                       =   9.3015961959989E-03
(PID.TID 0000.0001) %MON ke_mean                      =   2.0480780214613E-04
(PID.TID 0000.0001) %MON ke_vol                       =   5.0981346415358E+14
(PID.TID 0000.0001) // =======================================================
(PID.TID 0000.0001) // End MONITOR dynamic field statistics
(PID.TID 0000.0001) // =======================================================
 cg2d: Sum(rhs),rhsMax =  -2.49106291150269E-14  9.07912587654915E-01
(PID.TID 0000.0001)      cg2d_init_res =   2.55138699120297E-03
(PID.TID 0000.0001)      cg2d_iters(min,last) =      -1      27
(PID.TID 0000.0001)      cg2d_last_res =   2.47719394948139E-14
(PID.TID 0000.0001) // =======================================================
(PID.TID 0000.0001) // Begin MONITOR dynamic field statistics
(PID.TID 0000.0001) // =======================================================
(PID.TID 0000.0001) %MON time_tsnumber                =                    15
(PID.TID 0000.0001) %MON time_secondsf                =   5.4000000000000E+04
(PID.TID 0000.0001) %MON dynstat_eta_max              =   3.5810121536417E-01
(PID.TID 0000.0001) %MON dynstat_eta_min              =  -8.0169998300782E-02
(PID.TID 0000.0001) %MON dynstat_eta_mean             =   1.9632975260417E-15
(PID.TID 0000.0001) %MON dynstat_eta_sd               =   1.3513128858627E-01
(PID.TID 0000.0001) %MON dynstat_eta_del2             =   5.7623975464868E-03
(PID.TID 0000.0001) %MON dynstat_uvel_max             =   1.3211371558114E-01
(PID.TID 0000.0001) %MON dynstat_uvel_min             =  -1.3306939370822E-01
(PID.TID 0000.0001) %MON dynstat_uvel_mean            =   6.9539825926350E-05
(PID.TID 0000.0001) %MON dynstat_uvel_sd              =   1.9782228787919E-02
(PID.TID 0000.0001) %MON dynstat_uvel_del2            =   5.8243268203259E-04
(PID.TID 0000.0001) %MON dynstat_vvel_max             =   1.0234535858658E-02
(PID.TID 0000.0001) %MON dynstat_vvel_min             =  -1.0141475177873E-02
(PID.TID 0000.0001) %MON dynstat_vvel_mean            =  -3.5297729328715E-05
(PID.TID 0000.0001) %MON dynstat_vvel_sd              =   1.6324623040209E-03
(PID.TID 0000.0001) %MON dynstat_vvel_del2            =   9.3033595686014E-05
(PID.TID 0000.0001) %MON dynstat_wvel_max             =   2.6863466151113E-05
(PID.TID 0000.0001) %MON dynstat_wvel_min             =  -2.6922208327673E-05
(PID.TID 0000.0001) %MON dynstat_wvel_mean            =  -2.2975680522414E-22
(PID.TID 0000.0001) %MON dynstat_wvel_sd              =   7.3658789475644E-06
(PID.TID 0000.0001) %MON dynstat_wvel_del2            =   3.3003279765937E-07
(PID.TID 0000.0001) %MON dynstat_theta_max            =   1.3328400764786E+01
(PID.TID 0000.0001) %MON dynstat_theta_min            =   6.2538421261123E+00
(PID.TID 0000.0001) %MON dynstat_theta_mean           =   8.4641521310897E+00
(PID.TID 0000.0001) %MON dynstat_theta_sd             =   1.4058080478934E+00
(PID.TID 0000.0001) %MON dynstat_theta_del2           =   7.3894013844224E-03
(PID.TID 0000.0001) %MON dynstat_salt_max             =   1.1996728711754E+01
(PID.TID 0000.0001) %MON dynstat_salt_min             =   1.0464003965021E+01
(PID.TID 0000.0001) %MON dynstat_salt_mean            =   1.1308814278678E+01
(PID.TID 0000.0001) %MON dynstat_salt_sd              =   5.1710021219456E-01
(PID.TID 0000.0001) %MON dynstat_salt_del2            =   5.6536952050890E-04
(PID.TID 0000.0001) %MON advcfl_uvel_max              =   4.7904981734960E-03
(PID.TID 0000.0001) %MON advcfl_vvel_max              =   3.6844329091169E-04
(PID.TID 0000.0001) %MON advcfl_wvel_max              =   2.7122886062899E-03
(PID.TID 0000.0001) %MON advcfl_W_hf_max              =   2.9382940729269E-03
(PID.TID 0000.0001) %MON pe_b_mean                    =   5.2706090295544E-05
(PID.TID 0000.0001) %MON ke_max                       =   8.8829356624621E-03
(PID.TID 0000.0001) %MON ke_mean                      =   1.9695150507324E-04
(PID.TID 0000.0001) %MON ke_vol                       =   5.0981346415358E+14
(PID.TID 0000.0001) // =======================================================
(PID.TID 0000.0001) // End MONITOR dynamic field statistics
(PID.TID 0000.0001) // =======================================================
 cg2d: Sum(rhs),rhsMax =  -2.58751353676701E-14  9.08901727470187E-01
(PID.TID 0000.0001)      cg2d_init_res =   2.07654140160680E-03
(PID.TID 0000.0001)      cg2d_iters(min,last) =      -1      27
(PID.TID 0000.0001)      cg2d_last_res =   1.30948767369902E-14
(PID.TID 0000.0001) // =======================================================
(PID.TID 0000.0001) // Begin MONITOR dynamic field statistics
(PID.TID 0000.0001) // =======================================================
(PID.TID 0000.0001) %MON time_tsnumber                =                    16
(PID.TID 0000.0001) %MON time_secondsf                =   5.7600000000000E+04
(PID.TID 0000.0001) %MON dynstat_eta_max              =   3.5861926402730E-01
(PID.TID 0000.0001) %MON dynstat_eta_min              =  -8.0361500210045E-02
(PID.TID 0000.0001) %MON dynstat_eta_mean             =   2.1282831827799E-15
(PID.TID 0000.0001) %MON dynstat_eta_sd               =   1.3538184928723E-01
(PID.TID 0000.0001) %MON dynstat_eta_del2             =   5.7639032823013E-03
(PID.TID 0000.0001) %MON dynstat_uvel_max             =   1.2987889545803E-01
(PID.TID 0000.0001) %MON dynstat_uvel_min             =  -1.3065537354472E-01
(PID.TID 0000.0001) %MON dynstat_uvel_mean            =   7.0887782990394E-05
(PID.TID 0000.0001) %MON dynstat_uvel_sd              =   1.9510057031184E-02
(PID.TID 0000.0001) %MON dynstat_uvel_del2            =   5.6371387853234E-04
(PID.TID 0000.0001) %MON dynstat_vvel_max             =   7.7647303038418E-03
(PID.TID 0000.0001) %MON dynstat_vvel_min             =  -7.6165274944072E-03
(PID.TID 0000.0001) %MON dynstat_vvel_mean            =   2.1391193425024E-05
(PID.TID 0000.0001) %MON dynstat_vvel_sd              =   1.2827407300778E-03
(PID.TID 0000.0001) %MON dynstat_vvel_del2            =   8.3109049818561E-05
(PID.TID 0000.0001) %MON dynstat_wvel_max             =   2.3532121658095E-05
(PID.TID 0000.0001) %MON dynstat_wvel_min             =  -1.9424473129544E-05
(PID.TID 0000.0001) %MON dynstat_wvel_mean            =   3.4607719615352E-23
(PID.TID 0000.0001) %MON dynstat_wvel_sd              =   6.2179914452182E-06
(PID.TID 0000.0001) %MON dynstat_wvel_del2            =   3.0395228941227E-07
(PID.TID 0000.0001) %MON dynstat_theta_max            =   1.3328559596687E+01
(PID.TID 0000.0001) %MON dynstat_theta_min            =   6.2538426211568E+00
(PID.TID 0000.0001) %MON dynstat_theta_mean           =   8.4641518121902E+00
(PID.TID 0000.0001) %MON dynstat_theta_sd             =   1.4058071181406E+00
(PID.TID 0000.0001) %MON dynstat_theta_del2           =   7.3892942063070E-03
(PID.TID 0000.0001) %MON dynstat_salt_max             =   1.1996736691347E+01
(PID.TID 0000.0001) %MON dynstat_salt_min             =   1.0464079284965E+01
(PID.TID 0000.0001) %MON dynstat_salt_mean            =   1.1308814078403E+01
(PID.TID 0000.0001) %MON dynstat_salt_sd              =   5.1709217282322E-01
(PID.TID 0000.0001) %MON dynstat_salt_del2            =   5.6544816626202E-04
(PID.TID 0000.0001) %MON advcfl_uvel_max              =   4.7035934476099E-03
(PID.TID 0000.0001) %MON advcfl_vvel_max              =   2.7953029093830E-04
(PID.TID 0000.0001) %MON advcfl_wvel_max              =   2.2968899760274E-03
(PID.TID 0000.0001) %MON advcfl_W_hf_max              =   2.4900752093018E-03
(PID.TID 0000.0001) %MON pe_b_mean                    =   5.2901726974993E-05
(PID.TID 0000.0001) %MON ke_max                       =   8.5515403866816E-03
(PID.TID 0000.0001) %MON ke_mean                      =   1.9111433614919E-04
(PID.TID 0000.0001) %MON ke_vol                       =   5.0981346415358E+14
(PID.TID 0000.0001) // =======================================================
(PID.TID 0000.0001) // End MONITOR dynamic field statistics
(PID.TID 0000.0001) // =======================================================
 cg2d: Sum(rhs),rhsMax =  -2.75057754350883E-14  9.09348743922893E-01
(PID.TID 0000.0001)      cg2d_init_res =   1.51439273492779E-03
(PID.TID 0000.0001)      cg2d_iters(min,last) =      -1      27
(PID.TID 0000.0001)      cg2d_last_res =   2.60652632646223E-14
(PID.TID 0000.0001) // =======================================================
(PID.TID 0000.0001) // Begin MONITOR dynamic field statistics
(PID.TID 0000.0001) // =======================================================
(PID.TID 0000.0001) %MON time_tsnumber                =                    17
(PID.TID 0000.0001) %MON time_secondsf                =   6.1200000000000E+04
(PID.TID 0000.0001) %MON dynstat_eta_max              =   3.5873105170012E-01
(PID.TID 0000.0001) %MON dynstat_eta_min              =  -8.0770856998640E-02
(PID.TID 0000.0001) %MON dynstat_eta_mean             =   2.2684733072917E-15
(PID.TID 0000.0001) %MON dynstat_eta_sd               =   1.3544725941873E-01
(PID.TID 0000.0001) %MON dynstat_eta_del2             =   5.7645775404889E-03
(PID.TID 0000.0001) %MON dynstat_uvel_max             =   1.2855566508284E-01
(PID.TID 0000.0001) %MON dynstat_uvel_min             =  -1.2917114521792E-01
(PID.TID 0000.0001) %MON dynstat_uvel_mean            =   9.0860537730215E-05
(PID.TID 0000.0001) %MON dynstat_uvel_sd              =   1.9370797345339E-02
(PID.TID 0000.0001) %MON dynstat_uvel_del2            =   5.4944803440969E-04
(PID.TID 0000.0001) %MON dynstat_vvel_max             =   5.3197823702738E-03
(PID.TID 0000.0001) %MON dynstat_vvel_min             =  -5.6149310787944E-03
(PID.TID 0000.0001) %MON dynstat_vvel_mean            =   5.7839521690347E-05
(PID.TID 0000.0001) %MON dynstat_vvel_sd              =   8.9071396718769E-04
(PID.TID 0000.0001) %MON dynstat_vvel_del2            =   7.1630287897961E-05
(PID.TID 0000.0001) %MON dynstat_wvel_max             =   1.8135505313130E-05
(PID.TID 0000.0001) %MON dynstat_wvel_min             =  -1.2413152895228E-05
(PID.TID 0000.0001) %MON dynstat_wvel_mean            =   1.5381208717934E-23
(PID.TID 0000.0001) %MON dynstat_wvel_sd              =   4.8465761605333E-06
(PID.TID 0000.0001) %MON dynstat_wvel_del2            =   2.8368195819199E-07
(PID.TID 0000.0001) %MON dynstat_theta_max            =   1.3328753977328E+01
(PID.TID 0000.0001) %MON dynstat_theta_min            =   6.2538430895496E+00
(PID.TID 0000.0001) %MON dynstat_theta_mean           =   8.4641516692874E+00
(PID.TID 0000.0001) %MON dynstat_theta_sd             =   1.4058065161326E+00
(PID.TID 0000.0001) %MON dynstat_theta_del2           =   7.3887864809676E-03
(PID.TID 0000.0001) %MON dynstat_salt_max             =   1.1996746101532E+01
(PID.TID 0000.0001) %MON dynstat_salt_min             =   1.0464130146748E+01
(PID.TID 0000.0001) %MON dynstat_salt_mean            =   1.1308813987606E+01
(PID.TID 0000.0001) %MON dynstat_salt_sd              =   5.1708412771582E-01
(PID.TID 0000.0001) %MON dynstat_salt_del2            =   5.6553049058291E-04
(PID.TID 0000.0001) %MON advcfl_uvel_max              =   4.6501612278452E-03
(PID.TID 0000.0001) %MON advcfl_vvel_max              =   2.0213751883660E-04
(PID.TID 0000.0001) %MON advcfl_wvel_max              =   1.8052524471442E-03
(PID.TID 0000.0001) %MON advcfl_W_hf_max              =   1.9560710530417E-03
(PID.TID 0000.0001) %MON pe_b_mean                    =   5.2952858568557E-05
(PID.TID 0000.0001) %MON ke_max                       =   8.3474075399713E-03
(PID.TID 0000.0001) %MON ke_mean                      =   1.8800075554547E-04
(PID.TID 0000.0001) %MON ke_vol                       =   5.0981346415358E+14
(PID.TID 0000.0001) // =======================================================
(PID.TID 0000.0001) // End MONITOR dynamic field statistics
(PID.TID 0000.0001) // =======================================================
 cg2d: Sum(rhs),rhsMax =  -2.80366008187372E-14  9.09287786137151E-01
(PID.TID 0000.0001)      cg2d_init_res =   1.50661986602148E-03
(PID.TID 0000.0001)      cg2d_iters(min,last) =      -1      27
(PID.TID 0000.0001)      cg2d_last_res =   5.45495214194623E-14
(PID.TID 0000.0001) // =======================================================
(PID.TID 0000.0001) // Begin MONITOR dynamic field statistics
(PID.TID 0000.0001) // =======================================================
(PID.TID 0000.0001) %MON time_tsnumber                =                    18
(PID.TID 0000.0001) %MON time_secondsf                =   6.4800000000000E+04
(PID.TID 0000.0001) %MON dynstat_eta_max              =   3.5855337473346E-01
(PID.TID 0000.0001) %MON dynstat_eta_min              =  -8.1227396374414E-02
(PID.TID 0000.0001) %MON dynstat_eta_mean             =   2.2376378377279E-15
(PID.TID 0000.0001) %MON dynstat_eta_sd               =   1.3538045857463E-01
(PID.TID 0000.0001) %MON dynstat_eta_del2             =   5.7644218968836E-03
(PID.TID 0000.0001) %MON dynstat_uvel_max             =   1.2826011529098E-01
(PID.TID 0000.0001) %MON dynstat_uvel_min             =  -1.2877315363916E-01
(PID.TID 0000.0001) %MON dynstat_uvel_mean            =   1.1895643788699E-04
(PID.TID 0000.0001) %MON dynstat_uvel_sd              =   1.9374105049727E-02
(PID.TID 0000.0001) %MON dynstat_uvel_del2            =   5.4097639579981E-04
(PID.TID 0000.0001) %MON dynstat_vvel_max             =   5.4492467017902E-03
(PID.TID 0000.0001) %MON dynstat_vvel_min             =  -5.6907449774248E-03
(PID.TID 0000.0001) %MON dynstat_vvel_mean            =   6.7752030282910E-05
(PID.TID 0000.0001) %MON dynstat_vvel_sd              =   6.8921613827900E-04
(PID.TID 0000.0001) %MON dynstat_vvel_del2            =   6.3752150182505E-05
(PID.TID 0000.0001) %MON dynstat_wvel_max             =   1.1425723687828E-05
(PID.TID 0000.0001) %MON dynstat_wvel_min             =  -1.3751689444506E-05
(PID.TID 0000.0001) %MON dynstat_wvel_mean            =  -2.3071813076902E-23
(PID.TID 0000.0001) %MON dynstat_wvel_sd              =   3.9160245607450E-06
(PID.TID 0000.0001) %MON dynstat_wvel_del2            =   2.7908586121075E-07
(PID.TID 0000.0001) %MON dynstat_theta_max            =   1.3328991387194E+01
(PID.TID 0000.0001) %MON dynstat_theta_min            =   6.2538435196060E+00
(PID.TID 0000.0001) %MON dynstat_theta_mean           =   8.4641517058035E+00
(PID.TID 0000.0001) %MON dynstat_theta_sd             =   1.4058062475541E+00
(PID.TID 0000.0001) %MON dynstat_theta_del2           =   7.3877928978982E-03
(PID.TID 0000.0001) %MON dynstat_salt_max             =   1.1996757254272E+01
(PID.TID 0000.0001) %MON dynstat_salt_min             =   1.0464161211764E+01
(PID.TID 0000.0001) %MON dynstat_salt_mean            =   1.1308814008862E+01
(PID.TID 0000.0001) %MON dynstat_salt_sd              =   5.1707607644498E-01
(PID.TID 0000.0001) %MON dynstat_salt_del2            =   5.6561569971729E-04
(PID.TID 0000.0001) %MON advcfl_uvel_max              =   4.6358335310097E-03
(PID.TID 0000.0001) %MON advcfl_vvel_max              =   2.0486681918729E-04
(PID.TID 0000.0001) %MON advcfl_wvel_max              =   1.2918457940880E-03
(PID.TID 0000.0001) %MON advcfl_W_hf_max              =   1.4026532700683E-03
(PID.TID 0000.0001) %MON pe_b_mean                    =   5.2900640112601E-05
(PID.TID 0000.0001) %MON ke_max                       =   8.2917120549520E-03
(PID.TID 0000.0001) %MON ke_mean                      =   1.8791544685971E-04
(PID.TID 0000.0001) %MON ke_vol                       =   5.0981346415358E+14
(PID.TID 0000.0001) // =======================================================
(PID.TID 0000.0001) // End MONITOR dynamic field statistics
(PID.TID 0000.0001) // =======================================================
 cg2d: Sum(rhs),rhsMax =  -2.85778345432419E-14  9.08864039362337E-01
(PID.TID 0000.0001)      cg2d_init_res =   1.38604519890139E-03
(PID.TID 0000.0001)      cg2d_iters(min,last) =      -1      27
(PID.TID 0000.0001)      cg2d_last_res =   6.10151590617974E-14
(PID.TID 0000.0001) // =======================================================
(PID.TID 0000.0001) // Begin MONITOR dynamic field statistics
(PID.TID 0000.0001) // =======================================================
(PID.TID 0000.0001) %MON time_tsnumber                =                    19
(PID.TID 0000.0001) %MON time_secondsf                =   6.8400000000000E+04
(PID.TID 0000.0001) %MON dynstat_eta_max              =   3.5831434653614E-01
(PID.TID 0000.0001) %MON dynstat_eta_min              =  -8.1587989193246E-02
(PID.TID 0000.0001) %MON dynstat_eta_mean             =   2.7186075846354E-15
(PID.TID 0000.0001) %MON dynstat_eta_sd               =   1.3529008790754E-01
(PID.TID 0000.0001) %MON dynstat_eta_del2             =   5.7635831603016E-03
(PID.TID 0000.0001) %MON dynstat_uvel_max             =   1.2896689237057E-01
(PID.TID 0000.0001) %MON dynstat_uvel_min             =  -1.2946537190915E-01
(PID.TID 0000.0001) %MON dynstat_uvel_mean            =   1.4462086243580E-04
(PID.TID 0000.0001) %MON dynstat_uvel_sd              =   1.9512346850523E-02
(PID.TID 0000.0001) %MON dynstat_uvel_del2            =   5.3893707916932E-04
(PID.TID 0000.0001) %MON dynstat_vvel_max             =   5.0678221029180E-03
(PID.TID 0000.0001) %MON dynstat_vvel_min             =  -5.2817042574842E-03
(PID.TID 0000.0001) %MON dynstat_vvel_mean            =   5.3965626493961E-05
(PID.TID 0000.0001) %MON dynstat_vvel_sd              =   8.8575765085862E-04
(PID.TID 0000.0001) %MON dynstat_vvel_del2            =   6.4535940433727E-05
(PID.TID 0000.0001) %MON dynstat_wvel_max             =   1.1465750182532E-05
(PID.TID 0000.0001) %MON dynstat_wvel_min             =  -1.7697938664841E-05
(PID.TID 0000.0001) %MON dynstat_wvel_mean            =  -1.3074027410244E-22
(PID.TID 0000.0001) %MON dynstat_wvel_sd              =   4.1651080328779E-06
(PID.TID 0000.0001) %MON dynstat_wvel_del2            =   2.9506264060838E-07
(PID.TID 0000.0001) %MON dynstat_theta_max            =   1.3329275713473E+01
(PID.TID 0000.0001) %MON dynstat_theta_min            =   6.2538439440385E+00
(PID.TID 0000.0001) %MON dynstat_theta_mean           =   8.4641518120804E+00
(PID.TID 0000.0001) %MON dynstat_theta_sd             =   1.4058061034379E+00
(PID.TID 0000.0001) %MON dynstat_theta_del2           =   7.3863014979502E-03
(PID.TID 0000.0001) %MON dynstat_salt_max             =   1.1996770308093E+01
(PID.TID 0000.0001) %MON dynstat_salt_min             =   1.0464193105996E+01
(PID.TID 0000.0001) %MON dynstat_salt_mean            =   1.1308814073377E+01
(PID.TID 0000.0001) %MON dynstat_salt_sd              =   5.1706802211130E-01
(PID.TID 0000.0001) %MON dynstat_salt_del2            =   5.6569614818372E-04
(PID.TID 0000.0001) %MON advcfl_uvel_max              =   4.6607533887295E-03
(PID.TID 0000.0001) %MON advcfl_vvel_max              =   1.9014135326943E-04
(PID.TID 0000.0001) %MON advcfl_wvel_max              =   1.6758913822390E-03
(PID.TID 0000.0001) %MON advcfl_W_hf_max              =   1.8191568014269E-03
(PID.TID 0000.0001) %MON pe_b_mean                    =   5.2830038039518E-05
(PID.TID 0000.0001) %MON ke_max                       =   8.3849619427199E-03
(PID.TID 0000.0001) %MON ke_mean                      =   1.9075459247315E-04
(PID.TID 0000.0001) %MON ke_vol                       =   5.0981346415358E+14
(PID.TID 0000.0001) // =======================================================
(PID.TID 0000.0001) // End MONITOR dynamic field statistics
(PID.TID 0000.0001) // =======================================================
 cg2d: Sum(rhs),rhsMax =  -3.42191552871185E-14  9.08198120837156E-01
(PID.TID 0000.0001)      cg2d_init_res =   1.23761664651050E-03
(PID.TID 0000.0001)      cg2d_iters(min,last) =      -1      27
(PID.TID 0000.0001)      cg2d_last_res =   4.13723913860981E-14
(PID.TID 0000.0001) // =======================================================
(PID.TID 0000.0001) // Begin MONITOR dynamic field statistics
(PID.TID 0000.0001) // =======================================================
(PID.TID 0000.0001) %MON time_tsnumber                =                    20
(PID.TID 0000.0001) %MON time_secondsf                =   7.2000000000000E+04
(PID.TID 0000.0001) %MON dynstat_eta_max              =   3.5816526981949E-01
(PID.TID 0000.0001) %MON dynstat_eta_min              =  -8.1765656315423E-02
(PID.TID 0000.0001) %MON dynstat_eta_mean             =   2.9894510904948E-15
(PID.TID 0000.0001) %MON dynstat_eta_sd               =   1.3524611793959E-01
(PID.TID 0000.0001) %MON dynstat_eta_del2             =   5.7622363945674E-03
(PID.TID 0000.0001) %MON dynstat_uvel_max             =   1.3052405257821E-01
(PID.TID 0000.0001) %MON dynstat_uvel_min             =  -1.3110638137512E-01
(PID.TID 0000.0001) %MON dynstat_uvel_mean            =   1.6025476619483E-04
(PID.TID 0000.0001) %MON dynstat_uvel_sd              =   1.9763863269556E-02
(PID.TID 0000.0001) %MON dynstat_uvel_del2            =   5.4325637022077E-04
(PID.TID 0000.0001) %MON dynstat_vvel_max             =   6.0711845617802E-03
(PID.TID 0000.0001) %MON dynstat_vvel_min             =  -6.4176012624497E-03
(PID.TID 0000.0001) %MON dynstat_vvel_mean            =   2.5795132429115E-05
(PID.TID 0000.0001) %MON dynstat_vvel_sd              =   1.2339228977847E-03
(PID.TID 0000.0001) %MON dynstat_vvel_del2            =   7.3557869991567E-05
(PID.TID 0000.0001) %MON dynstat_wvel_max             =   2.0612854359056E-05
(PID.TID 0000.0001) %MON dynstat_wvel_min             =  -2.0109289465236E-05
(PID.TID 0000.0001) %MON dynstat_wvel_mean            =  -1.4035352955115E-22
(PID.TID 0000.0001) %MON dynstat_wvel_sd              =   5.2941399137580E-06
(PID.TID 0000.0001) %MON dynstat_wvel_del2            =   3.2655478696512E-07
(PID.TID 0000.0001) %MON dynstat_theta_max            =   1.3329607496335E+01
(PID.TID 0000.0001) %MON dynstat_theta_min            =   6.2538443980743E+00
(PID.TID 0000.0001) %MON dynstat_theta_mean           =   8.4641518883518E+00
(PID.TID 0000.0001) %MON dynstat_theta_sd             =   1.4058058925688E+00
(PID.TID 0000.0001) %MON dynstat_theta_del2           =   7.3843583520074E-03
(PID.TID 0000.0001) %MON dynstat_salt_max             =   1.1996785273793E+01
(PID.TID 0000.0001) %MON dynstat_salt_min             =   1.0464225597508E+01
(PID.TID 0000.0001) %MON dynstat_salt_mean            =   1.1308814118693E+01
(PID.TID 0000.0001) %MON dynstat_salt_sd              =   5.1705996878295E-01
(PID.TID 0000.0001) %MON dynstat_salt_del2            =   5.6578373552259E-04
(PID.TID 0000.0001) %MON advcfl_uvel_max              =   4.7198297295044E-03
(PID.TID 0000.0001) %MON advcfl_vvel_max              =   2.3103364544819E-04
(PID.TID 0000.0001) %MON advcfl_wvel_max              =   1.9168943209584E-03
(PID.TID 0000.0001) %MON advcfl_W_hf_max              =   2.0805757332463E-03
(PID.TID 0000.0001) %MON pe_b_mean                    =   5.2795703556747E-05
(PID.TID 0000.0001) %MON ke_max                       =   8.6079340212856E-03
(PID.TID 0000.0001) %MON ke_mean                      =   1.9604972773652E-04
(PID.TID 0000.0001) %MON ke_vol                       =   5.0981346415358E+14
(PID.TID 0000.0001) // =======================================================
(PID.TID 0000.0001) // End MONITOR dynamic field statistics
(PID.TID 0000.0001) // =======================================================
 cg2d: Sum(rhs),rhsMax =  -3.79661579952284E-14  9.07348796510597E-01
(PID.TID 0000.0001)      cg2d_init_res =   1.50148710140931E-03
(PID.TID 0000.0001)      cg2d_iters(min,last) =      -1      28
(PID.TID 0000.0001)      cg2d_last_res =   7.81612855682958E-17
(PID.TID 0000.0001) // =======================================================
(PID.TID 0000.0001) // Begin MONITOR dynamic field statistics
(PID.TID 0000.0001) // =======================================================
(PID.TID 0000.0001) %MON time_tsnumber                =                    21
(PID.TID 0000.0001) %MON time_secondsf                =   7.5600000000000E+04
(PID.TID 0000.0001) %MON dynstat_eta_max              =   3.5813097040728E-01
(PID.TID 0000.0001) %MON dynstat_eta_min              =  -8.1744089283648E-02
(PID.TID 0000.0001) %MON dynstat_eta_mean             =   3.0008951822917E-15
(PID.TID 0000.0001) %MON dynstat_eta_sd               =   1.3525740066180E-01
(PID.TID 0000.0001) %MON dynstat_eta_del2             =   5.7605429121714E-03
(PID.TID 0000.0001) %MON dynstat_uvel_max             =   1.3267995328580E-01
(PID.TID 0000.0001) %MON dynstat_uvel_min             =  -1.3343305213198E-01
(PID.TID 0000.0001) %MON dynstat_uvel_mean            =   1.6289328639967E-04
(PID.TID 0000.0001) %MON dynstat_uvel_sd              =   2.0095893437442E-02
(PID.TID 0000.0001) %MON dynstat_uvel_del2            =   5.5318587904225E-04
(PID.TID 0000.0001) %MON dynstat_vvel_max             =   8.5764651773752E-03
(PID.TID 0000.0001) %MON dynstat_vvel_min             =  -9.0734980808826E-03
(PID.TID 0000.0001) %MON dynstat_vvel_mean            =  -4.8580007107100E-06
(PID.TID 0000.0001) %MON dynstat_vvel_sd              =   1.5195929361244E-03
(PID.TID 0000.0001) %MON dynstat_vvel_del2            =   8.5540182185724E-05
(PID.TID 0000.0001) %MON dynstat_wvel_max             =   2.7662144945492E-05
(PID.TID 0000.0001) %MON dynstat_wvel_min             =  -2.0732783567490E-05
(PID.TID 0000.0001) %MON dynstat_wvel_mean            =   4.4701637836497E-23
(PID.TID 0000.0001) %MON dynstat_wvel_sd              =   6.4950784347804E-06
(PID.TID 0000.0001) %MON dynstat_wvel_del2            =   3.6268337439586E-07
(PID.TID 0000.0001) %MON dynstat_theta_max            =   1.3330017670797E+01
(PID.TID 0000.0001) %MON dynstat_theta_min            =   6.2538449003015E+00
(PID.TID 0000.0001) %MON dynstat_theta_mean           =   8.4641519002672E+00
(PID.TID 0000.0001) %MON dynstat_theta_sd             =   1.4058055480912E+00
(PID.TID 0000.0001) %MON dynstat_theta_del2           =   7.3820677558533E-03
(PID.TID 0000.0001) %MON dynstat_salt_max             =   1.1996803365730E+01
(PID.TID 0000.0001) %MON dynstat_salt_min             =   1.0464258528556E+01
(PID.TID 0000.0001) %MON dynstat_salt_mean            =   1.1308814123639E+01
(PID.TID 0000.0001) %MON dynstat_salt_sd              =   5.1705191734984E-01
(PID.TID 0000.0001) %MON dynstat_salt_del2            =   5.6587090731151E-04
(PID.TID 0000.0001) %MON advcfl_uvel_max              =   4.8035898767512E-03
(PID.TID 0000.0001) %MON advcfl_vvel_max              =   3.2664593091177E-04
(PID.TID 0000.0001) %MON advcfl_wvel_max              =   2.5420359151256E-03
(PID.TID 0000.0001) %MON advcfl_W_hf_max              =   2.7665677236652E-03
(PID.TID 0000.0001) %MON pe_b_mean                    =   5.2804512742736E-05
(PID.TID 0000.0001) %MON ke_max                       =   8.9247726742593E-03
(PID.TID 0000.0001) %MON ke_mean                      =   2.0304503800119E-04
(PID.TID 0000.0001) %MON ke_vol                       =   5.0981346415358E+14
(PID.TID 0000.0001) // =======================================================
(PID.TID 0000.0001) // End MONITOR dynamic field statistics
(PID.TID 0000.0001) // =======================================================
 cg2d: Sum(rhs),rhsMax =  -3.83582055007992E-14  9.06340975600947E-01
(PID.TID 0000.0001)      cg2d_init_res =   1.91995633688459E-03
(PID.TID 0000.0001)      cg2d_iters(min,last) =      -1      28
(PID.TID 0000.0001)      cg2d_last_res =   1.78215791755740E-16
(PID.TID 0000.0001) // =======================================================
(PID.TID 0000.0001) // Begin MONITOR dynamic field statistics
(PID.TID 0000.0001) // =======================================================
(PID.TID 0000.0001) %MON time_tsnumber                =                    22
(PID.TID 0000.0001) %MON time_secondsf                =   7.9200000000000E+04
(PID.TID 0000.0001) %MON dynstat_eta_max              =   3.5815899989656E-01
(PID.TID 0000.0001) %MON dynstat_eta_min              =  -8.1571803476017E-02
(PID.TID 0000.0001) %MON dynstat_eta_mean             =   3.1992594401042E-15
(PID.TID 0000.0001) %MON dynstat_eta_sd               =   1.3529759048798E-01
(PID.TID 0000.0001) %MON dynstat_eta_del2             =   5.7586579745610E-03
(PID.TID 0000.0001) %MON dynstat_uvel_max             =   1.3511814020255E-01
(PID.TID 0000.0001) %MON dynstat_uvel_min             =  -1.3609793843103E-01
(PID.TID 0000.0001) %MON dynstat_uvel_mean            =   1.5426910799766E-04
(PID.TID 0000.0001) %MON dynstat_uvel_sd              =   2.0467330025507E-02
(PID.TID 0000.0001) %MON dynstat_uvel_del2            =   5.6737847540303E-04
(PID.TID 0000.0001) %MON dynstat_vvel_max             =   1.0148545672869E-02
(PID.TID 0000.0001) %MON dynstat_vvel_min             =  -1.0726341478924E-02
(PID.TID 0000.0001) %MON dynstat_vvel_mean            =  -2.7611633888870E-05
(PID.TID 0000.0001) %MON dynstat_vvel_sd              =   1.6650784593823E-03
(PID.TID 0000.0001) %MON dynstat_vvel_del2            =   9.5645577710531E-05
(PID.TID 0000.0001) %MON dynstat_wvel_max             =   3.1766445055749E-05
(PID.TID 0000.0001) %MON dynstat_wvel_min             =  -1.9508116824429E-05
(PID.TID 0000.0001) %MON dynstat_wvel_mean            =   4.2298323974320E-23
(PID.TID 0000.0001) %MON dynstat_wvel_sd              =   7.3122126677209E-06
(PID.TID 0000.0001) %MON dynstat_wvel_del2            =   3.9318337094819E-07
(PID.TID 0000.0001) %MON dynstat_theta_max            =   1.3330461928816E+01
(PID.TID 0000.0001) %MON dynstat_theta_min            =   6.2538454557235E+00
(PID.TID 0000.0001) %MON dynstat_theta_mean           =   8.4641518668671E+00
(PID.TID 0000.0001) %MON dynstat_theta_sd             =   1.4058051043947E+00
(PID.TID 0000.0001) %MON dynstat_theta_del2           =   7.3795824903124E-03
(PID.TID 0000.0001) %MON dynstat_salt_max             =   1.1996822749496E+01
(PID.TID 0000.0001) %MON dynstat_salt_min             =   1.0464291821630E+01
(PID.TID 0000.0001) %MON dynstat_salt_mean            =   1.1308814100605E+01
(PID.TID 0000.0001) %MON dynstat_salt_sd              =   5.1704386733022E-01
(PID.TID 0000.0001) %MON dynstat_salt_del2            =   5.6596324039204E-04
(PID.TID 0000.0001) %MON advcfl_uvel_max              =   4.8995257835169E-03
(PID.TID 0000.0001) %MON advcfl_vvel_max              =   3.8614829324127E-04
(PID.TID 0000.0001) %MON advcfl_wvel_max              =   2.9787636239223E-03
(PID.TID 0000.0001) %MON advcfl_W_hf_max              =   3.2378678785964E-03
(PID.TID 0000.0001) %MON pe_b_mean                    =   5.2835897635099E-05
(PID.TID 0000.0001) %MON ke_max                       =   9.2879676024412E-03
(PID.TID 0000.0001) %MON ke_mean                      =   2.1079993282761E-04
(PID.TID 0000.0001) %MON ke_vol                       =   5.0981346415358E+14
(PID.TID 0000.0001) // =======================================================
(PID.TID 0000.0001) // End MONITOR dynamic field statistics
(PID.TID 0000.0001) // =======================================================
 cg2d: Sum(rhs),rhsMax =  -4.03566069451244E-14  9.05224830171711E-01
(PID.TID 0000.0001)      cg2d_init_res =   2.15492162823889E-03
(PID.TID 0000.0001)      cg2d_iters(min,last) =      -1      28
(PID.TID 0000.0001)      cg2d_last_res =   2.43533162228024E-16
(PID.TID 0000.0001) // =======================================================
(PID.TID 0000.0001) // Begin MONITOR dynamic field statistics
(PID.TID 0000.0001) // =======================================================
(PID.TID 0000.0001) %MON time_tsnumber                =                    23
(PID.TID 0000.0001) %MON time_secondsf                =   8.2800000000000E+04
(PID.TID 0000.0001) %MON dynstat_eta_max              =   3.5818951486549E-01
(PID.TID 0000.0001) %MON dynstat_eta_min              =  -8.1336513748824E-02
(PID.TID 0000.0001) %MON dynstat_eta_mean             =   3.1652450561523E-15
(PID.TID 0000.0001) %MON dynstat_eta_sd               =   1.3533842959069E-01
(PID.TID 0000.0001) %MON dynstat_eta_del2             =   5.7567518073119E-03
(PID.TID 0000.0001) %MON dynstat_uvel_max             =   1.3749732218998E-01
(PID.TID 0000.0001) %MON dynstat_uvel_min             =  -1.3871679874852E-01
(PID.TID 0000.0001) %MON dynstat_uvel_mean            =   1.3940499637247E-04
(PID.TID 0000.0001) %MON dynstat_uvel_sd              =   2.0832319658439E-02
(PID.TID 0000.0001) %MON dynstat_uvel_del2            =   5.8402028535310E-04
(PID.TID 0000.0001) %MON dynstat_vvel_max             =   1.0662460634335E-02
(PID.TID 0000.0001) %MON dynstat_vvel_min             =  -1.1232180949879E-02
(PID.TID 0000.0001) %MON dynstat_vvel_mean            =  -3.6661396914138E-05
(PID.TID 0000.0001) %MON dynstat_vvel_sd              =   1.6491605553088E-03
(PID.TID 0000.0001) %MON dynstat_vvel_del2            =   1.0111203564085E-04
(PID.TID 0000.0001) %MON dynstat_wvel_max             =   3.2578190259558E-05
(PID.TID 0000.0001) %MON dynstat_wvel_min             =  -1.6573939357652E-05
(PID.TID 0000.0001) %MON dynstat_wvel_mean            =  -1.6150269153831E-22
(PID.TID 0000.0001) %MON dynstat_wvel_sd              =   7.5633376582548E-06
(PID.TID 0000.0001) %MON dynstat_wvel_del2            =   4.1115677305677E-07
(PID.TID 0000.0001) %MON dynstat_theta_max            =   1.3330946409562E+01
(PID.TID 0000.0001) %MON dynstat_theta_min            =   6.2538460648122E+00
(PID.TID 0000.0001) %MON dynstat_theta_mean           =   8.4641518227076E+00
(PID.TID 0000.0001) %MON dynstat_theta_sd             =   1.4058046264577E+00
(PID.TID 0000.0001) %MON dynstat_theta_del2           =   7.3770698537931E-03
(PID.TID 0000.0001) %MON dynstat_salt_max             =   1.1996843639349E+01
(PID.TID 0000.0001) %MON dynstat_salt_min             =   1.0464325465593E+01
(PID.TID 0000.0001) %MON dynstat_salt_mean            =   1.1308814071531E+01
(PID.TID 0000.0001) %MON dynstat_salt_sd              =   5.1703581698983E-01
(PID.TID 0000.0001) %MON dynstat_salt_del2            =   5.6605327586218E-04
(PID.TID 0000.0001) %MON advcfl_uvel_max              =   4.9938047549467E-03
(PID.TID 0000.0001) %MON advcfl_vvel_max              =   4.0435851419564E-04
(PID.TID 0000.0001) %MON advcfl_wvel_max              =   3.1026582138520E-03
(PID.TID 0000.0001) %MON advcfl_W_hf_max              =   3.3695156841065E-03
(PID.TID 0000.0001) %MON pe_b_mean                    =   5.2867799109473E-05
(PID.TID 0000.0001) %MON ke_max                       =   9.6448312013963E-03
(PID.TID 0000.0001) %MON ke_mean                      =   2.1830965843409E-04
(PID.TID 0000.0001) %MON ke_vol                       =   5.0981346415358E+14
(PID.TID 0000.0001) // =======================================================
(PID.TID 0000.0001) // End MONITOR dynamic field statistics
(PID.TID 0000.0001) // =======================================================
 cg2d: Sum(rhs),rhsMax =  -4.06549793829925E-14  9.04072288959572E-01
(PID.TID 0000.0001)      cg2d_init_res =   2.17374940254599E-03
(PID.TID 0000.0001)      cg2d_iters(min,last) =      -1      28
(PID.TID 0000.0001)      cg2d_last_res =   2.92870106886965E-16
(PID.TID 0000.0001) // =======================================================
(PID.TID 0000.0001) // Begin MONITOR dynamic field statistics
(PID.TID 0000.0001) // =======================================================
(PID.TID 0000.0001) %MON time_tsnumber                =                    24
(PID.TID 0000.0001) %MON time_secondsf                =   8.6400000000000E+04
(PID.TID 0000.0001) %MON dynstat_eta_max              =   3.5819247217461E-01
(PID.TID 0000.0001) %MON dynstat_eta_min              =  -8.1129489623331E-02
(PID.TID 0000.0001) %MON dynstat_eta_mean             =   3.2215118408203E-15
(PID.TID 0000.0001) %MON dynstat_eta_sd               =   1.3536663684188E-01
(PID.TID 0000.0001) %MON dynstat_eta_del2             =   5.7550062939259E-03
(PID.TID 0000.0001) %MON dynstat_uvel_max             =   1.3949303553711E-01
(PID.TID 0000.0001) %MON dynstat_uvel_min             =  -1.4092068085186E-01
(PID.TID 0000.0001) %MON dynstat_uvel_mean            =   1.2436714191045E-04
(PID.TID 0000.0001) %MON dynstat_uvel_sd              =   2.1145283229176E-02
(PID.TID 0000.0001) %MON dynstat_uvel_del2            =   6.0102728863774E-04
(PID.TID 0000.0001) %MON dynstat_vvel_max             =   1.0106873150364E-02
(PID.TID 0000.0001) %MON dynstat_vvel_min             =  -1.0583327235746E-02
(PID.TID 0000.0001) %MON dynstat_vvel_mean            =  -3.1864589650228E-05
(PID.TID 0000.0001) %MON dynstat_vvel_sd              =   1.4869314121682E-03
(PID.TID 0000.0001) %MON dynstat_vvel_del2            =   1.0092951649795E-04
(PID.TID 0000.0001) %MON dynstat_wvel_max             =   3.0129478638011E-05
(PID.TID 0000.0001) %MON dynstat_wvel_min             =  -1.5342385650188E-05
(PID.TID 0000.0001) %MON dynstat_wvel_mean            =   1.0766846102554E-22
(PID.TID 0000.0001) %MON dynstat_wvel_sd              =   7.2308047662157E-06
(PID.TID 0000.0001) %MON dynstat_wvel_del2            =   4.1345472111052E-07
(PID.TID 0000.0001) %MON dynstat_theta_max            =   1.3331463425589E+01
(PID.TID 0000.0001) %MON dynstat_theta_min            =   6.2538467264797E+00
(PID.TID 0000.0001) %MON dynstat_theta_mean           =   8.4641517902033E+00
(PID.TID 0000.0001) %MON dynstat_theta_sd             =   1.4058041563335E+00
(PID.TID 0000.0001) %MON dynstat_theta_del2           =   7.3746961230282E-03
(PID.TID 0000.0001) %MON dynstat_salt_max             =   1.1996865692190E+01
(PID.TID 0000.0001) %MON dynstat_salt_min             =   1.0464359479571E+01
(PID.TID 0000.0001) %MON dynstat_salt_mean            =   1.1308814050534E+01
(PID.TID 0000.0001) %MON dynstat_salt_sd              =   5.1702776579434E-01
(PID.TID 0000.0001) %MON dynstat_salt_del2            =   5.6614247082325E-04
(PID.TID 0000.0001) %MON advcfl_uvel_max              =   5.0731445106671E-03
(PID.TID 0000.0001) %MON advcfl_vvel_max              =   3.8099978048685E-04
(PID.TID 0000.0001) %MON advcfl_wvel_max              =   2.9137500038233E-03
(PID.TID 0000.0001) %MON advcfl_W_hf_max              =   3.1616438746929E-03
(PID.TID 0000.0001) %MON pe_b_mean                    =   5.2889838831637E-05
(PID.TID 0000.0001) %MON ke_max                       =   9.9447338122160E-03
(PID.TID 0000.0001) %MON ke_mean                      =   2.2463184286706E-04
(PID.TID 0000.0001) %MON ke_vol                       =   5.0981346415358E+14
(PID.TID 0000.0001) // =======================================================
(PID.TID 0000.0001) // End MONITOR dynamic field statistics
(PID.TID 0000.0001) // =======================================================
 cg2d: Sum(rhs),rhsMax =  -4.13141743038636E-14  9.02981098316427E-01
(PID.TID 0000.0001)      cg2d_init_res =   2.02239326598048E-03
(PID.TID 0000.0001)      cg2d_iters(min,last) =      -1      28
(PID.TID 0000.0001)      cg2d_last_res =   3.21834814696140E-16
(PID.TID 0000.0001) // =======================================================
(PID.TID 0000.0001) // Begin MONITOR dynamic field statistics
(PID.TID 0000.0001) // =======================================================
(PID.TID 0000.0001) %MON time_tsnumber                =                    25
(PID.TID 0000.0001) %MON time_secondsf                =   9.0000000000000E+04
(PID.TID 0000.0001) %MON dynstat_eta_max              =   3.5816991360700E-01
(PID.TID 0000.0001) %MON dynstat_eta_min              =  -8.1013927677452E-02
(PID.TID 0000.0001) %MON dynstat_eta_mean             =   3.3092498779297E-15
(PID.TID 0000.0001) %MON dynstat_eta_sd               =   1.3538321847268E-01
(PID.TID 0000.0001) %MON dynstat_eta_del2             =   5.7535941945776E-03
(PID.TID 0000.0001) %MON dynstat_uvel_max             =   1.4083702889015E-01
(PID.TID 0000.0001) %MON dynstat_uvel_min             =  -1.4240543240700E-01
(PID.TID 0000.0001) %MON dynstat_uvel_mean            =   1.1406140311126E-04
(PID.TID 0000.0001) %MON dynstat_uvel_sd              =   2.1366880494309E-02
(PID.TID 0000.0001) %MON dynstat_uvel_del2            =   6.1629066775024E-04
(PID.TID 0000.0001) %MON dynstat_vvel_max             =   8.5827274614628E-03
(PID.TID 0000.0001) %MON dynstat_vvel_min             =  -8.9037943335238E-03
(PID.TID 0000.0001) %MON dynstat_vvel_mean            =  -1.7723247102501E-05
(PID.TID 0000.0001) %MON dynstat_vvel_sd              =   1.2283607632926E-03
(PID.TID 0000.0001) %MON dynstat_vvel_del2            =   9.5506491824048E-05
(PID.TID 0000.0001) %MON dynstat_wvel_max             =   2.4809483547353E-05
(PID.TID 0000.0001) %MON dynstat_wvel_min             =  -1.3606838240425E-05
(PID.TID 0000.0001) %MON dynstat_wvel_mean            =  -2.3071813076902E-23
(PID.TID 0000.0001) %MON dynstat_wvel_sd              =   6.4289404557389E-06
(PID.TID 0000.0001) %MON dynstat_wvel_del2            =   4.0049205332995E-07
(PID.TID 0000.0001) %MON dynstat_theta_max            =   1.3332004165845E+01
(PID.TID 0000.0001) %MON dynstat_theta_min            =   6.2538474340476E+00
(PID.TID 0000.0001) %MON dynstat_theta_mean           =   8.4641517735166E+00
(PID.TID 0000.0001) %MON dynstat_theta_sd             =   1.4058037021350E+00
(PID.TID 0000.0001) %MON dynstat_theta_del2           =   7.3726047950407E-03
(PID.TID 0000.0001) %MON dynstat_salt_max             =   1.1996888530581E+01
(PID.TID 0000.0001) %MON dynstat_salt_min             =   1.0464393887543E+01
(PID.TID 0000.0001) %MON dynstat_salt_mean            =   1.1308814040152E+01
(PID.TID 0000.0001) %MON dynstat_salt_sd              =   5.1701971389935E-01
(PID.TID 0000.0001) %MON dynstat_salt_del2            =   5.6623167570356E-04
(PID.TID 0000.0001) %MON advcfl_uvel_max              =   5.1265955666521E-03
(PID.TID 0000.0001) %MON advcfl_vvel_max              =   3.2053659600686E-04
(PID.TID 0000.0001) %MON advcfl_wvel_max              =   2.4462648888293E-03
(PID.TID 0000.0001) %MON advcfl_W_hf_max              =   2.6515110977483E-03
(PID.TID 0000.0001) %MON pe_b_mean                    =   5.2902797024504E-05
(PID.TID 0000.0001) %MON ke_max                       =   1.0146051319687E-02
(PID.TID 0000.0001) %MON ke_mean                      =   2.2900328938199E-04
(PID.TID 0000.0001) %MON ke_vol                       =   5.0981346415358E+14
(PID.TID 0000.0001) // =======================================================
(PID.TID 0000.0001) // End MONITOR dynamic field statistics
(PID.TID 0000.0001) // =======================================================
 Computing Diagnostic #     23  ETAN         Counter:       1   Parms: SM      M1      
 Computing Diagnostic #     25  DETADT2      Counter:       1   Parms: SM      M1      
 Computing Diagnostic #     73  PHIBOT       Counter:       1   Parms: SM      M1      
 Computing Diagnostic #     76  MXLDEPTH     Counter:       1   Parms: SM      M1      
 Computing Diagnostic #    211  GM_BVPcW     Counter:       1   Parms: SU P    M1      
 Computing Diagnostic #    212  GM_BVPcS     Counter:       1   Parms: SV P    M1      
 Computing Diagnostic #    194  SubMesLf     Counter:       1   Parms: SM P    M1      
 Computing Diagnostic #    196  SubMpsiY     Counter:       1   Parms: VV      M1      
           Vector  Mate for  SubMpsiY     Diagnostic #    195  SubMpsiX not enabled
 Computing Diagnostic #     77  DRHODR       Counter:       1   Parms: SM      LR      
 Computing Diagnostic #     64  RHOAnoma     Counter:       1   Parms: SMR     MR      
 Computing Diagnostic #    202  GM_Kwy       Counter:       1   Parms: VM      LR      
           Vector  Mate for  GM_Kwy       Diagnostic #    201  GM_Kwx   not enabled
 Computing Diagnostic #    203  GM_Kwz       Counter:       1   Parms: WM P    LR      
 Computing Diagnostic #    198  GM_Kvy       Counter:       1   Parms: VV P    MR      
           Vector  Mate for  GM_Kvy       Diagnostic #    197  GM_Kux   not enabled
 Computing Diagnostic #     26  THETA        Counter:       1   Parms: SMR     MR      
 Computing Diagnostic #    205  GM_PsiY      Counter:       1   Parms: VV      LR      
           Vector  Mate for  GM_PsiY      Diagnostic #    204  GM_PsiX  not enabled
 Computing Diagnostic #    200  GM_Kvz       Counter:       1   Parms: VV      MR      
           Vector  Mate for  GM_Kvz       Diagnostic #    199  GM_Kuz   not enabled
(PID.TID 0000.0001) %CHECKPOINT        25 ckptA
(PID.TID 0000.0001)   Seconds in section "ALL                    [THE_MODEL_MAIN]":
(PID.TID 0000.0001)           User time:   1.0704939463175833
(PID.TID 0000.0001)         System time:   1.2008000165224075E-002
(PID.TID 0000.0001)     Wall clock time:   1.0825679302215576
(PID.TID 0000.0001)          No. starts:           1
(PID.TID 0000.0001)           No. stops:           1
(PID.TID 0000.0001)   Seconds in section "INITIALISE_FIXED       [THE_MODEL_MAIN]":
(PID.TID 0000.0001)           User time:   1.9646000117063522E-002
(PID.TID 0000.0001)         System time:   4.3870001100003719E-003
(PID.TID 0000.0001)     Wall clock time:   2.4048089981079102E-002
(PID.TID 0000.0001)          No. starts:           1
(PID.TID 0000.0001)           No. stops:           1
(PID.TID 0000.0001)   Seconds in section "THE_MAIN_LOOP          [THE_MODEL_MAIN]":
(PID.TID 0000.0001)           User time:   1.0508109852671623
(PID.TID 0000.0001)         System time:   7.6190000399947166E-003
(PID.TID 0000.0001)     Wall clock time:   1.0584909915924072
(PID.TID 0000.0001)          No. starts:           1
(PID.TID 0000.0001)           No. stops:           1
(PID.TID 0000.0001)   Seconds in section "INITIALISE_VARIA    [THE_MAIN_LOOP]":
(PID.TID 0000.0001)           User time:   1.0578999295830727E-002
(PID.TID 0000.0001)         System time:   3.7429998628795147E-003
(PID.TID 0000.0001)     Wall clock time:   1.4330148696899414E-002
(PID.TID 0000.0001)          No. starts:           1
(PID.TID 0000.0001)           No. stops:           1
(PID.TID 0000.0001)   Seconds in section "MAIN LOOP           [THE_MAIN_LOOP]":
(PID.TID 0000.0001)           User time:   1.0402079522609711
(PID.TID 0000.0001)         System time:   3.8720006123185158E-003
(PID.TID 0000.0001)     Wall clock time:   1.0441348552703857
(PID.TID 0000.0001)          No. starts:           1
(PID.TID 0000.0001)           No. stops:           1
(PID.TID 0000.0001)   Seconds in section "MAIN_DO_LOOP        [THE_MAIN_LOOP]":
(PID.TID 0000.0001)           User time:   1.0400171615183353
(PID.TID 0000.0001)         System time:   3.8700001314282417E-003
(PID.TID 0000.0001)     Wall clock time:   1.0439512729644775
(PID.TID 0000.0001)          No. starts:          25
(PID.TID 0000.0001)           No. stops:          25
(PID.TID 0000.0001)   Seconds in section "FORWARD_STEP        [MAIN_DO_LOOP]":
(PID.TID 0000.0001)           User time:   1.0396560132503510
(PID.TID 0000.0001)         System time:   3.8680005818605423E-003
(PID.TID 0000.0001)     Wall clock time:   1.0435812473297119
(PID.TID 0000.0001)          No. starts:          25
(PID.TID 0000.0001)           No. stops:          25
(PID.TID 0000.0001)   Seconds in section "DO_STATEVARS_DIAGS  [FORWARD_STEP]":
(PID.TID 0000.0001)           User time:   1.0957978665828705E-003
(PID.TID 0000.0001)         System time:   4.3999403715133667E-005
(PID.TID 0000.0001)     Wall clock time:   1.1529922485351562E-003
(PID.TID 0000.0001)          No. starts:          50
(PID.TID 0000.0001)           No. stops:          50
(PID.TID 0000.0001)   Seconds in section "LOAD_FIELDS_DRIVER  [FORWARD_STEP]":
(PID.TID 0000.0001)           User time:   5.6307390332221985E-004
(PID.TID 0000.0001)         System time:   5.9995800256729126E-006
(PID.TID 0000.0001)     Wall clock time:   5.6815147399902344E-004
(PID.TID 0000.0001)          No. starts:          25
(PID.TID 0000.0001)           No. stops:          25
(PID.TID 0000.0001)   Seconds in section "EXTERNAL_FLDS_LOAD [LOAD_FLDS_DRIVER]":
(PID.TID 0000.0001)           User time:   1.8898770213127136E-004
(PID.TID 0000.0001)         System time:   2.9997900128364563E-006
(PID.TID 0000.0001)     Wall clock time:   1.9168853759765625E-004
(PID.TID 0000.0001)          No. starts:          25
(PID.TID 0000.0001)           No. stops:          25
(PID.TID 0000.0001)   Seconds in section "DO_ATMOSPHERIC_PHYS [FORWARD_STEP]":
(PID.TID 0000.0001)           User time:   1.9804760813713074E-004
(PID.TID 0000.0001)         System time:   1.9995495676994324E-006
(PID.TID 0000.0001)     Wall clock time:   2.0098686218261719E-004
(PID.TID 0000.0001)          No. starts:          25
(PID.TID 0000.0001)           No. stops:          25
(PID.TID 0000.0001)   Seconds in section "DO_OCEANIC_PHYS     [FORWARD_STEP]":
(PID.TID 0000.0001)           User time:  0.23623800277709961
(PID.TID 0000.0001)         System time:   0.0000000000000000
(PID.TID 0000.0001)     Wall clock time:  0.23627138137817383
(PID.TID 0000.0001)          No. starts:          25
(PID.TID 0000.0001)           No. stops:          25
(PID.TID 0000.0001)   Seconds in section "THERMODYNAMICS      [FORWARD_STEP]":
(PID.TID 0000.0001)           User time:  0.34961304441094398
(PID.TID 0000.0001)         System time:   0.0000000000000000
(PID.TID 0000.0001)     Wall clock time:  0.34963631629943848
(PID.TID 0000.0001)          No. starts:          25
(PID.TID 0000.0001)           No. stops:          25
(PID.TID 0000.0001)   Seconds in section "DYNAMICS            [FORWARD_STEP]":
(PID.TID 0000.0001)           User time:  0.31073208525776863
(PID.TID 0000.0001)         System time:   2.2000633180141449E-005
(PID.TID 0000.0001)     Wall clock time:  0.31078600883483887
(PID.TID 0000.0001)          No. starts:          25
(PID.TID 0000.0001)           No. stops:          25
(PID.TID 0000.0001)   Seconds in section "SOLVE_FOR_PRESSURE  [FORWARD_STEP]":
(PID.TID 0000.0001)           User time:   1.9112981855869293E-002
(PID.TID 0000.0001)         System time:   0.0000000000000000
(PID.TID 0000.0001)     Wall clock time:   1.9127368927001953E-002
(PID.TID 0000.0001)          No. starts:          25
(PID.TID 0000.0001)           No. stops:          25
(PID.TID 0000.0001)   Seconds in section "MOM_CORRECTION_STEP [FORWARD_STEP]":
(PID.TID 0000.0001)           User time:   1.3067081570625305E-002
(PID.TID 0000.0001)         System time:   0.0000000000000000
(PID.TID 0000.0001)     Wall clock time:   1.3075113296508789E-002
(PID.TID 0000.0001)          No. starts:          25
(PID.TID 0000.0001)           No. stops:          25
(PID.TID 0000.0001)   Seconds in section "INTEGR_CONTINUITY   [FORWARD_STEP]":
(PID.TID 0000.0001)           User time:   4.4660866260528564E-003
(PID.TID 0000.0001)         System time:   0.0000000000000000
(PID.TID 0000.0001)     Wall clock time:   4.4708251953125000E-003
(PID.TID 0000.0001)          No. starts:          25
(PID.TID 0000.0001)           No. stops:          25
(PID.TID 0000.0001)   Seconds in section "TRC_CORRECTION_STEP [FORWARD_STEP]":
(PID.TID 0000.0001)           User time:   2.8529159724712372E-002
(PID.TID 0000.0001)         System time:   0.0000000000000000
(PID.TID 0000.0001)     Wall clock time:   2.8540849685668945E-002
(PID.TID 0000.0001)          No. starts:          25
(PID.TID 0000.0001)           No. stops:          25
(PID.TID 0000.0001)   Seconds in section "BLOCKING_EXCHANGES  [FORWARD_STEP]":
(PID.TID 0000.0001)           User time:   3.7077911198139191E-002
(PID.TID 0000.0001)         System time:   6.3999556005001068E-005
(PID.TID 0000.0001)     Wall clock time:   3.7151336669921875E-002
(PID.TID 0000.0001)          No. starts:          25
(PID.TID 0000.0001)           No. stops:          25
(PID.TID 0000.0001)   Seconds in section "MONITOR             [FORWARD_STEP]":
(PID.TID 0000.0001)           User time:   2.9527924954891205E-002
(PID.TID 0000.0001)         System time:   0.0000000000000000
(PID.TID 0000.0001)     Wall clock time:   2.9586791992187500E-002
(PID.TID 0000.0001)          No. starts:          25
(PID.TID 0000.0001)           No. stops:          25
(PID.TID 0000.0001)   Seconds in section "DO_THE_MODEL_IO     [FORWARD_STEP]":
(PID.TID 0000.0001)           User time:   4.8641264438629150E-003
(PID.TID 0000.0001)         System time:   3.7080002948641777E-003
(PID.TID 0000.0001)     Wall clock time:   8.5721015930175781E-003
(PID.TID 0000.0001)          No. starts:          25
(PID.TID 0000.0001)           No. stops:          25
(PID.TID 0000.0001)   Seconds in section "DO_WRITE_PICKUP     [FORWARD_STEP]":
(PID.TID 0000.0001)           User time:   1.2200176715850830E-003
(PID.TID 0000.0001)         System time:   1.2000091373920441E-005
(PID.TID 0000.0001)     Wall clock time:   1.2316703796386719E-003
(PID.TID 0000.0001)          No. starts:          25
(PID.TID 0000.0001)           No. stops:          25
(PID.TID 0000.0001) // ======================================================
(PID.TID 0000.0001) // Tile <-> Tile communication statistics
(PID.TID 0000.0001) // ======================================================
(PID.TID 0000.0001) // o Tile number: 000001
(PID.TID 0000.0001) //         No. X exchanges =              0
(PID.TID 0000.0001) //            Max. X spins =              0
(PID.TID 0000.0001) //            Min. X spins =     1000000000
(PID.TID 0000.0001) //          Total. X spins =              0
(PID.TID 0000.0001) //            Avg. X spins =       0.00E+00
(PID.TID 0000.0001) //         No. Y exchanges =              0
(PID.TID 0000.0001) //            Max. Y spins =              0
(PID.TID 0000.0001) //            Min. Y spins =     1000000000
(PID.TID 0000.0001) //          Total. Y spins =              0
(PID.TID 0000.0001) //            Avg. Y spins =       0.00E+00
(PID.TID 0000.0001) // o Tile number: 000002
(PID.TID 0000.0001) //         No. X exchanges =              0
(PID.TID 0000.0001) //            Max. X spins =              0
(PID.TID 0000.0001) //            Min. X spins =     1000000000
(PID.TID 0000.0001) //          Total. X spins =              0
(PID.TID 0000.0001) //            Avg. X spins =       0.00E+00
(PID.TID 0000.0001) //         No. Y exchanges =              0
(PID.TID 0000.0001) //            Max. Y spins =              0
(PID.TID 0000.0001) //            Min. Y spins =     1000000000
(PID.TID 0000.0001) //          Total. Y spins =              0
(PID.TID 0000.0001) //            Avg. Y spins =       0.00E+00
(PID.TID 0000.0001) // o Thread number: 000001
(PID.TID 0000.0001) //            No. barriers =           7704
(PID.TID 0000.0001) //      Max. barrier spins =              1
(PID.TID 0000.0001) //      Min. barrier spins =              1
(PID.TID 0000.0001) //     Total barrier spins =           7704
(PID.TID 0000.0001) //      Avg. barrier spins =       1.00E+00
PROGRAM MAIN: Execution ended Normally
