(PID.TID 0000.0001) 
(PID.TID 0000.0001) // ======================================================
(PID.TID 0000.0001) //                      MITgcm UV
(PID.TID 0000.0001) //                      =========
(PID.TID 0000.0001) // ======================================================
(PID.TID 0000.0001) // execution environment starting up...
(PID.TID 0000.0001) 
(PID.TID 0000.0001) // MITgcmUV version:  checkpoint67h
(PID.TID 0000.0001) // Build user:        jmc
(PID.TID 0000.0001) // Build host:        baudelaire
(PID.TID 0000.0001) // Build date:        Thu Mar 21 23:47:19 EDT 2019
(PID.TID 0000.0001) 
(PID.TID 0000.0001) // =======================================================
(PID.TID 0000.0001) // Execution Environment parameter file "eedata"
(PID.TID 0000.0001) // =======================================================
(PID.TID 0000.0001) ># Example "eedata" file
(PID.TID 0000.0001) ># Lines beginning "#" are comments
(PID.TID 0000.0001) ># nTx - No. threads per process in X
(PID.TID 0000.0001) ># nTy - No. threads per process in Y
(PID.TID 0000.0001) > &EEPARMS
(PID.TID 0000.0001) > nTx=1,
(PID.TID 0000.0001) > nTy=1,
(PID.TID 0000.0001) > /
(PID.TID 0000.0001) ># Note: Some systems use & as the
(PID.TID 0000.0001) ># namelist terminator. Other systems
(PID.TID 0000.0001) ># use a / character (as shown here).
(PID.TID 0000.0001) 
(PID.TID 0000.0001) // =======================================================
(PID.TID 0000.0001) // Computational Grid Specification ( see files "SIZE.h" )
(PID.TID 0000.0001) //                                  ( and "eedata"       )
(PID.TID 0000.0001) // =======================================================
(PID.TID 0000.0001)      nPx =    1 ; /* No. processes in X */
(PID.TID 0000.0001)      nPy =    1 ; /* No. processes in Y */
(PID.TID 0000.0001)      nSx =    1 ; /* No. tiles in X per process */
(PID.TID 0000.0001)      nSy =    2 ; /* No. tiles in Y per process */
(PID.TID 0000.0001)      sNx =    1 ; /* Tile size in X */
(PID.TID 0000.0001)      sNy =   16 ; /* Tile size in Y */
(PID.TID 0000.0001)      OLx =    3 ; /* Tile overlap distance in X */
(PID.TID 0000.0001)      OLy =    3 ; /* Tile overlap distance in Y */
(PID.TID 0000.0001)      nTx =    1 ; /* No. threads in X per process */
(PID.TID 0000.0001)      nTy =    1 ; /* No. threads in Y per process */
(PID.TID 0000.0001)       Nr =   25 ; /* No. levels in the vertical   */
(PID.TID 0000.0001)       Nx =    1 ; /* Total domain size in X ( = nPx*nSx*sNx ) */
(PID.TID 0000.0001)       Ny =   32 ; /* Total domain size in Y ( = nPy*nSy*sNy ) */
(PID.TID 0000.0001)   nTiles =    2 ; /* Total no. tiles per process ( = nSx*nSy ) */
(PID.TID 0000.0001)   nProcs =    1 ; /* Total no. processes ( = nPx*nPy ) */
(PID.TID 0000.0001) nThreads =    1 ; /* Total no. threads per process ( = nTx*nTy ) */
(PID.TID 0000.0001) usingMPI =    F ; /* Flag used to control whether MPI is in use */
(PID.TID 0000.0001)                   /*  note: To execute a program with MPI calls */
(PID.TID 0000.0001)                   /*  it must be launched appropriately e.g     */
(PID.TID 0000.0001)                   /*  "mpirun -np 64 ......"                    */
(PID.TID 0000.0001) useCoupler=    F ;/* Flag used to control communications with   */
(PID.TID 0000.0001)                   /*  other model components, through a coupler */
(PID.TID 0000.0001) useNest2W_parent =    F ;/* Control 2-W Nesting comm */
(PID.TID 0000.0001) useNest2W_child  =    F ;/* Control 2-W Nesting comm */
(PID.TID 0000.0001) debugMode =    F ; /* print debug msg. (sequence of S/R calls)  */
(PID.TID 0000.0001) printMapIncludesZeros=    F ; /* print zeros in Std.Output maps */
(PID.TID 0000.0001) maxLengthPrt1D=   65 /* maxLength of 1D array printed to StdOut */
(PID.TID 0000.0001) 
(PID.TID 0000.0001) // ======================================================
(PID.TID 0000.0001) // Mapping of tiles to threads
(PID.TID 0000.0001) // ======================================================
(PID.TID 0000.0001) // -o- Thread   1, tiles (   1:   1,   1:   2)
(PID.TID 0000.0001) 
(PID.TID 0000.0001) // ======================================================
(PID.TID 0000.0001) // Tile <-> Tile connectvity table
(PID.TID 0000.0001) // ======================================================
(PID.TID 0000.0001) // Tile number: 000001 (process no. = 000000)
(PID.TID 0000.0001) //        WEST: Tile = 000001, Process = 000000, Comm = put
(PID.TID 0000.0001) //                bi = 000001, bj = 000001
(PID.TID 0000.0001) //        EAST: Tile = 000001, Process = 000000, Comm = put
(PID.TID 0000.0001) //                bi = 000001, bj = 000001
(PID.TID 0000.0001) //       SOUTH: Tile = 000002, Process = 000000, Comm = put
(PID.TID 0000.0001) //                bi = 000001, bj = 000002
(PID.TID 0000.0001) //       NORTH: Tile = 000002, Process = 000000, Comm = put
(PID.TID 0000.0001) //                bi = 000001, bj = 000002
(PID.TID 0000.0001) // Tile number: 000002 (process no. = 000000)
(PID.TID 0000.0001) //        WEST: Tile = 000002, Process = 000000, Comm = put
(PID.TID 0000.0001) //                bi = 000001, bj = 000002
(PID.TID 0000.0001) //        EAST: Tile = 000002, Process = 000000, Comm = put
(PID.TID 0000.0001) //                bi = 000001, bj = 000002
(PID.TID 0000.0001) //       SOUTH: Tile = 000001, Process = 000000, Comm = put
(PID.TID 0000.0001) //                bi = 000001, bj = 000001
(PID.TID 0000.0001) //       NORTH: Tile = 000001, Process = 000000, Comm = put
(PID.TID 0000.0001) //                bi = 000001, bj = 000001
(PID.TID 0000.0001) 
(PID.TID 0000.0001)  INI_PARMS: opening model parameter file "data"
(PID.TID 0000.0001)  OPEN_COPY_DATA_FILE: opening file data
(PID.TID 0000.0001) // =======================================================
(PID.TID 0000.0001) // Parameter file "data"
(PID.TID 0000.0001) // =======================================================
(PID.TID 0000.0001) ># ====================
(PID.TID 0000.0001) ># | Model parameters |
(PID.TID 0000.0001) ># ====================
(PID.TID 0000.0001) >#
(PID.TID 0000.0001) ># Continuous equation parameters
(PID.TID 0000.0001) > &PARM01
(PID.TID 0000.0001) > tRef=29., 28., 27., 26., 25., 24., 23., 22., 21., 20., 19., 18.,
(PID.TID 0000.0001) > 17., 16., 15., 14., 13., 12., 11., 10., 09., 07., 08., 06., 05.,
(PID.TID 0000.0001) > viscAr=2.E-4,
(PID.TID 0000.0001) > viscA4=12.E5,
(PID.TID 0000.0001) > no_slip_sides=.FALSE.,
(PID.TID 0000.0001) > no_slip_bottom=.TRUE.,
(PID.TID 0000.0001) > bottomDragLinear=1.E-3,
(PID.TID 0000.0001) >#bottomDragQuadratic=1.E-3,
(PID.TID 0000.0001) >#diffKrT=2.E-5,
(PID.TID 0000.0001) >#diffKrS=2.E-5,
(PID.TID 0000.0001) > diffKrNrT=6*1.E-2, 19*2.E-5,
(PID.TID 0000.0001) > diffKrNrS=6*1.E-2, 19*2.E-5,
(PID.TID 0000.0001) > diffKhT=0.E3,
(PID.TID 0000.0001) > diffKhS=0.E3,
(PID.TID 0000.0001) > beta=0.E-11,
(PID.TID 0000.0001) > f0  =1.E-4,
(PID.TID 0000.0001) > gravity=9.81,
(PID.TID 0000.0001) > eosType='LINEAR',
(PID.TID 0000.0001) > tAlpha=2.E-4,
(PID.TID 0000.0001) > sBeta =0.E-4,
(PID.TID 0000.0001) > rhoConst=1000.,
(PID.TID 0000.0001) > rhoNil=1000.,
(PID.TID 0000.0001) > rigidLid=.FALSE.,
(PID.TID 0000.0001) > implicitFreeSurface=.TRUE.,
(PID.TID 0000.0001) > implicitDiffusion=.TRUE.,
(PID.TID 0000.0001) > hFacMin=.1,
(PID.TID 0000.0001) > hMixCriteria=-0.1,
(PID.TID 0000.0001) >#hMixCriteria=1.5,
(PID.TID 0000.0001) > readBinaryPrec=64,
(PID.TID 0000.0001) > writeBinaryPrec=64,
(PID.TID 0000.0001) > /
(PID.TID 0000.0001) >
(PID.TID 0000.0001) ># Elliptic solver parameters
(PID.TID 0000.0001) > &PARM02
(PID.TID 0000.0001) > cg2dMaxIters=1000,
(PID.TID 0000.0001) > cg2dTargetResidual=1.E-13,
(PID.TID 0000.0001) > /
(PID.TID 0000.0001) >
(PID.TID 0000.0001) ># Time stepping parameters
(PID.TID 0000.0001) > &PARM03
(PID.TID 0000.0001) > startTime=0.,
(PID.TID 0000.0001) >#nTimeSteps=8641,
(PID.TID 0000.0001) > nTimeSteps=25,
(PID.TID 0000.0001) > deltaT=3600.,
(PID.TID 0000.0001) > cAdjFreq=-1.,
(PID.TID 0000.0001) > abEps=0.1,
(PID.TID 0000.0001) > pChkptFreq=0.,
(PID.TID 0000.0001) > chkptFreq =0.,
(PID.TID 0000.0001) > dumpFreq=2592000.,
(PID.TID 0000.0001) >#monitorFreq=864000.,
(PID.TID 0000.0001) > monitorSelect=1,
(PID.TID 0000.0001) > monitorFreq=1.,
(PID.TID 0000.0001) > /
(PID.TID 0000.0001) >
(PID.TID 0000.0001) ># Gridding parameters
(PID.TID 0000.0001) > &PARM04
(PID.TID 0000.0001) > usingCartesianGrid=.TRUE.,
(PID.TID 0000.0001) > delR= 10*20.,  24.,  29.,  35.,  42.,  51.,  61.,  74.,
(PID.TID 0000.0001) >          89., 107., 128., 155., 186., 224., 270., 325.,
(PID.TID 0000.0001) > delX=1*1.E5,
(PID.TID 0000.0001) > delY=32*1.E5,
(PID.TID 0000.0001) > /
(PID.TID 0000.0001) >
(PID.TID 0000.0001) ># Input datasets
(PID.TID 0000.0001) > &PARM05
(PID.TID 0000.0001) > hydrogThetaFile='t_ini.bin',
(PID.TID 0000.0001) > hydrogSaltFile ='s_ini.bin',
(PID.TID 0000.0001) > uVelInitFile   ='u_ini.bin',
(PID.TID 0000.0001) > bathyFile      ='topo_slp.bin',
(PID.TID 0000.0001) > /
(PID.TID 0000.0001) 
(PID.TID 0000.0001)  INI_PARMS ; starts to read PARM01
(PID.TID 0000.0001)  INI_PARMS ; read PARM01 : OK
(PID.TID 0000.0001)  INI_PARMS ; starts to read PARM02
(PID.TID 0000.0001)  INI_PARMS ; read PARM02 : OK
(PID.TID 0000.0001)  INI_PARMS ; starts to read PARM03
(PID.TID 0000.0001)  INI_PARMS ; read PARM03 : OK
(PID.TID 0000.0001)  INI_PARMS ; starts to read PARM04
(PID.TID 0000.0001)  INI_PARMS ; read PARM04 : OK
(PID.TID 0000.0001)  INI_PARMS ; starts to read PARM05
(PID.TID 0000.0001)  INI_PARMS ; read PARM05 : OK
(PID.TID 0000.0001)  INI_PARMS: finished reading file "data"
(PID.TID 0000.0001)  PACKAGES_BOOT: opening data.pkg
(PID.TID 0000.0001)  OPEN_COPY_DATA_FILE: opening file data.pkg
(PID.TID 0000.0001) // =======================================================
(PID.TID 0000.0001) // Parameter file "data.pkg"
(PID.TID 0000.0001) // =======================================================
(PID.TID 0000.0001) ># Packages
(PID.TID 0000.0001) > &PACKAGES
(PID.TID 0000.0001) >  useGMRedi=.TRUE.,
(PID.TID 0000.0001) >  useKPP=.FALSE.,
(PID.TID 0000.0001) >  useDiagnostics=.TRUE.,
(PID.TID 0000.0001) > /
(PID.TID 0000.0001) 
(PID.TID 0000.0001)  PACKAGES_BOOT: finished reading data.pkg
(PID.TID 0000.0001)  PACKAGES_BOOT: On/Off package Summary
 --------  pkgs with a standard "usePKG" On/Off switch in "data.pkg":  --------
 pkg/gmredi               compiled   and   used ( useGMRedi                = T )
 pkg/diagnostics          compiled   and   used ( useDiagnostics           = T )
 -------- pkgs without standard "usePKG" On/Off switch in "data.pkg":  --------
 pkg/generic_advdiff      compiled   and   used ( useGAD                   = T )
 pkg/mom_common           compiled   and   used ( momStepping              = T )
 pkg/mom_vecinv           compiled but not used ( +vectorInvariantMomentum = F )
 pkg/mom_fluxform         compiled   and   used ( & not vectorInvariantMom = T )
 pkg/monitor              compiled   and   used ( monitorFreq > 0.         = T )
 pkg/debug                compiled but not used ( debugMode                = F )
 pkg/rw                   compiled   and   used
 pkg/mdsio                compiled   and   used
(PID.TID 0000.0001)  PACKAGES_BOOT: End of package Summary
(PID.TID 0000.0001) 
(PID.TID 0000.0001)  GM_READPARMS: opening data.gmredi
(PID.TID 0000.0001)  OPEN_COPY_DATA_FILE: opening file data.gmredi
(PID.TID 0000.0001) // =======================================================
(PID.TID 0000.0001) // Parameter file "data.gmredi"
(PID.TID 0000.0001) // =======================================================
(PID.TID 0000.0001) ># GM-Redi parameters
(PID.TID 0000.0001) > &GM_PARM01
(PID.TID 0000.0001) > GM_AdvForm=.TRUE.,
(PID.TID 0000.0001) > GM_useBVP = .TRUE.,
(PID.TID 0000.0001) >#GM_BVP_modeNumber=5,
(PID.TID 0000.0001) > GM_background_K=1000.,
(PID.TID 0000.0001) > GM_taper_scheme='linear',
(PID.TID 0000.0001) > GM_maxSlope    =1.E-02,
(PID.TID 0000.0001) > GM_facTrL2dz   = 0.,
(PID.TID 0000.0001) >#GM_facTrL2ML   = 5.,
(PID.TID 0000.0001) >#GM_maxTransLay = 500.,
(PID.TID 0000.0001) > GM_useSubMeso = .TRUE.,
(PID.TID 0000.0001) >#subMeso_Ceff  = 5.e-2,
(PID.TID 0000.0001) >#subMeso_LfMin = 5.e+3,
(PID.TID 0000.0001) > /
(PID.TID 0000.0001) >
(PID.TID 0000.0001) 
(PID.TID 0000.0001)  GM_READPARMS: finished reading data.gmredi
(PID.TID 0000.0001)  DIAGNOSTICS_READPARMS: opening data.diagnostics
(PID.TID 0000.0001)  OPEN_COPY_DATA_FILE: opening file data.diagnostics
(PID.TID 0000.0001) // =======================================================
(PID.TID 0000.0001) // Parameter file "data.diagnostics"
(PID.TID 0000.0001) // =======================================================
(PID.TID 0000.0001) ># Diagnostic Package Choices
(PID.TID 0000.0001) >#--------------------
(PID.TID 0000.0001) >#  dumpAtLast (logical): always write output at the end of simulation (default=F)
(PID.TID 0000.0001) >#  diag_mnc   (logical): write to NetCDF files (default=useMNC)
(PID.TID 0000.0001) >#--for each output-stream:
(PID.TID 0000.0001) >#  fileName(n) : prefix of the output file name (max 80c long) for outp.stream n
(PID.TID 0000.0001) >#  frequency(n):< 0 : write snap-shot output every |frequency| seconds
(PID.TID 0000.0001) >#               > 0 : write time-average output every frequency seconds
(PID.TID 0000.0001) >#  timePhase(n)     : write at time = timePhase + multiple of |frequency|
(PID.TID 0000.0001) >#    averagingFreq  : frequency (in s) for periodic averaging interval
(PID.TID 0000.0001) >#    averagingPhase : phase     (in s) for periodic averaging interval
(PID.TID 0000.0001) >#    repeatCycle    : number of averaging intervals in 1 cycle
(PID.TID 0000.0001) >#  levels(:,n) : list of levels to write to file (Notes: declared as REAL)
(PID.TID 0000.0001) >#                when this entry is missing, select all common levels of this list
(PID.TID 0000.0001) >#  fields(:,n) : list of selected diagnostics fields (8.c) in outp.stream n
(PID.TID 0000.0001) >#                (see "available_diagnostics.log" file for the full list of diags)
(PID.TID 0000.0001) >#  missing_value(n) : missing value for real-type fields in output file "n"
(PID.TID 0000.0001) >#  fileFlags(n)     : specific code (8c string) for output file "n"
(PID.TID 0000.0001) >#--------------------
(PID.TID 0000.0001) > &DIAGNOSTICS_LIST
(PID.TID 0000.0001) ># diag_mnc     = .FALSE.,
(PID.TID 0000.0001) >  fields(1:8,1) = 'ETAN    ','DETADT2 ','PHIBOT  ',
(PID.TID 0000.0001) >                  'MXLDEPTH','GM_BVPcW','GM_BVPcS',
(PID.TID 0000.0001) >                  'SubMesLf','SubMpsiY',
(PID.TID 0000.0001) >#                 'GM_hTrsL','GM_baseS','GM_rLamb',
(PID.TID 0000.0001) >#                 'GM_VisbK',
(PID.TID 0000.0001) >   levels(1,1) = 1.,
(PID.TID 0000.0001) >  fileName(1) = 'surfDiag',
(PID.TID 0000.0001) >  frequency(1) = -86400.,
(PID.TID 0000.0001) >  timePhase(1) = 0.,
(PID.TID 0000.0001) >
(PID.TID 0000.0001) >  fields(1:7,2)  = 'UVEL    ','VVEL    ','WVEL    ','PHIHYD  ',
(PID.TID 0000.0001) >                   'THETA   ','THETASQ ','UVELSQ  ',
(PID.TID 0000.0001) ># do not specify levels => all levels are selected
(PID.TID 0000.0001) >  fileName(2) = 'dynDiag',
(PID.TID 0000.0001) >  frequency(2) = -864000.,
(PID.TID 0000.0001) >  timePhase(2) = 0.,
(PID.TID 0000.0001) >
(PID.TID 0000.0001) >  fields(1:8,3)  = 'DRHODR  ','RHOAnoma',
(PID.TID 0000.0001) >                   'GM_Kwy  ','GM_Kwz  ','GM_Kvy  ',
(PID.TID 0000.0001) >                   'THETA   ',
(PID.TID 0000.0001) >                   'GM_PsiY ','GM_Kvz  ',
(PID.TID 0000.0001) >  fileName(3) = 'oceDiag',
(PID.TID 0000.0001) >  frequency(3) = -86400.,
(PID.TID 0000.0001) >  timePhase(3) = 0.,
(PID.TID 0000.0001) >
(PID.TID 0000.0001) >  fields(1:5,4)  = 'ADVy_TH ','ADVr_TH ',
(PID.TID 0000.0001) >                   'DFyE_TH ','DFrE_TH ',
(PID.TID 0000.0001) >                   'DFrI_TH ',
(PID.TID 0000.0001) >#                  'ADVx_SLT',
(PID.TID 0000.0001) >#  fileName(4) = 'flxDiag',
(PID.TID 0000.0001) >  frequency(4) = 1728000.,
(PID.TID 0000.0001) > /
(PID.TID 0000.0001) >
(PID.TID 0000.0001) >#--------------------
(PID.TID 0000.0001) ># Parameter for Diagnostics of per level statistics:
(PID.TID 0000.0001) >#--------------------
(PID.TID 0000.0001) >#  diagSt_mnc (logical): write stat-diags to NetCDF files (default=diag_mnc)
(PID.TID 0000.0001) >#  diagSt_regMaskFile : file containing the region-mask to read-in
(PID.TID 0000.0001) >#  nSetRegMskFile   : number of region-mask sets within the region-mask file
(PID.TID 0000.0001) >#  set_regMask(i)   : region-mask set-index that identifies the region "i"
(PID.TID 0000.0001) >#  val_regMask(i)   : region "i" identifier value in the region mask
(PID.TID 0000.0001) >#--for each output-stream:
(PID.TID 0000.0001) >#  stat_fName(n) : prefix of the output file name (max 80c long) for outp.stream n
(PID.TID 0000.0001) >#  stat_freq(n):< 0 : write snap-shot output every |stat_freq| seconds
(PID.TID 0000.0001) >#               > 0 : write time-average output every stat_freq seconds
(PID.TID 0000.0001) >#  stat_phase(n)    : write at time = stat_phase + multiple of |stat_freq|
(PID.TID 0000.0001) >#  stat_region(:,n) : list of "regions" (default: 1 region only=global)
(PID.TID 0000.0001) >#  stat_fields(:,n) : list of selected diagnostics fields (8.c) in outp.stream n
(PID.TID 0000.0001) >#                (see "available_diagnostics.log" file for the full list of diags)
(PID.TID 0000.0001) >#--------------------
(PID.TID 0000.0001) > &DIAG_STATIS_PARMS
(PID.TID 0000.0001) ># stat_fields(1:13,1) = 'ETAN    ','UVEL    ','VVEL    ','WVEL    ', 'THETA   ',
(PID.TID 0000.0001) >#                       'MXLDEPTH','SubMesLf','SubMpsiY','GM_PsiY ',
(PID.TID 0000.0001) >#                       'GM_Kwy  ','GM_Kwz  ','GM_Kvy  ','GM_Kvz  ',
(PID.TID 0000.0001) >##                      'GM_hTrsL','GM_baseS','GM_rLamb',
(PID.TID 0000.0001) >## stat_fName(1) = 'dynStDiag',
(PID.TID 0000.0001) >#   stat_freq(1) = 18000.,
(PID.TID 0000.0001) >## stat_phase(1) = 0.,
(PID.TID 0000.0001) > /
(PID.TID 0000.0001) 
(PID.TID 0000.0001) S/R DIAGNOSTICS_READPARMS, read namelist "diagnostics_list": start
(PID.TID 0000.0001) S/R DIAGNOSTICS_READPARMS, read namelist "diagnostics_list": OK
(PID.TID 0000.0001) S/R DIAGNOSTICS_READPARMS, read namelist "DIAG_STATIS_PARMS": start
(PID.TID 0000.0001) S/R DIAGNOSTICS_READPARMS, read namelist "DIAG_STATIS_PARMS": OK
(PID.TID 0000.0001)  DIAGNOSTICS_READPARMS: global parameter summary:
(PID.TID 0000.0001)  dumpAtLast = /* always write time-ave diags at the end */
(PID.TID 0000.0001)                   F
(PID.TID 0000.0001)     ;
(PID.TID 0000.0001)  diag_mnc =   /* write NetCDF output files */
(PID.TID 0000.0001)                   F
(PID.TID 0000.0001)     ;
(PID.TID 0000.0001)  useMissingValue = /* put MissingValue where mask = 0 */
(PID.TID 0000.0001)                   F
(PID.TID 0000.0001)     ;
(PID.TID 0000.0001)  diagCG_maxIters = /* max number of iters in diag_cg2d */
(PID.TID 0000.0001)                    1000
(PID.TID 0000.0001)     ;
(PID.TID 0000.0001)  diagCG_resTarget = /* residual target for diag_cg2d */
(PID.TID 0000.0001)                 1.000000000000000E-13
(PID.TID 0000.0001)     ;
(PID.TID 0000.0001)  diagCG_pcOffDFac = /* preconditioner off-diagonal factor */
(PID.TID 0000.0001)                 9.611687812379854E-01
(PID.TID 0000.0001)     ;
(PID.TID 0000.0001) -----------------------------------------------------
(PID.TID 0000.0001)  DIAGNOSTICS_READPARMS: active diagnostics summary:
(PID.TID 0000.0001) -----------------------------------------------------
(PID.TID 0000.0001) Creating Output Stream: surfDiag
(PID.TID 0000.0001) Output Frequency:     -86400.000000 ; Phase:           0.000000
(PID.TID 0000.0001)  Averaging Freq.:          0.000000 , Phase:           0.000000 , Cycle:   1
(PID.TID 0000.0001)  missing value: -9.990000000000E+02
(PID.TID 0000.0001)  Levels:       1.
(PID.TID 0000.0001)  Fields:    ETAN     DETADT2  PHIBOT   MXLDEPTH GM_BVPcW GM_BVPcS SubMesLf SubMpsiY
(PID.TID 0000.0001) Creating Output Stream: dynDiag
(PID.TID 0000.0001) Output Frequency:    -864000.000000 ; Phase:           0.000000
(PID.TID 0000.0001)  Averaging Freq.:          0.000000 , Phase:           0.000000 , Cycle:   1
(PID.TID 0000.0001)  missing value: -9.990000000000E+02
(PID.TID 0000.0001)  Levels:    will be set later
(PID.TID 0000.0001)  Fields:    UVEL     VVEL     WVEL     PHIHYD   THETA    THETASQ  UVELSQ
(PID.TID 0000.0001) Creating Output Stream: oceDiag
(PID.TID 0000.0001) Output Frequency:     -86400.000000 ; Phase:           0.000000
(PID.TID 0000.0001)  Averaging Freq.:          0.000000 , Phase:           0.000000 , Cycle:   1
(PID.TID 0000.0001)  missing value: -9.990000000000E+02
(PID.TID 0000.0001)  Levels:    will be set later
(PID.TID 0000.0001)  Fields:    DRHODR   RHOAnoma GM_Kwy   GM_Kwz   GM_Kvy   THETA    GM_PsiY  GM_Kvz
(PID.TID 0000.0001) -----------------------------------------------------
(PID.TID 0000.0001)  DIAGNOSTICS_READPARMS: statistics diags. summary:
(PID.TID 0000.0001) -----------------------------------------------------
(PID.TID 0000.0001) 
(PID.TID 0000.0001) SET_PARMS: done
(PID.TID 0000.0001) Enter INI_VERTICAL_GRID: setInterFDr=    T ; setCenterDr=    F
(PID.TID 0000.0001) %MON XC_max                       =   5.0000000000000E+04
(PID.TID 0000.0001) %MON XC_min                       =   5.0000000000000E+04
(PID.TID 0000.0001) %MON XC_mean                      =   5.0000000000000E+04
(PID.TID 0000.0001) %MON XC_sd                        =   0.0000000000000E+00
(PID.TID 0000.0001) %MON XG_max                       =   0.0000000000000E+00
(PID.TID 0000.0001) %MON XG_min                       =   0.0000000000000E+00
(PID.TID 0000.0001) %MON XG_mean                      =   0.0000000000000E+00
(PID.TID 0000.0001) %MON XG_sd                        =   0.0000000000000E+00
(PID.TID 0000.0001) %MON DXC_max                      =   1.0000000000000E+05
(PID.TID 0000.0001) %MON DXC_min                      =   1.0000000000000E+05
(PID.TID 0000.0001) %MON DXC_mean                     =   1.0000000000000E+05
(PID.TID 0000.0001) %MON DXC_sd                       =   0.0000000000000E+00
(PID.TID 0000.0001) %MON DXF_max                      =   1.0000000000000E+05
(PID.TID 0000.0001) %MON DXF_min                      =   1.0000000000000E+05
(PID.TID 0000.0001) %MON DXF_mean                     =   1.0000000000000E+05
(PID.TID 0000.0001) %MON DXF_sd                       =   0.0000000000000E+00
(PID.TID 0000.0001) %MON DXG_max                      =   1.0000000000000E+05
(PID.TID 0000.0001) %MON DXG_min                      =   1.0000000000000E+05
(PID.TID 0000.0001) %MON DXG_mean                     =   1.0000000000000E+05
(PID.TID 0000.0001) %MON DXG_sd                       =   0.0000000000000E+00
(PID.TID 0000.0001) %MON DXV_max                      =   1.0000000000000E+05
(PID.TID 0000.0001) %MON DXV_min                      =   1.0000000000000E+05
(PID.TID 0000.0001) %MON DXV_mean                     =   1.0000000000000E+05
(PID.TID 0000.0001) %MON DXV_sd                       =   0.0000000000000E+00
(PID.TID 0000.0001) %MON YC_max                       =   3.1500000000000E+06
(PID.TID 0000.0001) %MON YC_min                       =   5.0000000000000E+04
(PID.TID 0000.0001) %MON YC_mean                      =   1.6000000000000E+06
(PID.TID 0000.0001) %MON YC_sd                        =   9.2330926563097E+05
(PID.TID 0000.0001) %MON YG_max                       =   3.1000000000000E+06
(PID.TID 0000.0001) %MON YG_min                       =   0.0000000000000E+00
(PID.TID 0000.0001) %MON YG_mean                      =   1.5500000000000E+06
(PID.TID 0000.0001) %MON YG_sd                        =   9.2330926563097E+05
(PID.TID 0000.0001) %MON DYC_max                      =   1.0000000000000E+05
(PID.TID 0000.0001) %MON DYC_min                      =   1.0000000000000E+05
(PID.TID 0000.0001) %MON DYC_mean                     =   1.0000000000000E+05
(PID.TID 0000.0001) %MON DYC_sd                       =   0.0000000000000E+00
(PID.TID 0000.0001) %MON DYF_max                      =   1.0000000000000E+05
(PID.TID 0000.0001) %MON DYF_min                      =   1.0000000000000E+05
(PID.TID 0000.0001) %MON DYF_mean                     =   1.0000000000000E+05
(PID.TID 0000.0001) %MON DYF_sd                       =   0.0000000000000E+00
(PID.TID 0000.0001) %MON DYG_max                      =   1.0000000000000E+05
(PID.TID 0000.0001) %MON DYG_min                      =   1.0000000000000E+05
(PID.TID 0000.0001) %MON DYG_mean                     =   1.0000000000000E+05
(PID.TID 0000.0001) %MON DYG_sd                       =   0.0000000000000E+00
(PID.TID 0000.0001) %MON DYU_max                      =   1.0000000000000E+05
(PID.TID 0000.0001) %MON DYU_min                      =   1.0000000000000E+05
(PID.TID 0000.0001) %MON DYU_mean                     =   1.0000000000000E+05
(PID.TID 0000.0001) %MON DYU_sd                       =   0.0000000000000E+00
(PID.TID 0000.0001) %MON RA_max                       =   1.0000000000000E+10
(PID.TID 0000.0001) %MON RA_min                       =   1.0000000000000E+10
(PID.TID 0000.0001) %MON RA_mean                      =   1.0000000000000E+10
(PID.TID 0000.0001) %MON RA_sd                        =   0.0000000000000E+00
(PID.TID 0000.0001) %MON RAW_max                      =   1.0000000000000E+10
(PID.TID 0000.0001) %MON RAW_min                      =   1.0000000000000E+10
(PID.TID 0000.0001) %MON RAW_mean                     =   1.0000000000000E+10
(PID.TID 0000.0001) %MON RAW_sd                       =   0.0000000000000E+00
(PID.TID 0000.0001) %MON RAS_max                      =   1.0000000000000E+10
(PID.TID 0000.0001) %MON RAS_min                      =   1.0000000000000E+10
(PID.TID 0000.0001) %MON RAS_mean                     =   1.0000000000000E+10
(PID.TID 0000.0001) %MON RAS_sd                       =   0.0000000000000E+00
(PID.TID 0000.0001) %MON RAZ_max                      =   1.0000000000000E+10
(PID.TID 0000.0001) %MON RAZ_min                      =   1.0000000000000E+10
(PID.TID 0000.0001) %MON RAZ_mean                     =   1.0000000000000E+10
(PID.TID 0000.0001) %MON RAZ_sd                       =   0.0000000000000E+00
(PID.TID 0000.0001) %MON AngleCS_max                  =   1.0000000000000E+00
(PID.TID 0000.0001) %MON AngleCS_min                  =   1.0000000000000E+00
(PID.TID 0000.0001) %MON AngleCS_mean                 =   1.0000000000000E+00
(PID.TID 0000.0001) %MON AngleCS_sd                   =   0.0000000000000E+00
(PID.TID 0000.0001) %MON AngleSN_max                  =   0.0000000000000E+00
(PID.TID 0000.0001) %MON AngleSN_min                  =   0.0000000000000E+00
(PID.TID 0000.0001) %MON AngleSN_mean                 =   0.0000000000000E+00
(PID.TID 0000.0001) %MON AngleSN_sd                   =   0.0000000000000E+00
(PID.TID 0000.0001)  MDS_READ_FIELD: opening global file: topo_slp.bin
(PID.TID 0000.0001) // =======================================================
(PID.TID 0000.0001) // Field Model R_low (ini_masks_etc)
(PID.TID 0000.0001) // CMIN =         -1.999737326001201E+03
(PID.TID 0000.0001) // CMAX =         -1.400262673998799E+03
(PID.TID 0000.0001) // CINT =          2.220276488897786E+01
(PID.TID 0000.0001) // SYMBOLS (CMIN->CMAX): -abcdefghijklmnopqrstuvwxyz+
(PID.TID 0000.0001) //                  0.0: .
(PID.TID 0000.0001) // RANGE I (Lo:Hi:Step):(    -2:     4:     1)
(PID.TID 0000.0001) // RANGE J (Lo:Hi:Step):(    35:    -2:    -1)
(PID.TID 0000.0001) // RANGE K (Lo:Hi:Step):(   1:   1:   1)
(PID.TID 0000.0001) // =======================================================
(PID.TID 0000.0001) K =   1
(PID.TID 0000.0001) //
(PID.TID 0000.0001) // |--J--|2101234
(PID.TID 0000.0001) //     35 -------
(PID.TID 0000.0001) //     34 -------
(PID.TID 0000.0001) //     33 .......
(PID.TID 0000.0001) //     32 .......
(PID.TID 0000.0001) //     31 +++++++
(PID.TID 0000.0001) //     30 +++++++
(PID.TID 0000.0001) //     29 +++++++
(PID.TID 0000.0001) //     28 +++++++
(PID.TID 0000.0001) //     27 +++++++
(PID.TID 0000.0001) //     26 +++++++
(PID.TID 0000.0001) //     25 +++++++
(PID.TID 0000.0001) //     24 +++++++
(PID.TID 0000.0001) //     23 +++++++
(PID.TID 0000.0001) //     22 zzzzzzz
(PID.TID 0000.0001) //     21 yyyyyyy
(PID.TID 0000.0001) //     20 wwwwwww
(PID.TID 0000.0001) //     19 uuuuuuu
(PID.TID 0000.0001) //     18 sssssss
(PID.TID 0000.0001) //     17 ooooooo
(PID.TID 0000.0001) //     16 lllllll
(PID.TID 0000.0001) //     15 hhhhhhh
(PID.TID 0000.0001) //     14 fffffff
(PID.TID 0000.0001) //     19 uuuuuuu
(PID.TID 0000.0001) //     18 sssssss
(PID.TID 0000.0001) //     17 ooooooo
(PID.TID 0000.0001) //     16 lllllll
(PID.TID 0000.0001) //     15 hhhhhhh
(PID.TID 0000.0001) //     14 fffffff
(PID.TID 0000.0001) //     13 ddddddd
(PID.TID 0000.0001) //     12 bbbbbbb
(PID.TID 0000.0001) //     11 aaaaaaa
(PID.TID 0000.0001) //     10 aaaaaaa
(PID.TID 0000.0001) //      9 -------
(PID.TID 0000.0001) //      8 -------
(PID.TID 0000.0001) //      7 -------
(PID.TID 0000.0001) //      6 -------
(PID.TID 0000.0001) //      5 -------
(PID.TID 0000.0001) //      4 -------
(PID.TID 0000.0001) //      3 -------
(PID.TID 0000.0001) //      2 -------
(PID.TID 0000.0001) //      1 .......
(PID.TID 0000.0001) //      0 .......
(PID.TID 0000.0001) //     -1 +++++++
(PID.TID 0000.0001) //     -2 +++++++
(PID.TID 0000.0001) // =======================================================
(PID.TID 0000.0001) // END OF FIELD                                          =
(PID.TID 0000.0001) // =======================================================
(PID.TID 0000.0001) 
(PID.TID 0000.0001) // =======================================================
(PID.TID 0000.0001) // Field Model Ro_surf (ini_masks_etc)
(PID.TID 0000.0001) // CMIN =          1.000000000000000E+32
(PID.TID 0000.0001) // CMAX =         -1.000000000000000E+32
(PID.TID 0000.0001) // CINT =          0.000000000000000E+00
(PID.TID 0000.0001) // SYMBOLS (CMIN->CMAX): -abcdefghijklmnopqrstuvwxyz+
(PID.TID 0000.0001) //                  0.0: .
(PID.TID 0000.0001) // RANGE I (Lo:Hi:Step):(    -2:     4:     1)
(PID.TID 0000.0001) // RANGE J (Lo:Hi:Step):(    35:    -2:    -1)
(PID.TID 0000.0001) // RANGE K (Lo:Hi:Step):(   1:   1:   1)
(PID.TID 0000.0001) // =======================================================
(PID.TID 0000.0001) // =======================================================
(PID.TID 0000.0001) // END OF FIELD                                          =
(PID.TID 0000.0001) // =======================================================
(PID.TID 0000.0001) 
(PID.TID 0000.0001) // =======================================================
(PID.TID 0000.0001) // Field hFacC at iteration          0
(PID.TID 0000.0001) // CMIN =          1.000000000000000E+00
(PID.TID 0000.0001) // CMAX =          1.000000000000000E+00
(PID.TID 0000.0001) // CINT =          0.000000000000000E+00
(PID.TID 0000.0001) // SYMBOLS (CMIN->CMAX): -abcdefghijklmnopqrstuvwxyz+
(PID.TID 0000.0001) //                  0.0: .
(PID.TID 0000.0001) // RANGE I (Lo:Hi:Step):(    -2:     4:     1)
(PID.TID 0000.0001) // RANGE J (Lo:Hi:Step):(    35:    -2:    -1)
(PID.TID 0000.0001) // RANGE K (Lo:Hi:Step):(   1:   1:   1)
(PID.TID 0000.0001) // =======================================================
(PID.TID 0000.0001) // =======================================================
(PID.TID 0000.0001) // END OF FIELD                                          =
(PID.TID 0000.0001) // =======================================================
(PID.TID 0000.0001) 
(PID.TID 0000.0001) // =======================================================
(PID.TID 0000.0001) // Field hFacW at iteration          0
(PID.TID 0000.0001) // CMIN =          1.000000000000000E+00
(PID.TID 0000.0001) // CMAX =          1.000000000000000E+00
(PID.TID 0000.0001) // CINT =          0.000000000000000E+00
(PID.TID 0000.0001) // SYMBOLS (CMIN->CMAX): -abcdefghijklmnopqrstuvwxyz+
(PID.TID 0000.0001) //                  0.0: .
(PID.TID 0000.0001) // RANGE I (Lo:Hi:Step):(    -2:     4:     1)
(PID.TID 0000.0001) // RANGE J (Lo:Hi:Step):(    35:    -2:    -1)
(PID.TID 0000.0001) // RANGE K (Lo:Hi:Step):(   1:   1:   1)
(PID.TID 0000.0001) // =======================================================
(PID.TID 0000.0001) // =======================================================
(PID.TID 0000.0001) // END OF FIELD                                          =
(PID.TID 0000.0001) // =======================================================
(PID.TID 0000.0001) 
(PID.TID 0000.0001) // =======================================================
(PID.TID 0000.0001) // Field hFacS at iteration          0
(PID.TID 0000.0001) // CMIN =          1.000000000000000E+00
(PID.TID 0000.0001) // CMAX =          1.000000000000000E+00
(PID.TID 0000.0001) // CINT =          0.000000000000000E+00
(PID.TID 0000.0001) // SYMBOLS (CMIN->CMAX): -abcdefghijklmnopqrstuvwxyz+
(PID.TID 0000.0001) //                  0.0: .
(PID.TID 0000.0001) // RANGE I (Lo:Hi:Step):(    -2:     4:     1)
(PID.TID 0000.0001) // RANGE J (Lo:Hi:Step):(    35:    -2:    -1)
(PID.TID 0000.0001) // RANGE K (Lo:Hi:Step):(   1:   1:   1)
(PID.TID 0000.0001) // =======================================================
(PID.TID 0000.0001) // =======================================================
(PID.TID 0000.0001) // END OF FIELD                                          =
(PID.TID 0000.0001) // =======================================================
(PID.TID 0000.0001) 
(PID.TID 0000.0001) GAD_INIT_FIXED: GAD_OlMinSize=  1  0  1
(PID.TID 0000.0001) 
(PID.TID 0000.0001) // ===================================
(PID.TID 0000.0001) // GAD parameters :
(PID.TID 0000.0001) // ===================================
(PID.TID 0000.0001) tempAdvScheme =   /* Temp. Horiz.Advection scheme selector */
(PID.TID 0000.0001)                       2
(PID.TID 0000.0001)     ;
(PID.TID 0000.0001) tempVertAdvScheme =   /* Temp. Vert. Advection scheme selector */
(PID.TID 0000.0001)                       2
(PID.TID 0000.0001)     ;
(PID.TID 0000.0001) tempMultiDimAdvec =   /* use Muti-Dim Advec method for Temp */
(PID.TID 0000.0001)                   F
(PID.TID 0000.0001)     ;
(PID.TID 0000.0001) tempSOM_Advection = /* use 2nd Order Moment Advection for Temp */
(PID.TID 0000.0001)                   F
(PID.TID 0000.0001)     ;
(PID.TID 0000.0001) AdamsBashforthGt = /* apply Adams-Bashforth extrapolation on Gt */
(PID.TID 0000.0001)                   T
(PID.TID 0000.0001)     ;
(PID.TID 0000.0001) AdamsBashforth_T = /* apply Adams-Bashforth extrapolation on Temp */
(PID.TID 0000.0001)                   F
(PID.TID 0000.0001)     ;
(PID.TID 0000.0001) saltAdvScheme =   /* Salt. Horiz.advection scheme selector */
(PID.TID 0000.0001)                       2
(PID.TID 0000.0001)     ;
(PID.TID 0000.0001) saltVertAdvScheme =   /* Salt. Vert. Advection scheme selector */
(PID.TID 0000.0001)                       2
(PID.TID 0000.0001)     ;
(PID.TID 0000.0001) saltMultiDimAdvec =   /* use Muti-Dim Advec method for Salt */
(PID.TID 0000.0001)                   F
(PID.TID 0000.0001)     ;
(PID.TID 0000.0001) saltSOM_Advection = /* use 2nd Order Moment Advection for Salt */
(PID.TID 0000.0001)                   F
(PID.TID 0000.0001)     ;
(PID.TID 0000.0001) AdamsBashforthGs = /* apply Adams-Bashforth extrapolation on Gs */
(PID.TID 0000.0001)                   T
(PID.TID 0000.0001)     ;
(PID.TID 0000.0001) AdamsBashforth_S = /* apply Adams-Bashforth extrapolation on Salt */
(PID.TID 0000.0001)                   F
(PID.TID 0000.0001)     ;
(PID.TID 0000.0001) // ===================================
(PID.TID 0000.0001) ------------------------------------------------------------
(PID.TID 0000.0001) DIAGNOSTICS_SET_LEVELS: done
(PID.TID 0000.0001)  Total Nb of available Diagnostics: ndiagt=   211
(PID.TID 0000.0001)  write list of available Diagnostics to file: available_diagnostics.log
(PID.TID 0000.0001) SETDIAG: Allocate  1 x  1 Levels for Diagnostic #    23 ETAN
(PID.TID 0000.0001) SETDIAG: Allocate  1 x  1 Levels for Diagnostic #    25 DETADT2
(PID.TID 0000.0001) SETDIAG: Allocate  1 x  1 Levels for Diagnostic #    73 PHIBOT
(PID.TID 0000.0001) SETDIAG: Allocate  1 x  1 Levels for Diagnostic #    76 MXLDEPTH
(PID.TID 0000.0001) SETDIAG: Allocate  1 x  1 Levels for Diagnostic #   210 GM_BVPcW
(PID.TID 0000.0001) SETDIAG: Allocate  1 x  1 Levels for Diagnostic #   211 GM_BVPcS
(PID.TID 0000.0001) SETDIAG: Allocate  1 x  1 Levels for Diagnostic #   193 SubMesLf
(PID.TID 0000.0001) SETDIAG: Allocate  1 x  1 Levels for Diagnostic #   195 SubMpsiY
(PID.TID 0000.0001) SETDIAG: Allocate 25 x  1 Levels for Diagnostic #    30 UVEL
(PID.TID 0000.0001) SETDIAG: Allocate 25 x  1 Levels for Diagnostic #    31 VVEL
(PID.TID 0000.0001) SETDIAG: Allocate 25 x  1 Levels for Diagnostic #    32 WVEL
(PID.TID 0000.0001) SETDIAG: Allocate 25 x  1 Levels for Diagnostic #    71 PHIHYD
(PID.TID 0000.0001) SETDIAG: Allocate 25 x  1 Levels for Diagnostic #    26 THETA
(PID.TID 0000.0001) SETDIAG: Allocate 25 x  1 Levels for Diagnostic #    33 THETASQ
(PID.TID 0000.0001) SETDIAG: Allocate 25 x  1 Levels for Diagnostic #    36 UVELSQ
(PID.TID 0000.0001) SETDIAG: Allocate 25 x  1 Levels for Diagnostic #    77 DRHODR
(PID.TID 0000.0001) SETDIAG: Allocate 25 x  1 Levels for Diagnostic #    64 RHOAnoma
(PID.TID 0000.0001) SETDIAG: Allocate 25 x  1 Levels for Diagnostic #   201 GM_Kwy
(PID.TID 0000.0001) SETDIAG: Allocate 25 x  1 Levels for Diagnostic #   202 GM_Kwz
(PID.TID 0000.0001) SETDIAG: Allocate 25 x  1 Levels for Diagnostic #   197 GM_Kvy
(PID.TID 0000.0001) SETDIAG: Allocate 25 x  1 Levels for Diagnostic #    26 THETA
(PID.TID 0000.0001) SETDIAG: Allocate 25 x  1 Levels for Diagnostic #   204 GM_PsiY
(PID.TID 0000.0001) SETDIAG: Allocate 25 x  1 Levels for Diagnostic #   199 GM_Kvz
(PID.TID 0000.0001)   space allocated for all diagnostics:     383 levels
(PID.TID 0000.0001)   set mate pointer for diag #   210  GM_BVPcW , Parms: SU P    M1 , mate:   211
(PID.TID 0000.0001)   set mate pointer for diag #   211  GM_BVPcS , Parms: SV P    M1 , mate:   210
(PID.TID 0000.0001)   set mate pointer for diag #    30  UVEL     , Parms: UUR     MR , mate:    31
(PID.TID 0000.0001)   set mate pointer for diag #    31  VVEL     , Parms: VVR     MR , mate:    30
(PID.TID 0000.0001) DIAGNOSTICS_SET_POINTERS: Set levels for Outp.Stream: dynDiag
(PID.TID 0000.0001)  Levels:       1.   2.   3.   4.   5.   6.   7.   8.   9.  10.  11.  12.  13.  14.  15.  16.  17.  18.  19.  20.
(PID.TID 0000.0001)  Levels:      21.  22.  23.  24.  25.
(PID.TID 0000.0001) DIAGNOSTICS_SET_POINTERS: Set levels for Outp.Stream: oceDiag
(PID.TID 0000.0001)  Levels:       1.   2.   3.   4.   5.   6.   7.   8.   9.  10.  11.  12.  13.  14.  15.  16.  17.  18.  19.  20.
(PID.TID 0000.0001)  Levels:      21.  22.  23.  24.  25.
(PID.TID 0000.0001) DIAGNOSTICS_SET_POINTERS: done
(PID.TID 0000.0001) ------------------------------------------------------------
(PID.TID 0000.0001) DIAGSTATS_SET_REGIONS: define no region
(PID.TID 0000.0001) ------------------------------------------------------------
(PID.TID 0000.0001)   space allocated for all stats-diags:       0 levels
(PID.TID 0000.0001) DIAGSTATS_SET_POINTERS: done
(PID.TID 0000.0001) ------------------------------------------------------------
(PID.TID 0000.0001) %MON fCori_max                    =   1.0000000000000E-04
(PID.TID 0000.0001) %MON fCori_min                    =   1.0000000000000E-04
(PID.TID 0000.0001) %MON fCori_mean                   =   1.0000000000000E-04
(PID.TID 0000.0001) %MON fCori_sd                     =   2.7105054312138E-20
(PID.TID 0000.0001) %MON fCoriG_max                   =   1.0000000000000E-04
(PID.TID 0000.0001) %MON fCoriG_min                   =   1.0000000000000E-04
(PID.TID 0000.0001) %MON fCoriG_mean                  =   1.0000000000000E-04
(PID.TID 0000.0001) %MON fCoriG_sd                    =   2.7105054312138E-20
(PID.TID 0000.0001) %MON fCoriCos_max                 =   0.0000000000000E+00
(PID.TID 0000.0001) %MON fCoriCos_min                 =   0.0000000000000E+00
(PID.TID 0000.0001) %MON fCoriCos_mean                =   0.0000000000000E+00
(PID.TID 0000.0001) %MON fCoriCos_sd                  =   0.0000000000000E+00
(PID.TID 0000.0001) INI_CG2D: CG2D normalisation factor =  5.0006567712553626E-04
(PID.TID 0000.0001) 
(PID.TID 0000.0001) // =======================================================
(PID.TID 0000.0001) // Model configuration
(PID.TID 0000.0001) // =======================================================
(PID.TID 0000.0001) //
(PID.TID 0000.0001) // "Physical" paramters ( PARM01 in namelist )
(PID.TID 0000.0001) //
(PID.TID 0000.0001) buoyancyRelation = /* Type of relation to get Buoyancy */
(PID.TID 0000.0001)               'OCEANIC'
(PID.TID 0000.0001)     ;
(PID.TID 0000.0001) fluidIsAir   =  /* fluid major constituent is Air */
(PID.TID 0000.0001)                   F
(PID.TID 0000.0001)     ;
(PID.TID 0000.0001) fluidIsWater =  /* fluid major constituent is Water */
(PID.TID 0000.0001)                   T
(PID.TID 0000.0001)     ;
(PID.TID 0000.0001) usingPCoords =  /* use p (or p*) vertical coordinate */
(PID.TID 0000.0001)                   F
(PID.TID 0000.0001)     ;
(PID.TID 0000.0001) usingZCoords =  /* use z (or z*) vertical coordinate */
(PID.TID 0000.0001)                   T
(PID.TID 0000.0001)     ;
(PID.TID 0000.0001) tRef =   /* Reference temperature profile ( oC or K ) */
(PID.TID 0000.0001)                 2.900000000000000E+01,      /* K =  1 */
(PID.TID 0000.0001)                 2.800000000000000E+01,      /* K =  2 */
(PID.TID 0000.0001)                 2.700000000000000E+01,      /* K =  3 */
(PID.TID 0000.0001)                 2.600000000000000E+01,      /* K =  4 */
(PID.TID 0000.0001)                 2.500000000000000E+01,      /* K =  5 */
(PID.TID 0000.0001)                 2.400000000000000E+01,      /* K =  6 */
(PID.TID 0000.0001)                 2.300000000000000E+01,      /* K =  7 */
(PID.TID 0000.0001)                 2.200000000000000E+01,      /* K =  8 */
(PID.TID 0000.0001)                 2.100000000000000E+01,      /* K =  9 */
(PID.TID 0000.0001)                 2.000000000000000E+01,      /* K = 10 */
(PID.TID 0000.0001)                 1.900000000000000E+01,      /* K = 11 */
(PID.TID 0000.0001)                 1.800000000000000E+01,      /* K = 12 */
(PID.TID 0000.0001)                 1.700000000000000E+01,      /* K = 13 */
(PID.TID 0000.0001)                 1.600000000000000E+01,      /* K = 14 */
(PID.TID 0000.0001)                 1.500000000000000E+01,      /* K = 15 */
(PID.TID 0000.0001)                 1.400000000000000E+01,      /* K = 16 */
(PID.TID 0000.0001)                 1.300000000000000E+01,      /* K = 17 */
(PID.TID 0000.0001)                 1.200000000000000E+01,      /* K = 18 */
(PID.TID 0000.0001)                 1.100000000000000E+01,      /* K = 19 */
(PID.TID 0000.0001)                 1.000000000000000E+01,      /* K = 20 */
(PID.TID 0000.0001)                 9.000000000000000E+00,      /* K = 21 */
(PID.TID 0000.0001)                 7.000000000000000E+00,      /* K = 22 */
(PID.TID 0000.0001)                 8.000000000000000E+00,      /* K = 23 */
(PID.TID 0000.0001)                 6.000000000000000E+00,      /* K = 24 */
(PID.TID 0000.0001)                 5.000000000000000E+00       /* K = 25 */
(PID.TID 0000.0001)     ;
(PID.TID 0000.0001) sRef =   /* Reference salinity profile ( psu ) */
(PID.TID 0000.0001)    25 @  3.000000000000000E+01              /* K =  1: 25 */
(PID.TID 0000.0001)     ;
(PID.TID 0000.0001) useStrainTensionVisc= /* Use StrainTension Form of Viscous Operator */
(PID.TID 0000.0001)                   F
(PID.TID 0000.0001)     ;
(PID.TID 0000.0001) useVariableVisc = /* Use variable horizontal viscosity */
(PID.TID 0000.0001)                   F
(PID.TID 0000.0001)     ;
(PID.TID 0000.0001) useHarmonicVisc = /* Use harmonic horizontal viscosity */
(PID.TID 0000.0001)                   F
(PID.TID 0000.0001)     ;
(PID.TID 0000.0001) useBiharmonicVisc= /* Use biharmonic horiz.  viscosity */
(PID.TID 0000.0001)                   T
(PID.TID 0000.0001)     ;
(PID.TID 0000.0001) useSmag3D = /* Use isotropic 3-D Smagorinsky viscosity */
(PID.TID 0000.0001)                   F
(PID.TID 0000.0001)     ;
(PID.TID 0000.0001) viscAh  =   /* Lateral harmonic viscosity ( m^2/s ) */
(PID.TID 0000.0001)                 0.000000000000000E+00
(PID.TID 0000.0001)     ;
(PID.TID 0000.0001) viscA4  =   /* Lateral biharmonic viscosity ( m^4/s ) */
(PID.TID 0000.0001)                 1.200000000000000E+06
(PID.TID 0000.0001)     ;
(PID.TID 0000.0001) no_slip_sides =  /* Viscous BCs: No-slip sides */
(PID.TID 0000.0001)                   F
(PID.TID 0000.0001)     ;
(PID.TID 0000.0001) sideDragFactor = /* side-drag scaling factor (non-dim) */
(PID.TID 0000.0001)                 2.000000000000000E+00
(PID.TID 0000.0001)     ;
(PID.TID 0000.0001) viscArNr = /* vertical profile of vertical viscosity ( m^2/s )*/
(PID.TID 0000.0001)    25 @  2.000000000000000E-04              /* K =  1: 25 */
(PID.TID 0000.0001)     ;
(PID.TID 0000.0001) no_slip_bottom =  /* Viscous BCs: No-slip bottom */
(PID.TID 0000.0001)                   T
(PID.TID 0000.0001)     ;
(PID.TID 0000.0001) bottomVisc_pCell = /* Partial-cell in bottom Visc. BC */
(PID.TID 0000.0001)                   F
(PID.TID 0000.0001)     ;
(PID.TID 0000.0001) bottomDragLinear = /* linear bottom-drag coefficient ( m/s ) */
(PID.TID 0000.0001)                 1.000000000000000E-03
(PID.TID 0000.0001)     ;
(PID.TID 0000.0001) bottomDragQuadratic = /* quadratic bottom-drag coefficient (-) */
(PID.TID 0000.0001)                 0.000000000000000E+00
(PID.TID 0000.0001)     ;
(PID.TID 0000.0001) selectBotDragQuadr = /* select quadratic bottom drag options */
(PID.TID 0000.0001)                      -1
(PID.TID 0000.0001)     ;
(PID.TID 0000.0001) diffKhT =   /* Laplacian diffusion of heat laterally ( m^2/s ) */
(PID.TID 0000.0001)                 0.000000000000000E+00
(PID.TID 0000.0001)     ;
(PID.TID 0000.0001) diffK4T =   /* Biharmonic diffusion of heat laterally ( m^4/s ) */
(PID.TID 0000.0001)                 0.000000000000000E+00
(PID.TID 0000.0001)     ;
(PID.TID 0000.0001) diffKhS =   /* Laplacian diffusion of salt laterally ( m^2/s ) */
(PID.TID 0000.0001)                 0.000000000000000E+00
(PID.TID 0000.0001)     ;
(PID.TID 0000.0001) diffK4S =   /* Biharmonic diffusion of salt laterally ( m^4/s ) */
(PID.TID 0000.0001)                 0.000000000000000E+00
(PID.TID 0000.0001)     ;
(PID.TID 0000.0001) diffKrNrT = /* vertical profile of vertical diffusion of Temp ( m^2/s )*/
(PID.TID 0000.0001)     6 @  1.000000000000000E-02,             /* K =  1:  6 */
(PID.TID 0000.0001)    19 @  2.000000000000000E-05              /* K =  7: 25 */
(PID.TID 0000.0001)     ;
(PID.TID 0000.0001) diffKrNrS = /* vertical profile of vertical diffusion of Salt ( m^2/s )*/
(PID.TID 0000.0001)     6 @  1.000000000000000E-02,             /* K =  1:  6 */
(PID.TID 0000.0001)    19 @  2.000000000000000E-05              /* K =  7: 25 */
(PID.TID 0000.0001)     ;
(PID.TID 0000.0001) diffKrBL79surf = /* Surface diffusion for Bryan and Lewis 79 ( m^2/s ) */
(PID.TID 0000.0001)                 0.000000000000000E+00
(PID.TID 0000.0001)     ;
(PID.TID 0000.0001) diffKrBL79deep = /* Deep diffusion for Bryan and Lewis 1979 ( m^2/s ) */
(PID.TID 0000.0001)                 0.000000000000000E+00
(PID.TID 0000.0001)     ;
(PID.TID 0000.0001) diffKrBL79scl = /* Depth scale for Bryan and Lewis 1979 ( m ) */
(PID.TID 0000.0001)                 2.000000000000000E+02
(PID.TID 0000.0001)     ;
(PID.TID 0000.0001) diffKrBL79Ho = /* Turning depth for Bryan and Lewis 1979 ( m ) */
(PID.TID 0000.0001)                -2.000000000000000E+03
(PID.TID 0000.0001)     ;
(PID.TID 0000.0001) ivdc_kappa = /* Implicit Vertical Diffusivity for Convection ( m^2/s) */
(PID.TID 0000.0001)                 0.000000000000000E+00
(PID.TID 0000.0001)     ;
(PID.TID 0000.0001) hMixCriteria=  /* Criteria for mixed-layer diagnostic */
(PID.TID 0000.0001)                -1.000000000000000E-01
(PID.TID 0000.0001)     ;
(PID.TID 0000.0001) dRhoSmall =  /* Parameter for mixed-layer diagnostic */
(PID.TID 0000.0001)                 1.000000000000000E-06
(PID.TID 0000.0001)     ;
(PID.TID 0000.0001) hMixSmooth=  /* Smoothing parameter for mixed-layer diagnostic */
(PID.TID 0000.0001)                 0.000000000000000E+00
(PID.TID 0000.0001)     ;
(PID.TID 0000.0001) eosType =  /* Type of Equation of State */
(PID.TID 0000.0001)               'LINEAR'
(PID.TID 0000.0001)     ;
(PID.TID 0000.0001) tAlpha = /* Linear EOS thermal expansion coefficient ( 1/oC ) */
(PID.TID 0000.0001)                 2.000000000000000E-04
(PID.TID 0000.0001)     ;
(PID.TID 0000.0001) sBeta  = /* Linear EOS haline contraction coefficient ( 1/psu ) */
(PID.TID 0000.0001)                 0.000000000000000E+00
(PID.TID 0000.0001)     ;
(PID.TID 0000.0001) rhoNil    = /* Reference density for Linear EOS ( kg/m^3 ) */
(PID.TID 0000.0001)                 1.000000000000000E+03
(PID.TID 0000.0001)     ;
(PID.TID 0000.0001) selectP_inEOS_Zc = /* select pressure to use in EOS (0,1,2,3) */
(PID.TID 0000.0001)                       0
(PID.TID 0000.0001)     0= -g*rhoConst*z ; 1= pRef (from tRef,sRef); 2= Hyd P ; 3= Hyd+NH P
(PID.TID 0000.0001)     ;
(PID.TID 0000.0001) HeatCapacity_Cp =  /* Specific heat capacity ( J/kg/K ) */
(PID.TID 0000.0001)                 3.994000000000000E+03
(PID.TID 0000.0001)     ;
(PID.TID 0000.0001) celsius2K = /* 0 degree Celsius converted to Kelvin ( K ) */
(PID.TID 0000.0001)                 2.731500000000000E+02
(PID.TID 0000.0001)     ;
(PID.TID 0000.0001) rhoConst  = /* Reference density (Boussinesq)  ( kg/m^3 ) */
(PID.TID 0000.0001)                 1.000000000000000E+03
(PID.TID 0000.0001)     ;
(PID.TID 0000.0001) rhoFacC = /* normalized Reference density @ cell-Center (-) */
(PID.TID 0000.0001)    25 @  1.000000000000000E+00              /* K =  1: 25 */
(PID.TID 0000.0001)     ;
(PID.TID 0000.0001) rhoFacF = /* normalized Reference density @ W-Interface (-) */
(PID.TID 0000.0001)    26 @  1.000000000000000E+00              /* K =  1: 26 */
(PID.TID 0000.0001)     ;
(PID.TID 0000.0001) rhoConstFresh = /* Fresh-water reference density ( kg/m^3 ) */
(PID.TID 0000.0001)                 1.000000000000000E+03
(PID.TID 0000.0001)     ;
(PID.TID 0000.0001) gravity =   /* Gravitational acceleration ( m/s^2 ) */
(PID.TID 0000.0001)                 9.810000000000000E+00
(PID.TID 0000.0001)     ;
(PID.TID 0000.0001) gBaro =   /* Barotropic gravity ( m/s^2 ) */
(PID.TID 0000.0001)                 9.810000000000000E+00
(PID.TID 0000.0001)     ;
(PID.TID 0000.0001) gravFacC = /* gravity factor (vs surf.) @ cell-Center (-) */
(PID.TID 0000.0001)    25 @  1.000000000000000E+00              /* K =  1: 25 */
(PID.TID 0000.0001)     ;
(PID.TID 0000.0001) gravFacF = /* gravity factor (vs surf.) @ W-Interface (-) */
(PID.TID 0000.0001)    26 @  1.000000000000000E+00              /* K =  1: 26 */
(PID.TID 0000.0001)     ;
(PID.TID 0000.0001) rotationPeriod =   /* Rotation Period ( s ) */
(PID.TID 0000.0001)                 8.616400000000000E+04
(PID.TID 0000.0001)     ;
(PID.TID 0000.0001) omega =   /* Angular velocity ( rad/s ) */
(PID.TID 0000.0001)                 7.292123516990375E-05
(PID.TID 0000.0001)     ;
(PID.TID 0000.0001) f0 =   /* Reference coriolis parameter ( 1/s ) */
(PID.TID 0000.0001)                 1.000000000000000E-04
(PID.TID 0000.0001)     ;
(PID.TID 0000.0001) beta =   /* Beta ( 1/(m.s) ) */
(PID.TID 0000.0001)                 0.000000000000000E+00
(PID.TID 0000.0001)     ;
(PID.TID 0000.0001) fPrime =   /* Second coriolis parameter ( 1/s ) */
(PID.TID 0000.0001)                 0.000000000000000E+00
(PID.TID 0000.0001)     ;
(PID.TID 0000.0001) rigidLid =   /* Rigid lid on/off flag */
(PID.TID 0000.0001)                   F
(PID.TID 0000.0001)     ;
(PID.TID 0000.0001) implicitFreeSurface =   /* Implicit free surface on/off flag */
(PID.TID 0000.0001)                   T
(PID.TID 0000.0001)     ;
(PID.TID 0000.0001) freeSurfFac =   /* Implicit free surface factor */
(PID.TID 0000.0001)                 1.000000000000000E+00
(PID.TID 0000.0001)     ;
(PID.TID 0000.0001) implicSurfPress =  /* Surface Pressure implicit factor (0-1)*/
(PID.TID 0000.0001)                 1.000000000000000E+00
(PID.TID 0000.0001)     ;
(PID.TID 0000.0001) implicDiv2DFlow =  /* Barot. Flow Div. implicit factor (0-1)*/
(PID.TID 0000.0001)                 1.000000000000000E+00
(PID.TID 0000.0001)     ;
(PID.TID 0000.0001) uniformLin_PhiSurf = /* use uniform Bo_surf on/off flag*/
(PID.TID 0000.0001)                   T
(PID.TID 0000.0001)     ;
(PID.TID 0000.0001) uniformFreeSurfLev = /* free-surface level-index is uniform */
(PID.TID 0000.0001)                   T
(PID.TID 0000.0001)     ;
(PID.TID 0000.0001) hFacMin =   /* minimum partial cell factor (hFac) */
(PID.TID 0000.0001)                 1.000000000000000E-01
(PID.TID 0000.0001)     ;
(PID.TID 0000.0001) hFacMinDr = /* minimum partial cell thickness ( m) */
(PID.TID 0000.0001)                 0.000000000000000E+00
(PID.TID 0000.0001)     ;
(PID.TID 0000.0001) exactConserv =  /* Exact Volume Conservation on/off flag*/
(PID.TID 0000.0001)                   F
(PID.TID 0000.0001)     ;
(PID.TID 0000.0001) linFSConserveTr = /* Tracer correction for Lin Free Surface on/off flag*/
(PID.TID 0000.0001)                   F
(PID.TID 0000.0001)     ;
(PID.TID 0000.0001) nonlinFreeSurf = /* Non-linear Free Surf. options (-1,0,1,2,3)*/
(PID.TID 0000.0001)                       0
(PID.TID 0000.0001)      -1,0= Off ; 1,2,3= On, 2=+rescale gU,gV, 3=+update cg2d solv.
(PID.TID 0000.0001)     ;
(PID.TID 0000.0001) hFacInf =   /* lower threshold for hFac (nonlinFreeSurf only)*/
(PID.TID 0000.0001)                 2.000000000000000E-01
(PID.TID 0000.0001)     ;
(PID.TID 0000.0001) hFacSup =   /* upper threshold for hFac (nonlinFreeSurf only)*/
(PID.TID 0000.0001)                 2.000000000000000E+00
(PID.TID 0000.0001)     ;
(PID.TID 0000.0001) select_rStar = /* r* Vertical coord. options (=0 r coord.; >0 uses r*)*/
(PID.TID 0000.0001)                       0
(PID.TID 0000.0001)     ;
(PID.TID 0000.0001) useRealFreshWaterFlux = /* Real Fresh Water Flux on/off flag*/
(PID.TID 0000.0001)                   F
(PID.TID 0000.0001)     ;
(PID.TID 0000.0001) temp_EvPrRn = /* Temp. of Evap/Prec/R (UNSET=use local T)(oC)*/
(PID.TID 0000.0001)                 1.234567000000000E+05
(PID.TID 0000.0001)     ;
(PID.TID 0000.0001) salt_EvPrRn = /* Salin. of Evap/Prec/R (UNSET=use local S)(psu)*/
(PID.TID 0000.0001)                 0.000000000000000E+00
(PID.TID 0000.0001)     ;
(PID.TID 0000.0001) selectAddFluid = /* option for mass source/sink of fluid (=0: off) */
(PID.TID 0000.0001)                       0
(PID.TID 0000.0001)     ;
(PID.TID 0000.0001) temp_addMass = /* Temp. of addMass array (UNSET=use local T)(oC)*/
(PID.TID 0000.0001)                 1.234567000000000E+05
(PID.TID 0000.0001)     ;
(PID.TID 0000.0001) salt_addMass = /* Salin. of addMass array (UNSET=use local S)(psu)*/
(PID.TID 0000.0001)                 0.000000000000000E+00
(PID.TID 0000.0001)     ;
(PID.TID 0000.0001) convertFW2Salt = /* convert F.W. Flux to Salt Flux (-1=use local S)(psu)*/
(PID.TID 0000.0001)                 3.500000000000000E+01
(PID.TID 0000.0001)     ;
(PID.TID 0000.0001) use3Dsolver = /* use 3-D pressure solver on/off flag */
(PID.TID 0000.0001)                   F
(PID.TID 0000.0001)     ;
(PID.TID 0000.0001) nonHydrostatic =  /* Non-Hydrostatic on/off flag */
(PID.TID 0000.0001)                   F
(PID.TID 0000.0001)     ;
(PID.TID 0000.0001) nh_Am2 = /* Non-Hydrostatic terms scaling factor */
(PID.TID 0000.0001)                 1.000000000000000E+00
(PID.TID 0000.0001)     ;
(PID.TID 0000.0001) implicitNHPress = /* Non-Hyd Pressure implicit factor (0-1)*/
(PID.TID 0000.0001)                 1.000000000000000E+00
(PID.TID 0000.0001)     ;
(PID.TID 0000.0001) selectNHfreeSurf = /* Non-Hyd (free-)Surface option */
(PID.TID 0000.0001)                       0
(PID.TID 0000.0001)     ;
(PID.TID 0000.0001) quasiHydrostatic = /* Quasi-Hydrostatic on/off flag */
(PID.TID 0000.0001)                   F
(PID.TID 0000.0001)     ;
(PID.TID 0000.0001) calc_wVelocity = /* vertical velocity calculation on/off flag */
(PID.TID 0000.0001)                   T
(PID.TID 0000.0001)     ;
(PID.TID 0000.0001) momStepping =  /* Momentum equation on/off flag */
(PID.TID 0000.0001)                   T
(PID.TID 0000.0001)     ;
(PID.TID 0000.0001) vectorInvariantMomentum= /* Vector-Invariant Momentum on/off */
(PID.TID 0000.0001)                   F
(PID.TID 0000.0001)     ;
(PID.TID 0000.0001) momAdvection =  /* Momentum advection on/off flag */
(PID.TID 0000.0001)                   T
(PID.TID 0000.0001)     ;
(PID.TID 0000.0001) momViscosity =  /* Momentum viscosity on/off flag */
(PID.TID 0000.0001)                   T
(PID.TID 0000.0001)     ;
(PID.TID 0000.0001) momImplVertAdv= /* Momentum implicit vert. advection on/off*/
(PID.TID 0000.0001)                   F
(PID.TID 0000.0001)     ;
(PID.TID 0000.0001) implicitViscosity = /* Implicit viscosity on/off flag */
(PID.TID 0000.0001)                   F
(PID.TID 0000.0001)     ;
(PID.TID 0000.0001) selectImplicitDrag= /* Implicit bot Drag options (0,1,2)*/
(PID.TID 0000.0001)                       0
(PID.TID 0000.0001)     0= Expl. ; 1= Impl. on provis. Vel ; 2= Fully Impl (with surf.P)
(PID.TID 0000.0001)     ;
(PID.TID 0000.0001) metricTerms =  /* metric-Terms on/off flag */
(PID.TID 0000.0001)                   F
(PID.TID 0000.0001)     ;
(PID.TID 0000.0001) useNHMTerms = /* Non-Hydrostatic Metric-Terms on/off */
(PID.TID 0000.0001)                   F
(PID.TID 0000.0001)     ;
(PID.TID 0000.0001) selectCoriMap = /* Coriolis Map options (0,1,2,3)*/
(PID.TID 0000.0001)                       1
(PID.TID 0000.0001)     0= f-Plane ; 1= Beta-Plane ; 2= Spherical ; 3= read from file
(PID.TID 0000.0001)     ;
(PID.TID 0000.0001) use3dCoriolis = /* 3-D Coriolis on/off flag */
(PID.TID 0000.0001)                   F
(PID.TID 0000.0001)     ;
(PID.TID 0000.0001) useCoriolis =  /* Coriolis on/off flag */
(PID.TID 0000.0001)                   T
(PID.TID 0000.0001)     ;
(PID.TID 0000.0001) useCDscheme =  /* CD scheme on/off flag */
(PID.TID 0000.0001)                   F
(PID.TID 0000.0001)     ;
(PID.TID 0000.0001) useEnergyConservingCoriolis= /* Flx-Form Coriolis scheme flag */
(PID.TID 0000.0001)                   F
(PID.TID 0000.0001)     ;
(PID.TID 0000.0001) useJamartWetPoints= /* Coriolis WetPoints method flag */
(PID.TID 0000.0001)                   F
(PID.TID 0000.0001)     ;
(PID.TID 0000.0001) useJamartMomAdv= /* V.I Non-linear terms Jamart flag */
(PID.TID 0000.0001)                   F
(PID.TID 0000.0001)     ;
(PID.TID 0000.0001) useAbsVorticity= /* V.I Works with f+zeta in Coriolis */
(PID.TID 0000.0001)                   F
(PID.TID 0000.0001)     ;
(PID.TID 0000.0001) selectVortScheme= /* V.I Scheme selector for Vorticity-Term */
(PID.TID 0000.0001)               123456789
(PID.TID 0000.0001)    = 0 : enstrophy (Shallow-Water Eq.) conserving scheme by Sadourny, JAS 75
(PID.TID 0000.0001)    = 1 : same as 0 with modified hFac
(PID.TID 0000.0001)    = 2 : energy conserving scheme (used by Sadourny in JAS 75 paper)
(PID.TID 0000.0001)    = 3 : energy (general) and enstrophy (2D, nonDiv.) conserving scheme
(PID.TID 0000.0001)          from Sadourny (Burridge & Haseler, ECMWF Rep.4, 1977)
(PID.TID 0000.0001)     ;
(PID.TID 0000.0001) upwindVorticity= /* V.I Upwind bias vorticity flag */
(PID.TID 0000.0001)                   F
(PID.TID 0000.0001)     ;
(PID.TID 0000.0001) highOrderVorticity= /* V.I High order vort. advect. flag */
(PID.TID 0000.0001)                   F
(PID.TID 0000.0001)     ;
(PID.TID 0000.0001) upwindShear= /* V.I Upwind vertical Shear advection flag */
(PID.TID 0000.0001)                   F
(PID.TID 0000.0001)     ;
(PID.TID 0000.0001) selectKEscheme= /* V.I Kinetic Energy scheme selector */
(PID.TID 0000.0001)                       0
(PID.TID 0000.0001)     ;
(PID.TID 0000.0001) momForcing =  /* Momentum forcing on/off flag */
(PID.TID 0000.0001)                   T
(PID.TID 0000.0001)     ;
(PID.TID 0000.0001) momTidalForcing = /* Momentum Tidal forcing on/off flag */
(PID.TID 0000.0001)                   T
(PID.TID 0000.0001)     ;
(PID.TID 0000.0001) momPressureForcing =  /* Momentum pressure term on/off flag */
(PID.TID 0000.0001)                   T
(PID.TID 0000.0001)     ;
(PID.TID 0000.0001) implicitIntGravWave= /* Implicit Internal Gravity Wave flag */
(PID.TID 0000.0001)                   F
(PID.TID 0000.0001)     ;
(PID.TID 0000.0001) staggerTimeStep =    /* Stagger time stepping on/off flag */
(PID.TID 0000.0001)                   F
(PID.TID 0000.0001)     ;
(PID.TID 0000.0001) doResetHFactors = /* reset thickness factors @ each time-step */
(PID.TID 0000.0001)                   F
(PID.TID 0000.0001)     ;
(PID.TID 0000.0001) multiDimAdvection =  /* enable/disable Multi-Dim Advection */
(PID.TID 0000.0001)                   T
(PID.TID 0000.0001)     ;
(PID.TID 0000.0001) useMultiDimAdvec =   /* Multi-Dim Advection is/is-not used */
(PID.TID 0000.0001)                   F
(PID.TID 0000.0001)     ;
(PID.TID 0000.0001) implicitDiffusion = /* Implicit Diffusion on/off flag */
(PID.TID 0000.0001)                   T
(PID.TID 0000.0001)     ;
(PID.TID 0000.0001) tempStepping =  /* Temperature equation on/off flag */
(PID.TID 0000.0001)                   T
(PID.TID 0000.0001)     ;
(PID.TID 0000.0001) tempAdvection = /* Temperature advection on/off flag */
(PID.TID 0000.0001)                   T
(PID.TID 0000.0001)     ;
(PID.TID 0000.0001) tempImplVertAdv = /* Temp. implicit vert. advection on/off */
(PID.TID 0000.0001)                   F
(PID.TID 0000.0001)     ;
(PID.TID 0000.0001) tempForcing  =  /* Temperature forcing on/off flag */
(PID.TID 0000.0001)                   T
(PID.TID 0000.0001)     ;
(PID.TID 0000.0001) doThetaClimRelax = /* apply SST relaxation on/off flag */
(PID.TID 0000.0001)                   F
(PID.TID 0000.0001)     ;
(PID.TID 0000.0001) tempIsActiveTr = /* Temp. is a dynamically Active Tracer */
(PID.TID 0000.0001)                   T
(PID.TID 0000.0001)     ;
(PID.TID 0000.0001) saltStepping =  /* Salinity equation on/off flag */
(PID.TID 0000.0001)                   T
(PID.TID 0000.0001)     ;
(PID.TID 0000.0001) saltAdvection = /* Salinity advection on/off flag */
(PID.TID 0000.0001)                   T
(PID.TID 0000.0001)     ;
(PID.TID 0000.0001) saltImplVertAdv = /* Sali. implicit vert. advection on/off */
(PID.TID 0000.0001)                   F
(PID.TID 0000.0001)     ;
(PID.TID 0000.0001) saltForcing  =  /* Salinity forcing on/off flag */
(PID.TID 0000.0001)                   T
(PID.TID 0000.0001)     ;
(PID.TID 0000.0001) doSaltClimRelax = /* apply SSS relaxation on/off flag */
(PID.TID 0000.0001)                   F
(PID.TID 0000.0001)     ;
(PID.TID 0000.0001) saltIsActiveTr = /* Salt  is a dynamically Active Tracer */
(PID.TID 0000.0001)                   F
(PID.TID 0000.0001)     ;
(PID.TID 0000.0001)  readBinaryPrec = /* Precision used for reading binary files */
(PID.TID 0000.0001)                      64
(PID.TID 0000.0001)     ;
(PID.TID 0000.0001) writeBinaryPrec = /* Precision used for writing binary files */
(PID.TID 0000.0001)                      64
(PID.TID 0000.0001)     ;
(PID.TID 0000.0001)  rwSuffixType =   /* select format of mds file suffix */
(PID.TID 0000.0001)                       0
(PID.TID 0000.0001)    = 0 : myIter (I10.10) ;   = 1 : 100*myTime (100th sec) ;
(PID.TID 0000.0001)    = 2 : myTime (seconds);   = 3 : myTime/360 (10th of hr);
(PID.TID 0000.0001)    = 4 : myTime/3600 (hours)
(PID.TID 0000.0001)     ;
(PID.TID 0000.0001)  globalFiles = /* write "global" (=not per tile) files */
(PID.TID 0000.0001)                   F
(PID.TID 0000.0001)     ;
(PID.TID 0000.0001)  useSingleCpuIO = /* only master MPI process does I/O */
(PID.TID 0000.0001)                   F
(PID.TID 0000.0001)     ;
(PID.TID 0000.0001)  useSingleCpuInput = /* only master process reads input */
(PID.TID 0000.0001)                   F
(PID.TID 0000.0001)     ;
(PID.TID 0000.0001) /* debLev[*]  : level of debug & auxiliary message printing */
(PID.TID 0000.0001) debLevZero =  0 ; /* level of disabled aux. msg printing */
(PID.TID 0000.0001)    debLevA =  1 ; /* level of minimum  aux. msg printing */
(PID.TID 0000.0001)    debLevB =  2 ; /* level of low aux. print (report read-file opening)*/
(PID.TID 0000.0001)    debLevC =  3 ; /* level of moderate debug prt (most pkgs debug msg) */
(PID.TID 0000.0001)    debLevD =  4 ; /* level of enhanced debug prt (add DEBUG_STATS prt) */
(PID.TID 0000.0001)    debLevE =  5 ; /* level of extensive debug printing */
(PID.TID 0000.0001) debugLevel =  /* select debug printing level */
(PID.TID 0000.0001)                       2
(PID.TID 0000.0001)     ;
(PID.TID 0000.0001)  plotLevel =  /* select PLOT_FIELD printing level */
(PID.TID 0000.0001)                       2
(PID.TID 0000.0001)     ;
(PID.TID 0000.0001) //
(PID.TID 0000.0001) // Elliptic solver(s) paramters ( PARM02 in namelist )
(PID.TID 0000.0001) //
(PID.TID 0000.0001) cg2dMaxIters =   /* Upper limit on 2d con. grad iterations  */
(PID.TID 0000.0001)                    1000
(PID.TID 0000.0001)     ;
(PID.TID 0000.0001) cg2dChkResFreq =   /* 2d con. grad convergence test frequency */
(PID.TID 0000.0001)                       1
(PID.TID 0000.0001)     ;
(PID.TID 0000.0001) cg2dUseMinResSol= /* use cg2d last-iter(=0) / min-resid.(=1) solution */
(PID.TID 0000.0001)                       0
(PID.TID 0000.0001)     ;
(PID.TID 0000.0001) cg2dTargetResidual =   /* 2d con. grad target residual  */
(PID.TID 0000.0001)                 1.000000000000000E-13
(PID.TID 0000.0001)     ;
(PID.TID 0000.0001) cg2dTargetResWunit =   /* CG2d target residual [W units] */
(PID.TID 0000.0001)                -1.000000000000000E+00
(PID.TID 0000.0001)     ;
(PID.TID 0000.0001) cg2dPreCondFreq =   /* Freq. for updating cg2d preconditioner */
(PID.TID 0000.0001)                       1
(PID.TID 0000.0001)     ;
(PID.TID 0000.0001) useSRCGSolver =  /* use single reduction CG solver(s) */
(PID.TID 0000.0001)                   F
(PID.TID 0000.0001)     ;
(PID.TID 0000.0001) printResidualFreq = /* Freq. for printing CG residual */
(PID.TID 0000.0001)                       0
(PID.TID 0000.0001)     ;
(PID.TID 0000.0001) //
(PID.TID 0000.0001) // Time stepping paramters ( PARM03 in namelist )
(PID.TID 0000.0001) //
(PID.TID 0000.0001) deltaTMom =   /* Momentum equation timestep ( s ) */
(PID.TID 0000.0001)                 3.600000000000000E+03
(PID.TID 0000.0001)     ;
(PID.TID 0000.0001) deltaTFreeSurf = /* FreeSurface equation timestep ( s ) */
(PID.TID 0000.0001)                 3.600000000000000E+03
(PID.TID 0000.0001)     ;
(PID.TID 0000.0001) dTtracerLev =  /* Tracer equation timestep ( s ) */
(PID.TID 0000.0001)    25 @  3.600000000000000E+03              /* K =  1: 25 */
(PID.TID 0000.0001)     ;
(PID.TID 0000.0001) deltaTClock  =   /* Model clock timestep ( s ) */
(PID.TID 0000.0001)                 3.600000000000000E+03
(PID.TID 0000.0001)     ;
(PID.TID 0000.0001) cAdjFreq =   /* Convective adjustment interval ( s ) */
(PID.TID 0000.0001)                 3.600000000000000E+03
(PID.TID 0000.0001)     ;
(PID.TID 0000.0001) momForcingOutAB = /* =1: take Momentum Forcing out of Adams-Bash. stepping */
(PID.TID 0000.0001)                       0
(PID.TID 0000.0001)     ;
(PID.TID 0000.0001) tracForcingOutAB = /* =1: take T,S,pTr Forcing out of Adams-Bash. stepping */
(PID.TID 0000.0001)                       0
(PID.TID 0000.0001)     ;
(PID.TID 0000.0001) momDissip_In_AB = /* put Dissipation Tendency in Adams-Bash. stepping */
(PID.TID 0000.0001)                   T
(PID.TID 0000.0001)     ;
(PID.TID 0000.0001) doAB_onGtGs = /* apply AB on Tendencies (rather than on T,S)*/
(PID.TID 0000.0001)                   T
(PID.TID 0000.0001)     ;
(PID.TID 0000.0001) abEps =   /* Adams-Bashforth-2 stabilizing weight */
(PID.TID 0000.0001)                 1.000000000000000E-01
(PID.TID 0000.0001)     ;
(PID.TID 0000.0001) applyExchUV_early = /* Apply EXCH to U,V earlier in time-step */
(PID.TID 0000.0001)                   F
(PID.TID 0000.0001)     ;
(PID.TID 0000.0001) pickupStrictlyMatch= /* stop if pickup do not strictly match */
(PID.TID 0000.0001)                   T
(PID.TID 0000.0001)     ;
(PID.TID 0000.0001) nIter0   =   /* Run starting timestep number */
(PID.TID 0000.0001)                       0
(PID.TID 0000.0001)     ;
(PID.TID 0000.0001) nTimeSteps = /* Number of timesteps */
(PID.TID 0000.0001)                      25
(PID.TID 0000.0001)     ;
(PID.TID 0000.0001) nEndIter =   /* Run ending timestep number */
(PID.TID 0000.0001)                      25
(PID.TID 0000.0001)     ;
(PID.TID 0000.0001) baseTime =   /* Model base time ( s ) */
(PID.TID 0000.0001)                 0.000000000000000E+00
(PID.TID 0000.0001)     ;
(PID.TID 0000.0001) startTime =  /* Run start time ( s ) */
(PID.TID 0000.0001)                 0.000000000000000E+00
(PID.TID 0000.0001)     ;
(PID.TID 0000.0001) endTime  =   /* Integration ending time ( s ) */
(PID.TID 0000.0001)                 9.000000000000000E+04
(PID.TID 0000.0001)     ;
(PID.TID 0000.0001) pChkPtFreq = /* Permanent restart/pickup file interval ( s ) */
(PID.TID 0000.0001)                 0.000000000000000E+00
(PID.TID 0000.0001)     ;
(PID.TID 0000.0001) chkPtFreq  = /* Rolling restart/pickup file interval ( s ) */
(PID.TID 0000.0001)                 0.000000000000000E+00
(PID.TID 0000.0001)     ;
(PID.TID 0000.0001) pickup_write_mdsio =   /* Model IO flag. */
(PID.TID 0000.0001)                   T
(PID.TID 0000.0001)     ;
(PID.TID 0000.0001) pickup_read_mdsio =   /* Model IO flag. */
(PID.TID 0000.0001)                   T
(PID.TID 0000.0001)     ;
(PID.TID 0000.0001) writePickupAtEnd =   /* Model IO flag. */
(PID.TID 0000.0001)                   T
(PID.TID 0000.0001)     ;
(PID.TID 0000.0001) dumpFreq =   /* Model state write out interval ( s ). */
(PID.TID 0000.0001)                 2.592000000000000E+06
(PID.TID 0000.0001)     ;
(PID.TID 0000.0001) dumpInitAndLast= /* write out Initial & Last iter. model state */
(PID.TID 0000.0001)                   T
(PID.TID 0000.0001)     ;
(PID.TID 0000.0001) snapshot_mdsio =   /* Model IO flag. */
(PID.TID 0000.0001)                   T
(PID.TID 0000.0001)     ;
(PID.TID 0000.0001) monitorFreq =   /* Monitor output interval ( s ). */
(PID.TID 0000.0001)                 1.000000000000000E+00
(PID.TID 0000.0001)     ;
(PID.TID 0000.0001) monitorSelect = /* select group of variables to monitor */
(PID.TID 0000.0001)                       1
(PID.TID 0000.0001)     ;
(PID.TID 0000.0001) monitor_stdio =   /* Model IO flag. */
(PID.TID 0000.0001)                   T
(PID.TID 0000.0001)     ;
(PID.TID 0000.0001) externForcingPeriod =   /* forcing period (s) */
(PID.TID 0000.0001)                 0.000000000000000E+00
(PID.TID 0000.0001)     ;
(PID.TID 0000.0001) externForcingCycle =   /* period of the cyle (s). */
(PID.TID 0000.0001)                 0.000000000000000E+00
(PID.TID 0000.0001)     ;
(PID.TID 0000.0001) tauThetaClimRelax =   /* relaxation time scale (s) */
(PID.TID 0000.0001)                 0.000000000000000E+00
(PID.TID 0000.0001)     ;
(PID.TID 0000.0001) tauSaltClimRelax =   /* relaxation time scale (s) */
(PID.TID 0000.0001)                 0.000000000000000E+00
(PID.TID 0000.0001)     ;
(PID.TID 0000.0001) latBandClimRelax =   /* max. Lat. where relaxation */
(PID.TID 0000.0001)                 9.600000000000000E+06
(PID.TID 0000.0001)     ;
(PID.TID 0000.0001) //
(PID.TID 0000.0001) // Gridding paramters ( PARM04 in namelist )
(PID.TID 0000.0001) //
(PID.TID 0000.0001) usingCartesianGrid = /* Cartesian coordinates flag ( True/False ) */
(PID.TID 0000.0001)                   T
(PID.TID 0000.0001)     ;
(PID.TID 0000.0001) usingCylindricalGrid = /* Cylindrical coordinates flag ( True/False ) */
(PID.TID 0000.0001)                   F
(PID.TID 0000.0001)     ;
(PID.TID 0000.0001) usingSphericalPolarGrid = /* Spherical coordinates flag ( True/False ) */
(PID.TID 0000.0001)                   F
(PID.TID 0000.0001)     ;
(PID.TID 0000.0001) usingCurvilinearGrid = /* Curvilinear coordinates flag ( True/False ) */
(PID.TID 0000.0001)                   F
(PID.TID 0000.0001)     ;
(PID.TID 0000.0001) useMin4hFacEdges = /* set hFacW,S as minimum of adjacent hFacC factor */
(PID.TID 0000.0001)                   F
(PID.TID 0000.0001)     ;
(PID.TID 0000.0001) interViscAr_pCell = /* account for partial-cell in interior vert. viscosity */
(PID.TID 0000.0001)                   F
(PID.TID 0000.0001)     ;
(PID.TID 0000.0001) interDiffKr_pCell = /* account for partial-cell in interior vert. diffusion */
(PID.TID 0000.0001)                   F
(PID.TID 0000.0001)     ;
(PID.TID 0000.0001) pCellMix_select = /* option to enhance mixing near surface & bottom */
(PID.TID 0000.0001)                       0
(PID.TID 0000.0001)     ;
(PID.TID 0000.0001) selectSigmaCoord = /* Hybrid-Sigma Vert. Coordinate option */
(PID.TID 0000.0001)                       0
(PID.TID 0000.0001)     ;
(PID.TID 0000.0001) rSigmaBnd = /* r/sigma transition ( units of r ==  m ) */
(PID.TID 0000.0001)                 1.234567000000000E+05
(PID.TID 0000.0001)     ;
(PID.TID 0000.0001) rkSign =   /* index orientation relative to vertical coordinate */
(PID.TID 0000.0001)                -1.000000000000000E+00
(PID.TID 0000.0001)     ;
(PID.TID 0000.0001) gravitySign = /* gravity orientation relative to vertical coordinate */
(PID.TID 0000.0001)                -1.000000000000000E+00
(PID.TID 0000.0001)     ;
(PID.TID 0000.0001) seaLev_Z =  /* reference height of sea-level [m] */
(PID.TID 0000.0001)                 0.000000000000000E+00
(PID.TID 0000.0001)     ;
(PID.TID 0000.0001) top_Pres =  /* reference pressure at the top [Pa] */
(PID.TID 0000.0001)                 0.000000000000000E+00
(PID.TID 0000.0001)     ;
(PID.TID 0000.0001) mass2rUnit = /* convert mass per unit area [kg/m2] to r-units [m] */
(PID.TID 0000.0001)                 1.000000000000000E-03
(PID.TID 0000.0001)     ;
(PID.TID 0000.0001) rUnit2mass = /* convert r-units [m] to mass per unit area [kg/m2] */
(PID.TID 0000.0001)                 1.000000000000000E+03
(PID.TID 0000.0001)     ;
(PID.TID 0000.0001) drC =   /* C spacing ( units of r ) */
(PID.TID 0000.0001)                 1.000000000000000E+01,      /* K =  1 */
(PID.TID 0000.0001)     9 @  2.000000000000000E+01,             /* K =  2: 10 */
(PID.TID 0000.0001)                 2.200000000000000E+01,      /* K = 11 */
(PID.TID 0000.0001)                 2.650000000000000E+01,      /* K = 12 */
(PID.TID 0000.0001)                 3.200000000000000E+01,      /* K = 13 */
(PID.TID 0000.0001)                 3.850000000000000E+01,      /* K = 14 */
(PID.TID 0000.0001)                 4.650000000000000E+01,      /* K = 15 */
(PID.TID 0000.0001)                 5.600000000000000E+01,      /* K = 16 */
(PID.TID 0000.0001)                 6.750000000000000E+01,      /* K = 17 */
(PID.TID 0000.0001)                 8.150000000000000E+01,      /* K = 18 */
(PID.TID 0000.0001)                 9.800000000000000E+01,      /* K = 19 */
(PID.TID 0000.0001)                 1.175000000000000E+02,      /* K = 20 */
(PID.TID 0000.0001)                 1.415000000000000E+02,      /* K = 21 */
(PID.TID 0000.0001)                 1.705000000000000E+02,      /* K = 22 */
(PID.TID 0000.0001)                 2.050000000000000E+02,      /* K = 23 */
(PID.TID 0000.0001)                 2.470000000000000E+02,      /* K = 24 */
(PID.TID 0000.0001)                 2.975000000000000E+02,      /* K = 25 */
(PID.TID 0000.0001)                 1.625000000000000E+02       /* K = 26 */
(PID.TID 0000.0001)     ;
(PID.TID 0000.0001) drF =   /* W spacing ( units of r ) */
(PID.TID 0000.0001)    10 @  2.000000000000000E+01,             /* K =  1: 10 */
(PID.TID 0000.0001)                 2.400000000000000E+01,      /* K = 11 */
(PID.TID 0000.0001)                 2.900000000000000E+01,      /* K = 12 */
(PID.TID 0000.0001)                 3.500000000000000E+01,      /* K = 13 */
(PID.TID 0000.0001)                 4.200000000000000E+01,      /* K = 14 */
(PID.TID 0000.0001)                 5.100000000000000E+01,      /* K = 15 */
(PID.TID 0000.0001)                 6.100000000000000E+01,      /* K = 16 */
(PID.TID 0000.0001)                 7.400000000000000E+01,      /* K = 17 */
(PID.TID 0000.0001)                 8.900000000000000E+01,      /* K = 18 */
(PID.TID 0000.0001)                 1.070000000000000E+02,      /* K = 19 */
(PID.TID 0000.0001)                 1.280000000000000E+02,      /* K = 20 */
(PID.TID 0000.0001)                 1.550000000000000E+02,      /* K = 21 */
(PID.TID 0000.0001)                 1.860000000000000E+02,      /* K = 22 */
(PID.TID 0000.0001)                 2.240000000000000E+02,      /* K = 23 */
(PID.TID 0000.0001)                 2.700000000000000E+02,      /* K = 24 */
(PID.TID 0000.0001)                 3.250000000000000E+02       /* K = 25 */
(PID.TID 0000.0001)     ;
(PID.TID 0000.0001) delX = /* U spacing ( m - cartesian, degrees - spherical ) */
(PID.TID 0000.0001)                 1.000000000000000E+05       /* I =  1 */
(PID.TID 0000.0001)     ;
(PID.TID 0000.0001) delY = /* V spacing ( m - cartesian, degrees - spherical ) */
(PID.TID 0000.0001)    32 @  1.000000000000000E+05              /* J =  1: 32 */
(PID.TID 0000.0001)     ;
(PID.TID 0000.0001) xgOrigin = /* X-axis origin of West  edge (cartesian: m, lat-lon: deg) */
(PID.TID 0000.0001)                 0.000000000000000E+00
(PID.TID 0000.0001)     ;
(PID.TID 0000.0001) ygOrigin = /* Y-axis origin of South edge (cartesian: m, lat-lon: deg) */
(PID.TID 0000.0001)                 0.000000000000000E+00
(PID.TID 0000.0001)     ;
(PID.TID 0000.0001) rSphere =  /* Radius ( ignored - cartesian, m - spherical ) */
(PID.TID 0000.0001)                 6.370000000000000E+06
(PID.TID 0000.0001)     ;
(PID.TID 0000.0001) deepAtmosphere = /* Deep/Shallow Atmosphere flag (True/False) */
(PID.TID 0000.0001)                   F
(PID.TID 0000.0001)     ;
(PID.TID 0000.0001) xC =  /* xC(:,1,:,1) : P-point X coord ( deg. or m if cartesian) */
(PID.TID 0000.0001)                 5.000000000000000E+04       /* I =  1 */
(PID.TID 0000.0001)     ;
(PID.TID 0000.0001) yC =  /* yC(1,:,1,:) : P-point Y coord ( deg. or m if cartesian) */
(PID.TID 0000.0001)                 5.000000000000000E+04,      /* J =  1 */
(PID.TID 0000.0001)                 1.500000000000000E+05,      /* J =  2 */
(PID.TID 0000.0001)                 2.500000000000000E+05,      /* J =  3 */
(PID.TID 0000.0001)                 3.500000000000000E+05,      /* J =  4 */
(PID.TID 0000.0001)                 4.500000000000000E+05,      /* J =  5 */
(PID.TID 0000.0001)                 5.500000000000000E+05,      /* J =  6 */
(PID.TID 0000.0001)                 6.500000000000000E+05,      /* J =  7 */
(PID.TID 0000.0001)                 7.500000000000000E+05,      /* J =  8 */
(PID.TID 0000.0001)                 8.500000000000000E+05,      /* J =  9 */
(PID.TID 0000.0001)                 9.500000000000000E+05,      /* J = 10 */
(PID.TID 0000.0001)                 1.050000000000000E+06,      /* J = 11 */
(PID.TID 0000.0001)                 1.150000000000000E+06,      /* J = 12 */
(PID.TID 0000.0001)                 1.250000000000000E+06,      /* J = 13 */
(PID.TID 0000.0001)                 1.350000000000000E+06,      /* J = 14 */
(PID.TID 0000.0001)                 1.450000000000000E+06,      /* J = 15 */
(PID.TID 0000.0001)                 1.550000000000000E+06,      /* J = 16 */
(PID.TID 0000.0001)                 1.650000000000000E+06,      /* J = 17 */
(PID.TID 0000.0001)                 1.750000000000000E+06,      /* J = 18 */
(PID.TID 0000.0001)                 1.850000000000000E+06,      /* J = 19 */
(PID.TID 0000.0001)                 1.950000000000000E+06,      /* J = 20 */
(PID.TID 0000.0001)                 2.050000000000000E+06,      /* J = 21 */
(PID.TID 0000.0001)                 2.150000000000000E+06,      /* J = 22 */
(PID.TID 0000.0001)                 2.250000000000000E+06,      /* J = 23 */
(PID.TID 0000.0001)                 2.350000000000000E+06,      /* J = 24 */
(PID.TID 0000.0001)                 2.450000000000000E+06,      /* J = 25 */
(PID.TID 0000.0001)                 2.550000000000000E+06,      /* J = 26 */
(PID.TID 0000.0001)                 2.650000000000000E+06,      /* J = 27 */
(PID.TID 0000.0001)                 2.750000000000000E+06,      /* J = 28 */
(PID.TID 0000.0001)                 2.850000000000000E+06,      /* J = 29 */
(PID.TID 0000.0001)                 2.950000000000000E+06,      /* J = 30 */
(PID.TID 0000.0001)                 3.050000000000000E+06,      /* J = 31 */
(PID.TID 0000.0001)                 3.150000000000000E+06       /* J = 32 */
(PID.TID 0000.0001)     ;
(PID.TID 0000.0001) rcoord = /* P-point R coordinate (  units of r ) */
(PID.TID 0000.0001)                -1.000000000000000E+01,      /* K =  1 */
(PID.TID 0000.0001)                -3.000000000000000E+01,      /* K =  2 */
(PID.TID 0000.0001)                -5.000000000000000E+01,      /* K =  3 */
(PID.TID 0000.0001)                -7.000000000000000E+01,      /* K =  4 */
(PID.TID 0000.0001)                -9.000000000000000E+01,      /* K =  5 */
(PID.TID 0000.0001)                -1.100000000000000E+02,      /* K =  6 */
(PID.TID 0000.0001)                -1.300000000000000E+02,      /* K =  7 */
(PID.TID 0000.0001)                -1.500000000000000E+02,      /* K =  8 */
(PID.TID 0000.0001)                -1.700000000000000E+02,      /* K =  9 */
(PID.TID 0000.0001)                -1.900000000000000E+02,      /* K = 10 */
(PID.TID 0000.0001)                -2.120000000000000E+02,      /* K = 11 */
(PID.TID 0000.0001)                -2.385000000000000E+02,      /* K = 12 */
(PID.TID 0000.0001)                -2.705000000000000E+02,      /* K = 13 */
(PID.TID 0000.0001)                -3.090000000000000E+02,      /* K = 14 */
(PID.TID 0000.0001)                -3.555000000000000E+02,      /* K = 15 */
(PID.TID 0000.0001)                -4.115000000000000E+02,      /* K = 16 */
(PID.TID 0000.0001)                -4.790000000000000E+02,      /* K = 17 */
(PID.TID 0000.0001)                -5.605000000000000E+02,      /* K = 18 */
(PID.TID 0000.0001)                -6.585000000000000E+02,      /* K = 19 */
(PID.TID 0000.0001)                -7.760000000000000E+02,      /* K = 20 */
(PID.TID 0000.0001)                -9.175000000000000E+02,      /* K = 21 */
(PID.TID 0000.0001)                -1.088000000000000E+03,      /* K = 22 */
(PID.TID 0000.0001)                -1.293000000000000E+03,      /* K = 23 */
(PID.TID 0000.0001)                -1.540000000000000E+03,      /* K = 24 */
(PID.TID 0000.0001)                -1.837500000000000E+03       /* K = 25 */
(PID.TID 0000.0001)     ;
(PID.TID 0000.0001) rF =   /* W-Interf. R coordinate (  units of r ) */
(PID.TID 0000.0001)                 0.000000000000000E+00,      /* K =  1 */
(PID.TID 0000.0001)                -2.000000000000000E+01,      /* K =  2 */
(PID.TID 0000.0001)                -4.000000000000000E+01,      /* K =  3 */
(PID.TID 0000.0001)                -6.000000000000000E+01,      /* K =  4 */
(PID.TID 0000.0001)                -8.000000000000000E+01,      /* K =  5 */
(PID.TID 0000.0001)                -1.000000000000000E+02,      /* K =  6 */
(PID.TID 0000.0001)                -1.200000000000000E+02,      /* K =  7 */
(PID.TID 0000.0001)                -1.400000000000000E+02,      /* K =  8 */
(PID.TID 0000.0001)                -1.600000000000000E+02,      /* K =  9 */
(PID.TID 0000.0001)                -1.800000000000000E+02,      /* K = 10 */
(PID.TID 0000.0001)                -2.000000000000000E+02,      /* K = 11 */
(PID.TID 0000.0001)                -2.240000000000000E+02,      /* K = 12 */
(PID.TID 0000.0001)                -2.530000000000000E+02,      /* K = 13 */
(PID.TID 0000.0001)                -2.880000000000000E+02,      /* K = 14 */
(PID.TID 0000.0001)                -3.300000000000000E+02,      /* K = 15 */
(PID.TID 0000.0001)                -3.810000000000000E+02,      /* K = 16 */
(PID.TID 0000.0001)                -4.420000000000000E+02,      /* K = 17 */
(PID.TID 0000.0001)                -5.160000000000000E+02,      /* K = 18 */
(PID.TID 0000.0001)                -6.050000000000000E+02,      /* K = 19 */
(PID.TID 0000.0001)                -7.120000000000000E+02,      /* K = 20 */
(PID.TID 0000.0001)                -8.400000000000000E+02,      /* K = 21 */
(PID.TID 0000.0001)                -9.950000000000000E+02,      /* K = 22 */
(PID.TID 0000.0001)                -1.181000000000000E+03,      /* K = 23 */
(PID.TID 0000.0001)                -1.405000000000000E+03,      /* K = 24 */
(PID.TID 0000.0001)                -1.675000000000000E+03,      /* K = 25 */
(PID.TID 0000.0001)                -2.000000000000000E+03       /* K = 26 */
(PID.TID 0000.0001)     ;
(PID.TID 0000.0001) deepFacC = /* deep-model grid factor @ cell-Center (-) */
(PID.TID 0000.0001)    25 @  1.000000000000000E+00              /* K =  1: 25 */
(PID.TID 0000.0001)     ;
(PID.TID 0000.0001) deepFacF = /* deep-model grid factor @ W-Interface (-) */
(PID.TID 0000.0001)    26 @  1.000000000000000E+00              /* K =  1: 26 */
(PID.TID 0000.0001)     ;
(PID.TID 0000.0001) rVel2wUnit = /* convert units: rVel -> wSpeed (=1 if z-coord)*/
(PID.TID 0000.0001)    26 @  1.000000000000000E+00              /* K =  1: 26 */
(PID.TID 0000.0001)     ;
(PID.TID 0000.0001) wUnit2rVel = /* convert units: wSpeed -> rVel (=1 if z-coord)*/
(PID.TID 0000.0001)    26 @  1.000000000000000E+00              /* K =  1: 26 */
(PID.TID 0000.0001)     ;
(PID.TID 0000.0001) dBdrRef = /* Vertical grad. of reference buoyancy [(m/s/r)^2] */
(PID.TID 0000.0001)                 0.000000000000000E+00,      /* K =  1 */
(PID.TID 0000.0001)     9 @  9.810000000000001E-05,             /* K =  2: 10 */
(PID.TID 0000.0001)                 8.918181818181819E-05,      /* K = 11 */
(PID.TID 0000.0001)                 7.403773584905661E-05,      /* K = 12 */
(PID.TID 0000.0001)                 6.131250000000001E-05,      /* K = 13 */
(PID.TID 0000.0001)                 5.096103896103897E-05,      /* K = 14 */
(PID.TID 0000.0001)                 4.219354838709678E-05,      /* K = 15 */
(PID.TID 0000.0001)                 3.503571428571429E-05,      /* K = 16 */
(PID.TID 0000.0001)                 2.906666666666667E-05,      /* K = 17 */
(PID.TID 0000.0001)                 2.407361963190185E-05,      /* K = 18 */
(PID.TID 0000.0001)                 2.002040816326531E-05,      /* K = 19 */
(PID.TID 0000.0001)                 1.669787234042553E-05,      /* K = 20 */
(PID.TID 0000.0001)                 1.386572438162544E-05,      /* K = 21 */
(PID.TID 0000.0001)                 2.301466275659825E-05,      /* K = 22 */
(PID.TID 0000.0001)                -9.570731707317075E-06,      /* K = 23 */
(PID.TID 0000.0001)                 1.588663967611337E-05,      /* K = 24 */
(PID.TID 0000.0001)                 6.594957983193279E-06       /* K = 25 */
(PID.TID 0000.0001)     ;
(PID.TID 0000.0001) rotateGrid = /* use rotated grid ( True/False ) */
(PID.TID 0000.0001)                   F
(PID.TID 0000.0001)     ;
(PID.TID 0000.0001) phiEuler = /* Euler angle, rotation about original z-coordinate [rad] */
(PID.TID 0000.0001)                 0.000000000000000E+00
(PID.TID 0000.0001)     ;
(PID.TID 0000.0001) thetaEuler = /* Euler angle, rotation about new x-coordinate [rad] */
(PID.TID 0000.0001)                 0.000000000000000E+00
(PID.TID 0000.0001)     ;
(PID.TID 0000.0001) psiEuler = /* Euler angle, rotation about new z-coordinate [rad] */
(PID.TID 0000.0001)                 0.000000000000000E+00
(PID.TID 0000.0001)     ;
(PID.TID 0000.0001) dxF =  /* dxF(:,1,:,1) ( units: m ) */
(PID.TID 0000.0001)                 1.000000000000000E+05       /* I =  1 */
(PID.TID 0000.0001)     ;
(PID.TID 0000.0001) dxF =  /* dxF(1,:,1,:) ( units: m ) */
(PID.TID 0000.0001)    32 @  1.000000000000000E+05              /* J =  1: 32 */
(PID.TID 0000.0001)     ;
(PID.TID 0000.0001) dyF =  /* dyF(:,1,:,1) ( units: m ) */
(PID.TID 0000.0001)                 1.000000000000000E+05       /* I =  1 */
(PID.TID 0000.0001)     ;
(PID.TID 0000.0001) dyF =  /* dyF(1,:,1,:) ( units: m ) */
(PID.TID 0000.0001)    32 @  1.000000000000000E+05              /* J =  1: 32 */
(PID.TID 0000.0001)     ;
(PID.TID 0000.0001) dxG =  /* dxG(:,1,:,1) ( units: m ) */
(PID.TID 0000.0001)                 1.000000000000000E+05       /* I =  1 */
(PID.TID 0000.0001)     ;
(PID.TID 0000.0001) dxG =  /* dxG(1,:,1,:) ( units: m ) */
(PID.TID 0000.0001)    32 @  1.000000000000000E+05              /* J =  1: 32 */
(PID.TID 0000.0001)     ;
(PID.TID 0000.0001) dyG =  /* dyG(:,1,:,1) ( units: m ) */
(PID.TID 0000.0001)                 1.000000000000000E+05       /* I =  1 */
(PID.TID 0000.0001)     ;
(PID.TID 0000.0001) dyG =  /* dyG(1,:,1,:) ( units: m ) */
(PID.TID 0000.0001)    32 @  1.000000000000000E+05              /* J =  1: 32 */
(PID.TID 0000.0001)     ;
(PID.TID 0000.0001) dxC =  /* dxC(:,1,:,1) ( units: m ) */
(PID.TID 0000.0001)                 1.000000000000000E+05       /* I =  1 */
(PID.TID 0000.0001)     ;
(PID.TID 0000.0001) dxC =  /* dxC(1,:,1,:) ( units: m ) */
(PID.TID 0000.0001)    32 @  1.000000000000000E+05              /* J =  1: 32 */
(PID.TID 0000.0001)     ;
(PID.TID 0000.0001) dyC =  /* dyC(:,1,:,1) ( units: m ) */
(PID.TID 0000.0001)                 1.000000000000000E+05       /* I =  1 */
(PID.TID 0000.0001)     ;
(PID.TID 0000.0001) dyC =  /* dyC(1,:,1,:) ( units: m ) */
(PID.TID 0000.0001)    32 @  1.000000000000000E+05              /* J =  1: 32 */
(PID.TID 0000.0001)     ;
(PID.TID 0000.0001) dxV =  /* dxV(:,1,:,1) ( units: m ) */
(PID.TID 0000.0001)                 1.000000000000000E+05       /* I =  1 */
(PID.TID 0000.0001)     ;
(PID.TID 0000.0001) dxV =  /* dxV(1,:,1,:) ( units: m ) */
(PID.TID 0000.0001)    32 @  1.000000000000000E+05              /* J =  1: 32 */
(PID.TID 0000.0001)     ;
(PID.TID 0000.0001) dyU =  /* dyU(:,1,:,1) ( units: m ) */
(PID.TID 0000.0001)                 1.000000000000000E+05       /* I =  1 */
(PID.TID 0000.0001)     ;
(PID.TID 0000.0001) dyU =  /* dyU(1,:,1,:) ( units: m ) */
(PID.TID 0000.0001)    32 @  1.000000000000000E+05              /* J =  1: 32 */
(PID.TID 0000.0001)     ;
(PID.TID 0000.0001) rA  =  /* rA (:,1,:,1) ( units: m^2 ) */
(PID.TID 0000.0001)                 1.000000000000000E+10       /* I =  1 */
(PID.TID 0000.0001)     ;
(PID.TID 0000.0001) rA  =  /* rA (1,:,1,:) ( units: m^2 ) */
(PID.TID 0000.0001)    32 @  1.000000000000000E+10              /* J =  1: 32 */
(PID.TID 0000.0001)     ;
(PID.TID 0000.0001) rAw =  /* rAw(:,1,:,1) ( units: m^2 ) */
(PID.TID 0000.0001)                 1.000000000000000E+10       /* I =  1 */
(PID.TID 0000.0001)     ;
(PID.TID 0000.0001) rAw =  /* rAw(1,:,1,:) ( units: m^2 ) */
(PID.TID 0000.0001)    32 @  1.000000000000000E+10              /* J =  1: 32 */
(PID.TID 0000.0001)     ;
(PID.TID 0000.0001) rAs =  /* rAs(:,1,:,1) ( units: m^2 ) */
(PID.TID 0000.0001)                 1.000000000000000E+10       /* I =  1 */
(PID.TID 0000.0001)     ;
(PID.TID 0000.0001) rAs =  /* rAs(1,:,1,:) ( units: m^2 ) */
(PID.TID 0000.0001)    32 @  1.000000000000000E+10              /* J =  1: 32 */
(PID.TID 0000.0001)     ;
(PID.TID 0000.0001) globalArea = /* Integrated horizontal Area (m^2) */
(PID.TID 0000.0001)                 3.000000000000000E+11
(PID.TID 0000.0001)     ;
(PID.TID 0000.0001) // =======================================================
(PID.TID 0000.0001) // End of Model config. summary
(PID.TID 0000.0001) // =======================================================
(PID.TID 0000.0001) 
(PID.TID 0000.0001) == Packages configuration : Check & print summary ==
(PID.TID 0000.0001) 
(PID.TID 0000.0001) GMREDI_CHECK: #define GMREDI
(PID.TID 0000.0001) GM_AdvForm =     /* if FALSE => use SkewFlux Form */
(PID.TID 0000.0001)                   T
(PID.TID 0000.0001)     ;
(PID.TID 0000.0001) GM_InMomAsStress = /* if TRUE => apply as Eddy Stress */
(PID.TID 0000.0001)                   F
(PID.TID 0000.0001)     ;
(PID.TID 0000.0001) GM_AdvSeparate = /* Calc Bolus & Euler Adv. separately */
(PID.TID 0000.0001)                   F
(PID.TID 0000.0001)     ;
(PID.TID 0000.0001) GM_ExtraDiag =   /* Tensor Extra Diag (line 1&2) non 0 */
(PID.TID 0000.0001)                   T
(PID.TID 0000.0001)     ;
(PID.TID 0000.0001) GM_isopycK =    /* Background Isopyc. Diffusivity [m^2/s] */
(PID.TID 0000.0001)                 1.000000000000000E+03
(PID.TID 0000.0001)     ;
(PID.TID 0000.0001) GM_skewflx*K =  /* Background GM_SkewFlx Diffusivity [m^2/s] */
(PID.TID 0000.0001)                 0.000000000000000E+00
(PID.TID 0000.0001)     ;
(PID.TID 0000.0001) GM_advec*K =    /* Backg. GM-Advec(=Bolus) Diffusivity [m^2/s]*/
(PID.TID 0000.0001)                 1.000000000000000E+03
(PID.TID 0000.0001)     ;
(PID.TID 0000.0001) GM_Kmin_horiz = /* Minimum Horizontal Diffusivity [m^2/s] */
(PID.TID 0000.0001)                 0.000000000000000E+00
(PID.TID 0000.0001)     ;
(PID.TID 0000.0001) GM_Visbeck_alpha = /* Visbeck alpha coeff. [-] */
(PID.TID 0000.0001)                 0.000000000000000E+00
(PID.TID 0000.0001)     ;
(PID.TID 0000.0001) GM_Small_Number =  /* epsilon used in slope calc */
(PID.TID 0000.0001)                 9.999999999999999E-21
(PID.TID 0000.0001)     ;
(PID.TID 0000.0001) GM_slopeSqCutoff = /* Slope^2 cut-off value */
(PID.TID 0000.0001)                 1.000000000000000E+48
(PID.TID 0000.0001)     ;
(PID.TID 0000.0001) GM_taper_scheme =  /* Type of Tapering/Clipping scheme */
(PID.TID 0000.0001)               'linear                                  '
(PID.TID 0000.0001)     ;
(PID.TID 0000.0001) GM_maxSlope =  /* Maximum Slope (Tapering/Clipping) */
(PID.TID 0000.0001)                 1.000000000000000E-02
(PID.TID 0000.0001)     ;
(PID.TID 0000.0001) GM_facTrL2dz = /* Minimum Trans.Layer Thick. (factor of dz) */
(PID.TID 0000.0001)                 0.000000000000000E+00
(PID.TID 0000.0001)     ;
(PID.TID 0000.0001) GM_facTrL2ML = /* Max.Trans.Layer Thick. (factor of MxL Depth)*/
(PID.TID 0000.0001)                 5.000000000000000E+00
(PID.TID 0000.0001)     ;
(PID.TID 0000.0001) GM_maxTransLay = /* Maximum Transition Layer Thickness [m] */
(PID.TID 0000.0001)                 5.000000000000000E+02
(PID.TID 0000.0001)     ;
(PID.TID 0000.0001) GM_UseBVP = /* if TRUE => use bvp a la Ferrari et al. (2010) */
(PID.TID 0000.0001)                   T
(PID.TID 0000.0001)     ;
(PID.TID 0000.0001) GM_BVP_ModeNumber = /* Vertical mode number for BVP wave speed */
(PID.TID 0000.0001)                       1
(PID.TID 0000.0001)     ;
(PID.TID 0000.0001) GM_BVP_cMin = /* Minimum wave speed for BVP [m/s] */
(PID.TID 0000.0001)                 1.000000000000000E-01
(PID.TID 0000.0001)     ;
(PID.TID 0000.0001) GM_useSubMeso = /* if TRUE => use Sub-Meso param. (B.Fox-Kemper) */
(PID.TID 0000.0001)                   T
(PID.TID 0000.0001)     ;
(PID.TID 0000.0001) subMeso_Ceff = /* efficiency coeff. of Mixed-Layer Eddies [-] */
(PID.TID 0000.0001)                 7.000000000000001E-02
(PID.TID 0000.0001)     ;
(PID.TID 0000.0001) subMeso_invTau = /* inverse of Sub-Meso mixing time-scale [/s] */
(PID.TID 0000.0001)                 2.000000000000000E-06
(PID.TID 0000.0001)     ;
(PID.TID 0000.0001) subMeso_LfMin = /* minimum length-scale "Lf" [m] */
(PID.TID 0000.0001)                 1.000000000000000E+03
(PID.TID 0000.0001)     ;
(PID.TID 0000.0001) subMeso_Lmax = /* maximum grid-scale length [m] */
(PID.TID 0000.0001)                 1.100000000000000E+05
(PID.TID 0000.0001)     ;
(PID.TID 0000.0001) GAD_CHECK: #define ALLOW_GENERIC_ADVDIFF
(PID.TID 0000.0001) // =======================================================
(PID.TID 0000.0001) // Check Model config. (CONFIG_CHECK):
(PID.TID 0000.0001) // CONFIG_CHECK : Normal End
(PID.TID 0000.0001) // =======================================================
(PID.TID 0000.0001) 
(PID.TID 0000.0001)  MDS_READ_FIELD: opening global file: u_ini.bin
(PID.TID 0000.0001)  MDS_READ_FIELD: opening global file: t_ini.bin
(PID.TID 0000.0001)  MDS_READ_FIELD: opening global file: s_ini.bin
(PID.TID 0000.0001) Start initial hydrostatic pressure computation
(PID.TID 0000.0001) Pressure is predetermined for buoyancyRelation OCEANIC
(PID.TID 0000.0001) 
(PID.TID 0000.0001)  write diagnostics summary to file ioUnit:      6
Iter.Nb:         0 ; Time(s):  0.0000000000000E+00
------------------------------------------------------------------------
2D/3D diagnostics: Number of lists:     3
------------------------------------------------------------------------
listId=    1 ; file name: surfDiag
 nFlds, nActive,       freq     &     phase        , nLev               
    8  |    8  |    -86400.000000         0.000000 |   1
 levels:   1
 diag# | name   |   ipt  |  iMate | kLev|   count |   mate.C|           
    23 |ETAN    |      1 |      0 |   1 |       0 |
    25 |DETADT2 |      2 |      0 |   1 |       0 |
    73 |PHIBOT  |      3 |      0 |   1 |       0 |
    76 |MXLDEPTH|      4 |      0 |   1 |       0 |
   210 |GM_BVPcW|      5 |      6 |   1 |       0 |       0 |
   211 |GM_BVPcS|      6 |      5 |   1 |       0 |       0 |
   193 |SubMesLf|      7 |      0 |   1 |       0 |
   195 |SubMpsiY|      8 |      0 |   1 |       0 |
------------------------------------------------------------------------
listId=    2 ; file name: dynDiag
 nFlds, nActive,       freq     &     phase        , nLev               
    7  |    7  |   -864000.000000         0.000000 |  25
 levels:   1   2   3   4   5   6   7   8   9  10  11  12  13  14  15  16  17  18  19  20  21  22  23  24  25
 diag# | name   |   ipt  |  iMate | kLev|   count |   mate.C|           
    30 |UVEL    |      9 |     34 |  25 |       0 |       0 |
    31 |VVEL    |     34 |      9 |  25 |       0 |       0 |
    32 |WVEL    |     59 |      0 |  25 |       0 |
    71 |PHIHYD  |     84 |      0 |  25 |       0 |
    26 |THETA   |    109 |      0 |  25 |       0 |
    33 |THETASQ |    134 |      0 |  25 |       0 |
    36 |UVELSQ  |    159 |      0 |  25 |       0 |
------------------------------------------------------------------------
listId=    3 ; file name: oceDiag
 nFlds, nActive,       freq     &     phase        , nLev               
    8  |    8  |    -86400.000000         0.000000 |  25
 levels:   1   2   3   4   5   6   7   8   9  10  11  12  13  14  15  16  17  18  19  20  21  22  23  24  25
 diag# | name   |   ipt  |  iMate | kLev|   count |   mate.C|           
    77 |DRHODR  |    184 |      0 |  25 |       0 |
    64 |RHOAnoma|    209 |      0 |  25 |       0 |
   201 |GM_Kwy  |    234 |      0 |  25 |       0 |
   202 |GM_Kwz  |    259 |      0 |  25 |       0 |
   197 |GM_Kvy  |    284 |      0 |  25 |       0 |
    26 |THETA   |    309 |      0 |  25 |       0 |
   204 |GM_PsiY |    334 |      0 |  25 |       0 |
   199 |GM_Kvz  |    359 |      0 |  25 |       0 |
------------------------------------------------------------------------
Global & Regional Statistics diagnostics: Number of lists:     0
------------------------------------------------------------------------
(PID.TID 0000.0001) // =======================================================
(PID.TID 0000.0001) // Model current state
(PID.TID 0000.0001) // =======================================================
(PID.TID 0000.0001) 
(PID.TID 0000.0001) // =======================================================
(PID.TID 0000.0001) // Begin MONITOR dynamic field statistics
(PID.TID 0000.0001) // =======================================================
(PID.TID 0000.0001) %MON time_tsnumber                =                     0
(PID.TID 0000.0001) %MON time_secondsf                =   0.0000000000000E+00
(PID.TID 0000.0001) %MON dynstat_eta_max              =   0.0000000000000E+00
(PID.TID 0000.0001) %MON dynstat_eta_min              =   0.0000000000000E+00
(PID.TID 0000.0001) %MON dynstat_eta_mean             =   0.0000000000000E+00
(PID.TID 0000.0001) %MON dynstat_eta_sd               =   0.0000000000000E+00
(PID.TID 0000.0001) %MON dynstat_eta_del2             =   0.0000000000000E+00
(PID.TID 0000.0001) %MON dynstat_uvel_max             =   1.2708890949034E-01
(PID.TID 0000.0001) %MON dynstat_uvel_min             =  -1.2708890949034E-01
(PID.TID 0000.0001) %MON dynstat_uvel_mean            =  -5.4975756068516E-06
(PID.TID 0000.0001) %MON dynstat_uvel_sd              =   2.0322315569060E-02
(PID.TID 0000.0001) %MON dynstat_uvel_del2            =   5.0509287841793E-04
(PID.TID 0000.0001) %MON dynstat_vvel_max             =   0.0000000000000E+00
(PID.TID 0000.0001) %MON dynstat_vvel_min             =   0.0000000000000E+00
(PID.TID 0000.0001) %MON dynstat_vvel_mean            =   0.0000000000000E+00
(PID.TID 0000.0001) %MON dynstat_vvel_sd              =   0.0000000000000E+00
(PID.TID 0000.0001) %MON dynstat_vvel_del2            =   0.0000000000000E+00
(PID.TID 0000.0001) %MON dynstat_wvel_max             =  -0.0000000000000E+00
(PID.TID 0000.0001) %MON dynstat_wvel_min             =  -0.0000000000000E+00
(PID.TID 0000.0001) %MON dynstat_wvel_mean            =   0.0000000000000E+00
(PID.TID 0000.0001) %MON dynstat_wvel_sd              =   0.0000000000000E+00
(PID.TID 0000.0001) %MON dynstat_wvel_del2            =   0.0000000000000E+00
(PID.TID 0000.0001) %MON dynstat_theta_max            =   1.3324548570971E+01
(PID.TID 0000.0001) %MON dynstat_theta_min            =   6.2538226645252E+00
(PID.TID 0000.0001) %MON dynstat_theta_mean           =   8.4642401720337E+00
(PID.TID 0000.0001) %MON dynstat_theta_sd             =   1.4059935903981E+00
(PID.TID 0000.0001) %MON dynstat_theta_del2           =   7.4185613820284E-03
(PID.TID 0000.0001) %MON dynstat_salt_max             =   1.1996530790116E+01
(PID.TID 0000.0001) %MON dynstat_salt_min             =   1.0464440295541E+01
(PID.TID 0000.0001) %MON dynstat_salt_mean            =   1.1308841661162E+01
(PID.TID 0000.0001) %MON dynstat_salt_sd              =   5.1722696788685E-01
(PID.TID 0000.0001) %MON dynstat_salt_del2            =   5.6431444333042E-04
(PID.TID 0000.0001) %MON advcfl_uvel_max              =   4.5752007416521E-03
(PID.TID 0000.0001) %MON advcfl_vvel_max              =   0.0000000000000E+00
(PID.TID 0000.0001) %MON advcfl_wvel_max              =   0.0000000000000E+00
(PID.TID 0000.0001) %MON advcfl_W_hf_max              =   0.0000000000000E+00
(PID.TID 0000.0001) %MON pe_b_mean                    =   0.0000000000000E+00
(PID.TID 0000.0001) %MON ke_max                       =   8.0757954577213E-03
(PID.TID 0000.0001) %MON ke_mean                      =   2.0649827015589E-04
(PID.TID 0000.0001) %MON ke_vol                       =   5.0981346415358E+14
(PID.TID 0000.0001) // =======================================================
(PID.TID 0000.0001) // End MONITOR dynamic field statistics
(PID.TID 0000.0001) // =======================================================
(PID.TID 0000.0001) SOLVE_FOR_PRESSURE: putPmEinXvector =    F
 cg2d: Sum(rhs),rhsMax =  -2.42542802248585E-16  7.84478485396824E-01
(PID.TID 0000.0001)      cg2d_init_res =   1.84632981170703E+00
(PID.TID 0000.0001)      cg2d_iters(min,last) =      -1      28
(PID.TID 0000.0001)      cg2d_last_res =   4.10145676628236E-15
(PID.TID 0000.0001) // =======================================================
(PID.TID 0000.0001) // Begin MONITOR dynamic field statistics
(PID.TID 0000.0001) // =======================================================
(PID.TID 0000.0001) %MON time_tsnumber                =                     1
(PID.TID 0000.0001) %MON time_secondsf                =   3.6000000000000E+03
(PID.TID 0000.0001) %MON dynstat_eta_max              =   2.6931460151444E-01
(PID.TID 0000.0001) %MON dynstat_eta_min              =  -7.6771771361424E-02
(PID.TID 0000.0001) %MON dynstat_eta_mean             =   2.7592976888021E-16
(PID.TID 0000.0001) %MON dynstat_eta_sd               =   9.6792993958634E-02
(PID.TID 0000.0001) %MON dynstat_eta_del2             =   5.2210367225506E-03
(PID.TID 0000.0001) %MON dynstat_uvel_max             =   1.2708190064387E-01
(PID.TID 0000.0001) %MON dynstat_uvel_min             =  -1.2708190064387E-01
(PID.TID 0000.0001) %MON dynstat_uvel_mean            =  -5.6067134589115E-06
(PID.TID 0000.0001) %MON dynstat_uvel_sd              =   2.0322249914812E-02
(PID.TID 0000.0001) %MON dynstat_uvel_del2            =   5.0509041366132E-04
(PID.TID 0000.0001) %MON dynstat_vvel_max             =   9.2876133483272E-03
(PID.TID 0000.0001) %MON dynstat_vvel_min             =  -1.0028149377893E-02
(PID.TID 0000.0001) %MON dynstat_vvel_mean            =   4.7877125289136E-04
(PID.TID 0000.0001) %MON dynstat_vvel_sd              =   5.0967848889294E-03
(PID.TID 0000.0001) %MON dynstat_vvel_del2            =   3.6844455694336E-05
(PID.TID 0000.0001) %MON dynstat_wvel_max             =   7.4809611531787E-05
(PID.TID 0000.0001) %MON dynstat_wvel_min             =  -2.1325492044839E-05
(PID.TID 0000.0001) %MON dynstat_wvel_mean            =   3.0762417435869E-23
(PID.TID 0000.0001) %MON dynstat_wvel_sd              =   1.7338367110351E-05
(PID.TID 0000.0001) %MON dynstat_wvel_del2            =   3.0975995090818E-07
(PID.TID 0000.0001) %MON dynstat_theta_max            =   1.3325043260481E+01
(PID.TID 0000.0001) %MON dynstat_theta_min            =   6.2538231167499E+00
(PID.TID 0000.0001) %MON dynstat_theta_mean           =   8.4642401720337E+00
(PID.TID 0000.0001) %MON dynstat_theta_sd             =   1.4059933615263E+00
(PID.TID 0000.0001) %MON dynstat_theta_del2           =   7.4178854125315E-03
(PID.TID 0000.0001) %MON dynstat_salt_max             =   1.1996554616262E+01
(PID.TID 0000.0001) %MON dynstat_salt_min             =   1.0464446045175E+01
(PID.TID 0000.0001) %MON dynstat_salt_mean            =   1.1308841661162E+01
(PID.TID 0000.0001) %MON dynstat_salt_sd              =   5.1721897596559E-01
(PID.TID 0000.0001) %MON dynstat_salt_del2            =   5.6436130951725E-04
(PID.TID 0000.0001) %MON advcfl_uvel_max              =   4.5749484231792E-03
(PID.TID 0000.0001) %MON advcfl_vvel_max              =   3.6101337760413E-04
(PID.TID 0000.0001) %MON advcfl_wvel_max              =   2.6931460151443E-02
(PID.TID 0000.0001) %MON advcfl_W_hf_max              =   1.3422655951557E-02
(PID.TID 0000.0001) %MON pe_b_mean                    =   2.7041875712792E-05
(PID.TID 0000.0001) %MON ke_max                       =   8.0898330519274E-03
(PID.TID 0000.0001) %MON ke_mean                      =   2.1908618334722E-04
(PID.TID 0000.0001) %MON ke_vol                       =   5.0981346415358E+14
(PID.TID 0000.0001) // =======================================================
(PID.TID 0000.0001) // End MONITOR dynamic field statistics
(PID.TID 0000.0001) // =======================================================
 Computing Diagnostic #     23  ETAN         Counter:       1   Parms: SM      M1      
 Computing Diagnostic #     25  DETADT2      Counter:       1   Parms: SM      M1      
 Computing Diagnostic #     73  PHIBOT       Counter:       1   Parms: SM      M1      
 Computing Diagnostic #     76  MXLDEPTH     Counter:       1   Parms: SM      M1      
 Computing Diagnostic #    210  GM_BVPcW     Counter:       1   Parms: SU P    M1      
 Computing Diagnostic #    211  GM_BVPcS     Counter:       1   Parms: SV P    M1      
 Computing Diagnostic #    193  SubMesLf     Counter:       1   Parms: SM P    M1      
 Computing Diagnostic #    195  SubMpsiY     Counter:       1   Parms: VV      M1      
           Vector  Mate for  SubMpsiY     Diagnostic #    194  SubMpsiX not enabled
 Computing Diagnostic #     30  UVEL         Counter:       1   Parms: UUR     MR      
           Vector  Mate for  UVEL         Diagnostic #     31  VVEL     exists 
 Computing Diagnostic #     31  VVEL         Counter:       1   Parms: VVR     MR      
           Vector  Mate for  VVEL         Diagnostic #     30  UVEL     exists 
 Computing Diagnostic #     32  WVEL         Counter:       1   Parms: WM      LR      
 Computing Diagnostic #     71  PHIHYD       Counter:       1   Parms: SMR     MR      
 Computing Diagnostic #     26  THETA        Counter:       1   Parms: SMR     MR      
 Computing Diagnostic #     33  THETASQ      Counter:       1   Parms: SMRP    MR      
 Computing Diagnostic #     36  UVELSQ       Counter:       1   Parms: UURP    MR      
           Vector  Mate for  UVELSQ       Diagnostic #     37  VVELSQ   not enabled
 Computing Diagnostic #     77  DRHODR       Counter:       1   Parms: SM      LR      
 Computing Diagnostic #     64  RHOAnoma     Counter:       1   Parms: SMR     MR      
 Computing Diagnostic #    201  GM_Kwy       Counter:       1   Parms: VM      LR      
           Vector  Mate for  GM_Kwy       Diagnostic #    200  GM_Kwx   not enabled
 Computing Diagnostic #    202  GM_Kwz       Counter:       1   Parms: WM P    LR      
 Computing Diagnostic #    197  GM_Kvy       Counter:       1   Parms: VV P    MR      
           Vector  Mate for  GM_Kvy       Diagnostic #    196  GM_Kux   not enabled
 Computing Diagnostic #     26  THETA        Counter:       1   Parms: SMR     MR      
 Computing Diagnostic #    204  GM_PsiY      Counter:       1   Parms: VV      LR      
           Vector  Mate for  GM_PsiY      Diagnostic #    203  GM_PsiX  not enabled
 Computing Diagnostic #    199  GM_Kvz       Counter:       1   Parms: VV      MR      
           Vector  Mate for  GM_Kvz       Diagnostic #    198  GM_Kuz   not enabled
 cg2d: Sum(rhs),rhsMax =  -3.21270787750905E-15  9.91836551001539E-01
(PID.TID 0000.0001)      cg2d_init_res =   4.11600372226236E-01
(PID.TID 0000.0001)      cg2d_iters(min,last) =      -1      28
(PID.TID 0000.0001)      cg2d_last_res =   2.62676069645011E-16
(PID.TID 0000.0001) // =======================================================
(PID.TID 0000.0001) // Begin MONITOR dynamic field statistics
(PID.TID 0000.0001) // =======================================================
(PID.TID 0000.0001) %MON time_tsnumber                =                     2
(PID.TID 0000.0001) %MON time_secondsf                =   7.2000000000000E+03
(PID.TID 0000.0001) %MON dynstat_eta_max              =   4.0024108486617E-01
(PID.TID 0000.0001) %MON dynstat_eta_min              =  -9.7666405646473E-02
(PID.TID 0000.0001) %MON dynstat_eta_mean             =   3.2997131347656E-16
(PID.TID 0000.0001) %MON dynstat_eta_sd               =   1.5214466646042E-01
(PID.TID 0000.0001) %MON dynstat_eta_del2             =   6.3121292462564E-03
(PID.TID 0000.0001) %MON dynstat_uvel_max             =   1.2417841485456E-01
(PID.TID 0000.0001) %MON dynstat_uvel_min             =  -1.2452023978655E-01
(PID.TID 0000.0001) %MON dynstat_uvel_mean            =   2.5984572113800E-04
(PID.TID 0000.0001) %MON dynstat_uvel_sd              =   1.9217061404394E-02
(PID.TID 0000.0001) %MON dynstat_uvel_del2            =   5.0654330806929E-04
(PID.TID 0000.0001) %MON dynstat_vvel_max             =   8.4003363768380E-03
(PID.TID 0000.0001) %MON dynstat_vvel_min             =  -9.5133018179838E-03
(PID.TID 0000.0001) %MON dynstat_vvel_mean            =   3.0177104654332E-04
(PID.TID 0000.0001) %MON dynstat_vvel_sd              =   4.6537545361737E-03
(PID.TID 0000.0001) %MON dynstat_vvel_del2            =   6.7845135649907E-05
(PID.TID 0000.0001) %MON dynstat_wvel_max             =   4.3781047661655E-05
(PID.TID 0000.0001) %MON dynstat_wvel_min             =  -1.4648094504741E-05
(PID.TID 0000.0001) %MON dynstat_wvel_mean            =  -2.7686175692282E-22
(PID.TID 0000.0001) %MON dynstat_wvel_sd              =   1.2311183308266E-05
(PID.TID 0000.0001) %MON dynstat_wvel_del2            =   2.6599520637963E-07
(PID.TID 0000.0001) %MON dynstat_theta_max            =   1.3325302449142E+01
(PID.TID 0000.0001) %MON dynstat_theta_min            =   6.2538305570751E+00
(PID.TID 0000.0001) %MON dynstat_theta_mean           =   8.4641423703376E+00
(PID.TID 0000.0001) %MON dynstat_theta_sd             =   1.4057879242081E+00
(PID.TID 0000.0001) %MON dynstat_theta_del2           =   7.4133350606528E-03
(PID.TID 0000.0001) %MON dynstat_salt_max             =   1.1996573839041E+01
(PID.TID 0000.0001) %MON dynstat_salt_min             =   1.0464448766464E+01
(PID.TID 0000.0001) %MON dynstat_salt_mean            =   1.1308818038425E+01
(PID.TID 0000.0001) %MON dynstat_salt_sd              =   5.1720192945502E-01
(PID.TID 0000.0001) %MON dynstat_salt_del2            =   5.6440765640379E-04
(PID.TID 0000.0001) %MON advcfl_uvel_max              =   4.4827286323158E-03
(PID.TID 0000.0001) %MON advcfl_vvel_max              =   3.4247886544742E-04
(PID.TID 0000.0001) %MON advcfl_wvel_max              =   1.3268369369414E-02
(PID.TID 0000.0001) %MON advcfl_W_hf_max              =   7.6052276078811E-03
(PID.TID 0000.0001) %MON pe_b_mean                    =   6.6813224261165E-05
(PID.TID 0000.0001) %MON ke_max                       =   7.7622384547387E-03
(PID.TID 0000.0001) %MON ke_mean                      =   1.9512919181197E-04
(PID.TID 0000.0001) %MON ke_vol                       =   5.0981346415358E+14
(PID.TID 0000.0001) // =======================================================
(PID.TID 0000.0001) // End MONITOR dynamic field statistics
(PID.TID 0000.0001) // =======================================================
 cg2d: Sum(rhs),rhsMax =  -3.82333054105288E-15  9.55395371614318E-01
(PID.TID 0000.0001)      cg2d_init_res =   1.49790400077986E-01
(PID.TID 0000.0001)      cg2d_iters(min,last) =      -1      27
(PID.TID 0000.0001)      cg2d_last_res =   5.67628618191550E-14
(PID.TID 0000.0001) // =======================================================
(PID.TID 0000.0001) // Begin MONITOR dynamic field statistics
(PID.TID 0000.0001) // =======================================================
(PID.TID 0000.0001) %MON time_tsnumber                =                     3
(PID.TID 0000.0001) %MON time_secondsf                =   1.0800000000000E+04
(PID.TID 0000.0001) %MON dynstat_eta_max              =   4.1112345615925E-01
(PID.TID 0000.0001) %MON dynstat_eta_min              =  -1.1122766970066E-01
(PID.TID 0000.0001) %MON dynstat_eta_mean             =   4.7683715820313E-16
(PID.TID 0000.0001) %MON dynstat_eta_sd               =   1.6156406911565E-01
(PID.TID 0000.0001) %MON dynstat_eta_del2             =   5.9245813473787E-03
(PID.TID 0000.0001) %MON dynstat_uvel_max             =   1.2631291684711E-01
(PID.TID 0000.0001) %MON dynstat_uvel_min             =  -1.2696323531050E-01
(PID.TID 0000.0001) %MON dynstat_uvel_mean            =   3.2777401894848E-04
(PID.TID 0000.0001) %MON dynstat_uvel_sd              =   1.9426832465350E-02
(PID.TID 0000.0001) %MON dynstat_uvel_del2            =   5.2917751476731E-04
(PID.TID 0000.0001) %MON dynstat_vvel_max             =   1.2509693954720E-02
(PID.TID 0000.0001) %MON dynstat_vvel_min             =  -1.3735317576639E-02
(PID.TID 0000.0001) %MON dynstat_vvel_mean            =  -1.8275098405776E-04
(PID.TID 0000.0001) %MON dynstat_vvel_sd              =   2.4652321314273E-03
(PID.TID 0000.0001) %MON dynstat_vvel_del2            =   9.5903354241018E-05
(PID.TID 0000.0001) %MON dynstat_wvel_max             =   2.5508644210312E-05
(PID.TID 0000.0001) %MON dynstat_wvel_min             =  -2.0674881752306E-05
(PID.TID 0000.0001) %MON dynstat_wvel_mean            =  -1.9226510897418E-22
(PID.TID 0000.0001) %MON dynstat_wvel_sd              =   8.2339815085844E-06
(PID.TID 0000.0001) %MON dynstat_wvel_del2            =   3.4631069303858E-07
(PID.TID 0000.0001) %MON dynstat_theta_max            =   1.3325714780431E+01
(PID.TID 0000.0001) %MON dynstat_theta_min            =   6.2538410717008E+00
(PID.TID 0000.0001) %MON dynstat_theta_mean           =   8.4641180473910E+00
(PID.TID 0000.0001) %MON dynstat_theta_sd             =   1.4057438295357E+00
(PID.TID 0000.0001) %MON dynstat_theta_del2           =   7.4117039745924E-03
(PID.TID 0000.0001) %MON dynstat_salt_max             =   1.1996594602068E+01
(PID.TID 0000.0001) %MON dynstat_salt_min             =   1.0464137649054E+01
(PID.TID 0000.0001) %MON dynstat_salt_mean            =   1.1308801671048E+01
(PID.TID 0000.0001) %MON dynstat_salt_sd              =   5.1719412143492E-01
(PID.TID 0000.0001) %MON dynstat_salt_del2            =   5.6452165447356E-04
(PID.TID 0000.0001) %MON advcfl_uvel_max              =   4.5706764711778E-03
(PID.TID 0000.0001) %MON advcfl_vvel_max              =   4.9447143275901E-04
(PID.TID 0000.0001) %MON advcfl_wvel_max              =   3.4895758788039E-03
(PID.TID 0000.0001) %MON advcfl_W_hf_max              =   2.8977744412114E-03
(PID.TID 0000.0001) %MON pe_b_mean                    =   7.5342240474857E-05
(PID.TID 0000.0001) %MON ke_max                       =   8.1134454113230E-03
(PID.TID 0000.0001) %MON ke_mean                      =   1.9169016434764E-04
(PID.TID 0000.0001) %MON ke_vol                       =   5.0981346415358E+14
(PID.TID 0000.0001) // =======================================================
(PID.TID 0000.0001) // End MONITOR dynamic field statistics
(PID.TID 0000.0001) // =======================================================
 cg2d: Sum(rhs),rhsMax =  -6.09234884763055E-15  9.20894515816442E-01
(PID.TID 0000.0001)      cg2d_init_res =   9.13506288236503E-02
(PID.TID 0000.0001)      cg2d_iters(min,last) =      -1      28
(PID.TID 0000.0001)      cg2d_last_res =   3.23734967579928E-16
(PID.TID 0000.0001) // =======================================================
(PID.TID 0000.0001) // Begin MONITOR dynamic field statistics
(PID.TID 0000.0001) // =======================================================
(PID.TID 0000.0001) %MON time_tsnumber                =                     4
(PID.TID 0000.0001) %MON time_secondsf                =   1.4400000000000E+04
(PID.TID 0000.0001) %MON dynstat_eta_max              =   3.8572487734222E-01
(PID.TID 0000.0001) %MON dynstat_eta_min              =  -9.9989599285499E-02
(PID.TID 0000.0001) %MON dynstat_eta_mean             =   5.3723653157552E-16
(PID.TID 0000.0001) %MON dynstat_eta_sd               =   1.5003987460223E-01
(PID.TID 0000.0001) %MON dynstat_eta_del2             =   5.7526890431792E-03
(PID.TID 0000.0001) %MON dynstat_uvel_max             =   1.3067117692458E-01
(PID.TID 0000.0001) %MON dynstat_uvel_min             =  -1.3181464814132E-01
(PID.TID 0000.0001) %MON dynstat_uvel_mean            =   1.6323213919649E-04
(PID.TID 0000.0001) %MON dynstat_uvel_sd              =   2.0054786435526E-02
(PID.TID 0000.0001) %MON dynstat_uvel_del2            =   5.5672746595574E-04
(PID.TID 0000.0001) %MON dynstat_vvel_max             =   1.5520052300489E-02
(PID.TID 0000.0001) %MON dynstat_vvel_min             =  -1.7355603241002E-02
(PID.TID 0000.0001) %MON dynstat_vvel_mean            =  -4.1072858345020E-04
(PID.TID 0000.0001) %MON dynstat_vvel_sd              =   2.2221099559299E-03
(PID.TID 0000.0001) %MON dynstat_vvel_del2            =   1.1339589538947E-04
(PID.TID 0000.0001) %MON dynstat_wvel_max             =   2.1967536019687E-05
(PID.TID 0000.0001) %MON dynstat_wvel_min             =  -3.1411394011197E-05
(PID.TID 0000.0001) %MON dynstat_wvel_mean            =  -1.2304966974348E-22
(PID.TID 0000.0001) %MON dynstat_wvel_sd              =   9.2466032479596E-06
(PID.TID 0000.0001) %MON dynstat_wvel_del2            =   4.2815783781913E-07
(PID.TID 0000.0001) %MON dynstat_theta_max            =   1.3326152998394E+01
(PID.TID 0000.0001) %MON dynstat_theta_min            =   6.2538428169582E+00
(PID.TID 0000.0001) %MON dynstat_theta_mean           =   8.4641311505135E+00
(PID.TID 0000.0001) %MON dynstat_theta_sd             =   1.4057718330991E+00
(PID.TID 0000.0001) %MON dynstat_theta_del2           =   7.4096670378511E-03
(PID.TID 0000.0001) %MON dynstat_salt_max             =   1.1996614702084E+01
(PID.TID 0000.0001) %MON dynstat_salt_min             =   1.0463921353575E+01
(PID.TID 0000.0001) %MON dynstat_salt_mean            =   1.1308801388179E+01
(PID.TID 0000.0001) %MON dynstat_salt_sd              =   5.1718894159571E-01
(PID.TID 0000.0001) %MON dynstat_salt_del2            =   5.6468606874634E-04
(PID.TID 0000.0001) %MON advcfl_uvel_max              =   4.7453273330874E-03
(PID.TID 0000.0001) %MON advcfl_vvel_max              =   6.2480171667606E-04
(PID.TID 0000.0001) %MON advcfl_wvel_max              =   3.4622380480901E-03
(PID.TID 0000.0001) %MON advcfl_W_hf_max              =   3.6860319590911E-03
(PID.TID 0000.0001) %MON pe_b_mean                    =   6.4977403132758E-05
(PID.TID 0000.0001) %MON ke_max                       =   8.7772285733215E-03
(PID.TID 0000.0001) %MON ke_mean                      =   2.0356363681036E-04
(PID.TID 0000.0001) %MON ke_vol                       =   5.0981346415358E+14
(PID.TID 0000.0001) // =======================================================
(PID.TID 0000.0001) // End MONITOR dynamic field statistics
(PID.TID 0000.0001) // =======================================================
 cg2d: Sum(rhs),rhsMax =  -6.60582699651968E-15  9.03555703674683E-01
(PID.TID 0000.0001)      cg2d_init_res =   8.17363912134075E-02
(PID.TID 0000.0001)      cg2d_iters(min,last) =      -1      28
(PID.TID 0000.0001)      cg2d_last_res =   2.31079075053192E-16
(PID.TID 0000.0001) // =======================================================
(PID.TID 0000.0001) // Begin MONITOR dynamic field statistics
(PID.TID 0000.0001) // =======================================================
(PID.TID 0000.0001) %MON time_tsnumber                =                     5
(PID.TID 0000.0001) %MON time_secondsf                =   1.8000000000000E+04
(PID.TID 0000.0001) %MON dynstat_eta_max              =   3.6042233029981E-01
(PID.TID 0000.0001) %MON dynstat_eta_min              =  -7.8086503299642E-02
(PID.TID 0000.0001) %MON dynstat_eta_mean             =   3.8941701253255E-16
(PID.TID 0000.0001) %MON dynstat_eta_sd               =   1.3661225528255E-01
(PID.TID 0000.0001) %MON dynstat_eta_del2             =   5.7473432390738E-03
(PID.TID 0000.0001) %MON dynstat_uvel_max             =   1.3517228574088E-01
(PID.TID 0000.0001) %MON dynstat_uvel_min             =  -1.3696626845654E-01
(PID.TID 0000.0001) %MON dynstat_uvel_mean            =  -2.7369470802634E-05
(PID.TID 0000.0001) %MON dynstat_uvel_sd              =   2.0648318371101E-02
(PID.TID 0000.0001) %MON dynstat_uvel_del2            =   5.8488539375300E-04
(PID.TID 0000.0001) %MON dynstat_vvel_max             =   1.6018748967126E-02
(PID.TID 0000.0001) %MON dynstat_vvel_min             =  -1.7767711967228E-02
(PID.TID 0000.0001) %MON dynstat_vvel_mean            =  -2.7389034492946E-04
(PID.TID 0000.0001) %MON dynstat_vvel_sd              =   2.5251620713049E-03
(PID.TID 0000.0001) %MON dynstat_vvel_del2            =   1.2187535877897E-04
(PID.TID 0000.0001) %MON dynstat_wvel_max             =   2.1213174882514E-05
(PID.TID 0000.0001) %MON dynstat_wvel_min             =  -3.4233411454654E-05
(PID.TID 0000.0001) %MON dynstat_wvel_mean            =   1.9995571333315E-22
(PID.TID 0000.0001) %MON dynstat_wvel_sd              =   9.9533296682674E-06
(PID.TID 0000.0001) %MON dynstat_wvel_del2            =   4.7897294016007E-07
(PID.TID 0000.0001) %MON dynstat_theta_max            =   1.3326607305059E+01
(PID.TID 0000.0001) %MON dynstat_theta_min            =   6.2538382432858E+00
(PID.TID 0000.0001) %MON dynstat_theta_mean           =   8.4641467201867E+00
(PID.TID 0000.0001) %MON dynstat_theta_sd             =   1.4058013539862E+00
(PID.TID 0000.0001) %MON dynstat_theta_del2           =   7.4069976530282E-03
(PID.TID 0000.0001) %MON dynstat_salt_max             =   1.1996635501861E+01
(PID.TID 0000.0001) %MON dynstat_salt_min             =   1.0463518251254E+01
(PID.TID 0000.0001) %MON dynstat_salt_mean            =   1.1308809431999E+01
(PID.TID 0000.0001) %MON dynstat_salt_sd              =   5.1718145963678E-01
(PID.TID 0000.0001) %MON dynstat_salt_del2            =   5.6474424210511E-04
(PID.TID 0000.0001) %MON advcfl_uvel_max              =   4.9307856644353E-03
(PID.TID 0000.0001) %MON advcfl_vvel_max              =   6.3963763082020E-04
(PID.TID 0000.0001) %MON advcfl_wvel_max              =   3.8608500582028E-03
(PID.TID 0000.0001) %MON advcfl_W_hf_max              =   4.0989064680363E-03
(PID.TID 0000.0001) %MON pe_b_mean                    =   5.3867681975231E-05
(PID.TID 0000.0001) %MON ke_max                       =   9.4721861460250E-03
(PID.TID 0000.0001) %MON ke_mean                      =   2.1627610115603E-04
(PID.TID 0000.0001) %MON ke_vol                       =   5.0981346415358E+14
(PID.TID 0000.0001) // =======================================================
(PID.TID 0000.0001) // End MONITOR dynamic field statistics
(PID.TID 0000.0001) // =======================================================
 cg2d: Sum(rhs),rhsMax =  -4.05231403988182E-15  8.95636323685508E-01
(PID.TID 0000.0001)      cg2d_init_res =   5.02646411397968E-02
(PID.TID 0000.0001)      cg2d_iters(min,last) =      -1      28
(PID.TID 0000.0001)      cg2d_last_res =   2.35283902570974E-16
(PID.TID 0000.0001) // =======================================================
(PID.TID 0000.0001) // Begin MONITOR dynamic field statistics
(PID.TID 0000.0001) // =======================================================
(PID.TID 0000.0001) %MON time_tsnumber                =                     6
(PID.TID 0000.0001) %MON time_secondsf                =   2.1600000000000E+04
(PID.TID 0000.0001) %MON dynstat_eta_max              =   3.4767466706777E-01
(PID.TID 0000.0001) %MON dynstat_eta_min              =  -8.0536711527338E-02
(PID.TID 0000.0001) %MON dynstat_eta_mean             =   2.2888183593750E-16
(PID.TID 0000.0001) %MON dynstat_eta_sd               =   1.2997163262121E-01
(PID.TID 0000.0001) %MON dynstat_eta_del2             =   5.7551685273363E-03
(PID.TID 0000.0001) %MON dynstat_uvel_max             =   1.3922269746145E-01
(PID.TID 0000.0001) %MON dynstat_uvel_min             =  -1.4149644378235E-01
(PID.TID 0000.0001) %MON dynstat_uvel_mean            =  -9.4406952953002E-05
(PID.TID 0000.0001) %MON dynstat_uvel_sd              =   2.1166710705285E-02
(PID.TID 0000.0001) %MON dynstat_uvel_del2            =   6.1215307173028E-04
(PID.TID 0000.0001) %MON dynstat_vvel_max             =   1.4764594268184E-02
(PID.TID 0000.0001) %MON dynstat_vvel_min             =  -1.5752590026085E-02
(PID.TID 0000.0001) %MON dynstat_vvel_mean            =   1.2703896668379E-05
(PID.TID 0000.0001) %MON dynstat_vvel_sd              =   2.0699523911735E-03
(PID.TID 0000.0001) %MON dynstat_vvel_del2            =   1.2155979536228E-04
(PID.TID 0000.0001) %MON dynstat_wvel_max             =   2.0358100333562E-05
(PID.TID 0000.0001) %MON dynstat_wvel_min             =  -3.1731684838122E-05
(PID.TID 0000.0001) %MON dynstat_wvel_mean            =   6.1524834871738E-23
(PID.TID 0000.0001) %MON dynstat_wvel_sd              =   9.0700840466715E-06
(PID.TID 0000.0001) %MON dynstat_wvel_del2            =   5.0191915684504E-07
(PID.TID 0000.0001) %MON dynstat_theta_max            =   1.3327009387412E+01
(PID.TID 0000.0001) %MON dynstat_theta_min            =   6.2538338195699E+00
(PID.TID 0000.0001) %MON dynstat_theta_mean           =   8.4641560711275E+00
(PID.TID 0000.0001) %MON dynstat_theta_sd             =   1.4058184448849E+00
(PID.TID 0000.0001) %MON dynstat_theta_del2           =   7.4044034940193E-03
(PID.TID 0000.0001) %MON dynstat_salt_max             =   1.1996654112029E+01
(PID.TID 0000.0001) %MON dynstat_salt_min             =   1.0463600520889E+01
(PID.TID 0000.0001) %MON dynstat_salt_mean            =   1.1308816345513E+01
(PID.TID 0000.0001) %MON dynstat_salt_sd              =   5.1717270340917E-01
(PID.TID 0000.0001) %MON dynstat_salt_del2            =   5.6484390385531E-04
(PID.TID 0000.0001) %MON advcfl_uvel_max              =   5.0938719761645E-03
(PID.TID 0000.0001) %MON advcfl_vvel_max              =   5.6709324093907E-04
(PID.TID 0000.0001) %MON advcfl_wvel_max              =   3.3729378808171E-03
(PID.TID 0000.0001) %MON advcfl_W_hf_max              =   3.6111564284628E-03
(PID.TID 0000.0001) %MON pe_b_mean                    =   4.8758025937871E-05
(PID.TID 0000.0001) %MON ke_max                       =   1.0079741934511E-02
(PID.TID 0000.0001) %MON ke_mean                      =   2.2607767287304E-04
(PID.TID 0000.0001) %MON ke_vol                       =   5.0981346415358E+14
(PID.TID 0000.0001) // =======================================================
(PID.TID 0000.0001) // End MONITOR dynamic field statistics
(PID.TID 0000.0001) // =======================================================
 cg2d: Sum(rhs),rhsMax =  -2.11983208764366E-15  8.95679390817702E-01
(PID.TID 0000.0001)      cg2d_init_res =   8.21809645022174E-03
(PID.TID 0000.0001)      cg2d_iters(min,last) =      -1      28
(PID.TID 0000.0001)      cg2d_last_res =   1.73505023372865E-16
(PID.TID 0000.0001) // =======================================================
(PID.TID 0000.0001) // Begin MONITOR dynamic field statistics
(PID.TID 0000.0001) // =======================================================
(PID.TID 0000.0001) %MON time_tsnumber                =                     7
(PID.TID 0000.0001) %MON time_secondsf                =   2.5200000000000E+04
(PID.TID 0000.0001) %MON dynstat_eta_max              =   3.4738778049470E-01
(PID.TID 0000.0001) %MON dynstat_eta_min              =  -8.0832290776352E-02
(PID.TID 0000.0001) %MON dynstat_eta_mean             =   2.2347768147786E-16
(PID.TID 0000.0001) %MON dynstat_eta_sd               =   1.2984099266116E-01
(PID.TID 0000.0001) %MON dynstat_eta_del2             =   5.7561701063441E-03
(PID.TID 0000.0001) %MON dynstat_uvel_max             =   1.4248416621327E-01
(PID.TID 0000.0001) %MON dynstat_uvel_min             =  -1.4485229311959E-01
(PID.TID 0000.0001) %MON dynstat_uvel_mean            =  -3.0374084235949E-05
(PID.TID 0000.0001) %MON dynstat_uvel_sd              =   2.1551970118276E-02
(PID.TID 0000.0001) %MON dynstat_uvel_del2            =   6.3588722393940E-04
(PID.TID 0000.0001) %MON dynstat_vvel_max             =   1.2083432146200E-02
(PID.TID 0000.0001) %MON dynstat_vvel_min             =  -1.2156102856165E-02
(PID.TID 0000.0001) %MON dynstat_vvel_mean            =   2.2692749333193E-04
(PID.TID 0000.0001) %MON dynstat_vvel_sd              =   1.4758809358160E-03
(PID.TID 0000.0001) %MON dynstat_vvel_del2            =   1.1418785197282E-04
(PID.TID 0000.0001) %MON dynstat_wvel_max             =   2.1329046074875E-05
(PID.TID 0000.0001) %MON dynstat_wvel_min             =  -2.6768146752206E-05
(PID.TID 0000.0001) %MON dynstat_wvel_mean            =   1.2304966974348E-22
(PID.TID 0000.0001) %MON dynstat_wvel_sd              =   7.5779544773004E-06
(PID.TID 0000.0001) %MON dynstat_wvel_del2            =   5.0191720986109E-07
(PID.TID 0000.0001) %MON dynstat_theta_max            =   1.3327363721741E+01
(PID.TID 0000.0001) %MON dynstat_theta_min            =   6.2538334606613E+00
(PID.TID 0000.0001) %MON dynstat_theta_mean           =   8.4641582912782E+00
(PID.TID 0000.0001) %MON dynstat_theta_sd             =   1.4058222469180E+00
(PID.TID 0000.0001) %MON dynstat_theta_del2           =   7.4021853573074E-03
(PID.TID 0000.0001) %MON dynstat_salt_max             =   1.1996670756701E+01
(PID.TID 0000.0001) %MON dynstat_salt_min             =   1.0463558068929E+01
(PID.TID 0000.0001) %MON dynstat_salt_mean            =   1.1308818304120E+01
(PID.TID 0000.0001) %MON dynstat_salt_sd              =   5.1716430081715E-01
(PID.TID 0000.0001) %MON dynstat_salt_del2            =   5.6488906781325E-04
(PID.TID 0000.0001) %MON advcfl_uvel_max              =   5.2146825523052E-03
(PID.TID 0000.0001) %MON advcfl_vvel_max              =   4.3761970282193E-04
(PID.TID 0000.0001) %MON advcfl_wvel_max              =   2.6352240307916E-03
(PID.TID 0000.0001) %MON advcfl_W_hf_max              =   2.8545342195004E-03
(PID.TID 0000.0001) %MON pe_b_mean                    =   4.8660057709237E-05
(PID.TID 0000.0001) %MON ke_max                       =   1.0529680185666E-02
(PID.TID 0000.0001) %MON ke_mean                      =   2.3331529932918E-04
(PID.TID 0000.0001) %MON ke_vol                       =   5.0981346415358E+14
(PID.TID 0000.0001) // =======================================================
(PID.TID 0000.0001) // End MONITOR dynamic field statistics
(PID.TID 0000.0001) // =======================================================
 cg2d: Sum(rhs),rhsMax =  -2.58820742615740E-15  9.00117318030082E-01
(PID.TID 0000.0001)      cg2d_init_res =   2.22110024797669E-02
(PID.TID 0000.0001)      cg2d_iters(min,last) =      -1      28
(PID.TID 0000.0001)      cg2d_last_res =   3.57870792318980E-16
(PID.TID 0000.0001) // =======================================================
(PID.TID 0000.0001) // Begin MONITOR dynamic field statistics
(PID.TID 0000.0001) // =======================================================
(PID.TID 0000.0001) %MON time_tsnumber                =                     8
(PID.TID 0000.0001) %MON time_secondsf                =   2.8800000000000E+04
(PID.TID 0000.0001) %MON dynstat_eta_max              =   3.5338735399849E-01
(PID.TID 0000.0001) %MON dynstat_eta_min              =  -8.1070930544669E-02
(PID.TID 0000.0001) %MON dynstat_eta_mean             =   2.2252400716146E-16
(PID.TID 0000.0001) %MON dynstat_eta_sd               =   1.3291875827340E-01
(PID.TID 0000.0001) %MON dynstat_eta_del2             =   5.7568012189190E-03
(PID.TID 0000.0001) %MON dynstat_uvel_max             =   1.4466892811642E-01
(PID.TID 0000.0001) %MON dynstat_uvel_min             =  -1.4680686265556E-01
(PID.TID 0000.0001) %MON dynstat_uvel_mean            =   9.3297337392787E-05
(PID.TID 0000.0001) %MON dynstat_uvel_sd              =   2.1763521703803E-02
(PID.TID 0000.0001) %MON dynstat_uvel_del2            =   6.5356046076642E-04
(PID.TID 0000.0001) %MON dynstat_vvel_max             =   8.3284938697743E-03
(PID.TID 0000.0001) %MON dynstat_vvel_min             =  -7.8208902260981E-03
(PID.TID 0000.0001) %MON dynstat_vvel_mean            =   2.8044906659486E-04
(PID.TID 0000.0001) %MON dynstat_vvel_sd              =   1.0390389356672E-03
(PID.TID 0000.0001) %MON dynstat_vvel_del2            =   1.0315456566959E-04
(PID.TID 0000.0001) %MON dynstat_wvel_max             =   1.9960195492233E-05
(PID.TID 0000.0001) %MON dynstat_wvel_min             =  -2.0962199998893E-05
(PID.TID 0000.0001) %MON dynstat_wvel_mean            =  -3.0762417435869E-23
(PID.TID 0000.0001) %MON dynstat_wvel_sd              =   5.9729837678422E-06
(PID.TID 0000.0001) %MON dynstat_wvel_del2            =   4.8524249823152E-07
(PID.TID 0000.0001) %MON dynstat_theta_max            =   1.3327681001675E+01
(PID.TID 0000.0001) %MON dynstat_theta_min            =   6.2538360841044E+00
(PID.TID 0000.0001) %MON dynstat_theta_mean           =   8.4641557150379E+00
(PID.TID 0000.0001) %MON dynstat_theta_sd             =   1.4058170678187E+00
(PID.TID 0000.0001) %MON dynstat_theta_del2           =   7.4004845431820E-03
(PID.TID 0000.0001) %MON dynstat_salt_max             =   1.1996685779483E+01
(PID.TID 0000.0001) %MON dynstat_salt_min             =   1.0463583935584E+01
(PID.TID 0000.0001) %MON dynstat_salt_mean            =   1.1308816651165E+01
(PID.TID 0000.0001) %MON dynstat_salt_sd              =   5.1715634743140E-01
(PID.TID 0000.0001) %MON dynstat_salt_del2            =   5.6488092864416E-04
(PID.TID 0000.0001) %MON advcfl_uvel_max              =   5.2850470556002E-03
(PID.TID 0000.0001) %MON advcfl_vvel_max              =   2.9982577931188E-04
(PID.TID 0000.0001) %MON advcfl_wvel_max              =   2.1119248475865E-03
(PID.TID 0000.0001) %MON advcfl_W_hf_max              =   2.2656140583871E-03
(PID.TID 0000.0001) %MON pe_b_mean                    =   5.0994286116004E-05
(PID.TID 0000.0001) %MON ke_max                       =   1.0791427275458E-02
(PID.TID 0000.0001) %MON ke_mean                      =   2.3738620128642E-04
(PID.TID 0000.0001) %MON ke_vol                       =   5.0981346415358E+14
(PID.TID 0000.0001) // =======================================================
(PID.TID 0000.0001) // End MONITOR dynamic field statistics
(PID.TID 0000.0001) // =======================================================
 cg2d: Sum(rhs),rhsMax =  -2.21003770839445E-15  9.04411076862302E-01
(PID.TID 0000.0001)      cg2d_init_res =   2.00050105646425E-02
(PID.TID 0000.0001)      cg2d_iters(min,last) =      -1      28
(PID.TID 0000.0001)      cg2d_last_res =   4.02754304214435E-16
(PID.TID 0000.0001) // =======================================================
(PID.TID 0000.0001) // Begin MONITOR dynamic field statistics
(PID.TID 0000.0001) // =======================================================
(PID.TID 0000.0001) %MON time_tsnumber                =                     9
(PID.TID 0000.0001) %MON time_secondsf                =   3.2400000000000E+04
(PID.TID 0000.0001) %MON dynstat_eta_max              =   3.5911269233861E-01
(PID.TID 0000.0001) %MON dynstat_eta_min              =  -8.2880576702107E-02
(PID.TID 0000.0001) %MON dynstat_eta_mean             =   2.8514862060547E-16
(PID.TID 0000.0001) %MON dynstat_eta_sd               =   1.3581896115081E-01
(PID.TID 0000.0001) %MON dynstat_eta_del2             =   5.7583870839562E-03
(PID.TID 0000.0001) %MON dynstat_uvel_max             =   1.4560767468977E-01
(PID.TID 0000.0001) %MON dynstat_uvel_min             =  -1.4740564372380E-01
(PID.TID 0000.0001) %MON dynstat_uvel_mean            =   2.0217221421308E-04
(PID.TID 0000.0001) %MON dynstat_uvel_sd              =   2.1800530369464E-02
(PID.TID 0000.0001) %MON dynstat_uvel_del2            =   6.6346896318098E-04
(PID.TID 0000.0001) %MON dynstat_vvel_max             =   4.2468942689744E-03
(PID.TID 0000.0001) %MON dynstat_vvel_min             =  -3.4410941344804E-03
(PID.TID 0000.0001) %MON dynstat_vvel_mean            =   1.9986300288200E-04
(PID.TID 0000.0001) %MON dynstat_vvel_sd              =   7.2037564317518E-04
(PID.TID 0000.0001) %MON dynstat_vvel_del2            =   9.3026166229001E-05
(PID.TID 0000.0001) %MON dynstat_wvel_max             =   1.6512864817307E-05
(PID.TID 0000.0001) %MON dynstat_wvel_min             =  -1.4863610907544E-05
(PID.TID 0000.0001) %MON dynstat_wvel_mean            =  -1.3843087846141E-22
(PID.TID 0000.0001) %MON dynstat_wvel_sd              =   4.6774626307663E-06
(PID.TID 0000.0001) %MON dynstat_wvel_del2            =   4.5986945949252E-07
(PID.TID 0000.0001) %MON dynstat_theta_max            =   1.3327967503921E+01
(PID.TID 0000.0001) %MON dynstat_theta_min            =   6.2538389683772E+00
(PID.TID 0000.0001) %MON dynstat_theta_mean           =   8.4641521737040E+00
(PID.TID 0000.0001) %MON dynstat_theta_sd             =   1.4058100471163E+00
(PID.TID 0000.0001) %MON dynstat_theta_del2           =   7.3993941383479E-03
(PID.TID 0000.0001) %MON dynstat_salt_max             =   1.1996699281139E+01
(PID.TID 0000.0001) %MON dynstat_salt_min             =   1.0463691574947E+01
(PID.TID 0000.0001) %MON dynstat_salt_mean            =   1.1308814307018E+01
(PID.TID 0000.0001) %MON dynstat_salt_sd              =   5.1714847744749E-01
(PID.TID 0000.0001) %MON dynstat_salt_del2            =   5.6495438104734E-04
(PID.TID 0000.0001) %MON advcfl_uvel_max              =   5.3066031740568E-03
(PID.TID 0000.0001) %MON advcfl_vvel_max              =   1.5288819368308E-04
(PID.TID 0000.0001) %MON advcfl_wvel_max              =   1.8344233934880E-03
(PID.TID 0000.0001) %MON advcfl_W_hf_max              =   1.9566051403802E-03
(PID.TID 0000.0001) %MON pe_b_mean                    =   5.3243889578837E-05
(PID.TID 0000.0001) %MON ke_max                       =   1.0868590372354E-02
(PID.TID 0000.0001) %MON ke_mean                      =   2.3792048101617E-04
(PID.TID 0000.0001) %MON ke_vol                       =   5.0981346415358E+14
(PID.TID 0000.0001) // =======================================================
(PID.TID 0000.0001) // End MONITOR dynamic field statistics
(PID.TID 0000.0001) // =======================================================
 cg2d: Sum(rhs),rhsMax =  -3.41393580072236E-15  9.06306335174148E-01
(PID.TID 0000.0001)      cg2d_init_res =   6.85652003873408E-03
(PID.TID 0000.0001)      cg2d_iters(min,last) =      -1      28
(PID.TID 0000.0001)      cg2d_last_res =   3.68030518656694E-16
(PID.TID 0000.0001) // =======================================================
(PID.TID 0000.0001) // Begin MONITOR dynamic field statistics
(PID.TID 0000.0001) // =======================================================
(PID.TID 0000.0001) %MON time_tsnumber                =                    10
(PID.TID 0000.0001) %MON time_secondsf                =   3.6000000000000E+04
(PID.TID 0000.0001) %MON dynstat_eta_max              =   3.6115994169927E-01
(PID.TID 0000.0001) %MON dynstat_eta_min              =  -8.3567794965327E-02
(PID.TID 0000.0001) %MON dynstat_eta_mean             =   7.4513753255208E-16
(PID.TID 0000.0001) %MON dynstat_eta_sd               =   1.3681140273155E-01
(PID.TID 0000.0001) %MON dynstat_eta_del2             =   5.7595838153537E-03
(PID.TID 0000.0001) %MON dynstat_uvel_max             =   1.4526783853870E-01
(PID.TID 0000.0001) %MON dynstat_uvel_min             =  -1.4679458386784E-01
(PID.TID 0000.0001) %MON dynstat_uvel_mean            =   2.5506521658059E-04
(PID.TID 0000.0001) %MON dynstat_uvel_sd              =   2.1675196284284E-02
(PID.TID 0000.0001) %MON dynstat_uvel_del2            =   6.6489198512323E-04
(PID.TID 0000.0001) %MON dynstat_vvel_max             =   5.9360683090606E-03
(PID.TID 0000.0001) %MON dynstat_vvel_min             =  -5.5072495349475E-03
(PID.TID 0000.0001) %MON dynstat_vvel_mean            =   6.1264188227059E-05
(PID.TID 0000.0001) %MON dynstat_vvel_sd              =   8.5765876858308E-04
(PID.TID 0000.0001) %MON dynstat_vvel_del2            =   8.8139042462980E-05
(PID.TID 0000.0001) %MON dynstat_wvel_max             =   1.3734826890282E-05
(PID.TID 0000.0001) %MON dynstat_wvel_min             =  -1.5434230157448E-05
(PID.TID 0000.0001) %MON dynstat_wvel_mean            =   1.2304966974348E-22
(PID.TID 0000.0001) %MON dynstat_wvel_sd              =   4.6152582527942E-06
(PID.TID 0000.0001) %MON dynstat_wvel_del2            =   4.3347677917488E-07
(PID.TID 0000.0001) %MON dynstat_theta_max            =   1.3328234771634E+01
(PID.TID 0000.0001) %MON dynstat_theta_min            =   6.2538407283021E+00
(PID.TID 0000.0001) %MON dynstat_theta_mean           =   8.4641503052825E+00
(PID.TID 0000.0001) %MON dynstat_theta_sd             =   1.4058061605911E+00
(PID.TID 0000.0001) %MON dynstat_theta_del2           =   7.3989810185185E-03
(PID.TID 0000.0001) %MON dynstat_salt_max             =   1.1996711641761E+01
(PID.TID 0000.0001) %MON dynstat_salt_min             =   1.0463805499034E+01
(PID.TID 0000.0001) %MON dynstat_salt_mean            =   1.1308813099051E+01
(PID.TID 0000.0001) %MON dynstat_salt_sd              =   5.1714051140093E-01
(PID.TID 0000.0001) %MON dynstat_salt_del2            =   5.6504297990429E-04
(PID.TID 0000.0001) %MON advcfl_uvel_max              =   5.2846050192424E-03
(PID.TID 0000.0001) %MON advcfl_vvel_max              =   2.1369845912618E-04
(PID.TID 0000.0001) %MON advcfl_wvel_max              =   1.4674038939381E-03
(PID.TID 0000.0001) %MON advcfl_W_hf_max              =   1.6001073604579E-03
(PID.TID 0000.0001) %MON pe_b_mean                    =   5.4024848410281E-05
(PID.TID 0000.0001) %MON ke_max                       =   1.0779513271138E-02
(PID.TID 0000.0001) %MON ke_mean                      =   2.3529476194274E-04
(PID.TID 0000.0001) %MON ke_vol                       =   5.0981346415358E+14
(PID.TID 0000.0001) // =======================================================
(PID.TID 0000.0001) // End MONITOR dynamic field statistics
(PID.TID 0000.0001) // =======================================================
 cg2d: Sum(rhs),rhsMax =  -9.66240976119082E-15  9.06280769044697E-01
(PID.TID 0000.0001)      cg2d_init_res =   4.37320259923702E-03
(PID.TID 0000.0001)      cg2d_iters(min,last) =      -1      28
(PID.TID 0000.0001)      cg2d_last_res =   3.19941610009038E-16
(PID.TID 0000.0001) // =======================================================
(PID.TID 0000.0001) // Begin MONITOR dynamic field statistics
(PID.TID 0000.0001) // =======================================================
(PID.TID 0000.0001) %MON time_tsnumber                =                    11
(PID.TID 0000.0001) %MON time_secondsf                =   3.9600000000000E+04
(PID.TID 0000.0001) %MON dynstat_eta_max              =   3.6003430733438E-01
(PID.TID 0000.0001) %MON dynstat_eta_min              =  -8.3092573502817E-02
(PID.TID 0000.0001) %MON dynstat_eta_mean             =   1.0350545247396E-15
(PID.TID 0000.0001) %MON dynstat_eta_sd               =   1.3623427425624E-01
(PID.TID 0000.0001) %MON dynstat_eta_del2             =   5.7602138157303E-03
(PID.TID 0000.0001) %MON dynstat_uvel_max             =   1.4375352615805E-01
(PID.TID 0000.0001) %MON dynstat_uvel_min             =  -1.4512995871385E-01
(PID.TID 0000.0001) %MON dynstat_uvel_mean            =   2.4772713955469E-04
(PID.TID 0000.0001) %MON dynstat_uvel_sd              =   2.1408421429163E-02
(PID.TID 0000.0001) %MON dynstat_uvel_del2            =   6.5812386489951E-04
(PID.TID 0000.0001) %MON dynstat_vvel_max             =   8.7076143845517E-03
(PID.TID 0000.0001) %MON dynstat_vvel_min             =  -8.6455942796059E-03
(PID.TID 0000.0001) %MON dynstat_vvel_mean            =  -6.2944738270226E-05
(PID.TID 0000.0001) %MON dynstat_vvel_sd              =   1.2944164658160E-03
(PID.TID 0000.0001) %MON dynstat_vvel_del2            =   8.9706225339393E-05
(PID.TID 0000.0001) %MON dynstat_wvel_max             =   1.4166405815819E-05
(PID.TID 0000.0001) %MON dynstat_wvel_min             =  -2.4426428521152E-05
(PID.TID 0000.0001) %MON dynstat_wvel_mean            =  -1.1535906538451E-22
(PID.TID 0000.0001) %MON dynstat_wvel_sd              =   5.7347613541855E-06
(PID.TID 0000.0001) %MON dynstat_wvel_del2            =   4.1096169443011E-07
(PID.TID 0000.0001) %MON dynstat_theta_max            =   1.3328568103367E+01
(PID.TID 0000.0001) %MON dynstat_theta_min            =   6.2538413495985E+00
(PID.TID 0000.0001) %MON dynstat_theta_mean           =   8.4641504296388E+00
(PID.TID 0000.0001) %MON dynstat_theta_sd             =   1.4058060082526E+00
(PID.TID 0000.0001) %MON dynstat_theta_del2           =   7.3991861999197E-03
(PID.TID 0000.0001) %MON dynstat_salt_max             =   1.1996726310517E+01
(PID.TID 0000.0001) %MON dynstat_salt_min             =   1.0463889463336E+01
(PID.TID 0000.0001) %MON dynstat_salt_mean            =   1.1308813190542E+01
(PID.TID 0000.0001) %MON dynstat_salt_sd              =   5.1713245086707E-01
(PID.TID 0000.0001) %MON dynstat_salt_del2            =   5.6511989937716E-04
(PID.TID 0000.0001) %MON advcfl_uvel_max              =   5.2246785136986E-03
(PID.TID 0000.0001) %MON advcfl_vvel_max              =   3.1347411784386E-04
(PID.TID 0000.0001) %MON advcfl_wvel_max              =   2.4230879282128E-03
(PID.TID 0000.0001) %MON advcfl_W_hf_max              =   2.6238572308349E-03
(PID.TID 0000.0001) %MON pe_b_mean                    =   5.3570010376811E-05
(PID.TID 0000.0001) %MON ke_max                       =   1.0545934995284E-02
(PID.TID 0000.0001) %MON ke_mean                      =   2.2999773780073E-04
(PID.TID 0000.0001) %MON ke_vol                       =   5.0981346415358E+14
(PID.TID 0000.0001) // =======================================================
(PID.TID 0000.0001) // End MONITOR dynamic field statistics
(PID.TID 0000.0001) // =======================================================
 cg2d: Sum(rhs),rhsMax =  -1.25732757538799E-14  9.05893517987748E-01
(PID.TID 0000.0001)      cg2d_init_res =   7.06579687892121E-03
(PID.TID 0000.0001)      cg2d_iters(min,last) =      -1      28
(PID.TID 0000.0001)      cg2d_last_res =   2.61065173838935E-16
(PID.TID 0000.0001) // =======================================================
(PID.TID 0000.0001) // Begin MONITOR dynamic field statistics
(PID.TID 0000.0001) // =======================================================
(PID.TID 0000.0001) %MON time_tsnumber                =                    12
(PID.TID 0000.0001) %MON time_secondsf                =   4.3200000000000E+04
(PID.TID 0000.0001) %MON dynstat_eta_max              =   3.5812941177594E-01
(PID.TID 0000.0001) %MON dynstat_eta_min              =  -8.2032368368509E-02
(PID.TID 0000.0001) %MON dynstat_eta_mean             =   1.0967254638672E-15
(PID.TID 0000.0001) %MON dynstat_eta_sd               =   1.3528443355405E-01
(PID.TID 0000.0001) %MON dynstat_eta_del2             =   5.7611272909422E-03
(PID.TID 0000.0001) %MON dynstat_uvel_max             =   1.4130521429110E-01
(PID.TID 0000.0001) %MON dynstat_uvel_min             =  -1.4260677045883E-01
(PID.TID 0000.0001) %MON dynstat_uvel_mean            =   2.0039343456062E-04
(PID.TID 0000.0001) %MON dynstat_uvel_sd              =   2.1034815432485E-02
(PID.TID 0000.0001) %MON dynstat_uvel_del2            =   6.4439980258215E-04
(PID.TID 0000.0001) %MON dynstat_vvel_max             =   1.0736320469384E-02
(PID.TID 0000.0001) %MON dynstat_vvel_min             =  -1.0862556259865E-02
(PID.TID 0000.0001) %MON dynstat_vvel_mean            =  -1.3125822182184E-04
(PID.TID 0000.0001) %MON dynstat_vvel_sd              =   1.6604322833320E-03
(PID.TID 0000.0001) %MON dynstat_vvel_del2            =   9.4728469136446E-05
(PID.TID 0000.0001) %MON dynstat_wvel_max             =   2.0462534887077E-05
(PID.TID 0000.0001) %MON dynstat_wvel_min             =  -3.0408868506119E-05
(PID.TID 0000.0001) %MON dynstat_wvel_mean            =  -7.6906043589672E-23
(PID.TID 0000.0001) %MON dynstat_wvel_sd              =   7.0067298209419E-06
(PID.TID 0000.0001) %MON dynstat_wvel_del2            =   3.9279672741969E-07
(PID.TID 0000.0001) %MON dynstat_theta_max            =   1.3328931167158E+01
(PID.TID 0000.0001) %MON dynstat_theta_min            =   6.2538414086021E+00
(PID.TID 0000.0001) %MON dynstat_theta_mean           =   8.4641514414194E+00
(PID.TID 0000.0001) %MON dynstat_theta_sd             =   1.4058074940609E+00
(PID.TID 0000.0001) %MON dynstat_theta_del2           =   7.3999346485373E-03
(PID.TID 0000.0001) %MON dynstat_salt_max             =   1.1996741732443E+01
(PID.TID 0000.0001) %MON dynstat_salt_min             =   1.0463953192392E+01
(PID.TID 0000.0001) %MON dynstat_salt_mean            =   1.1308813843710E+01
(PID.TID 0000.0001) %MON dynstat_salt_sd              =   5.1712435512821E-01
(PID.TID 0000.0001) %MON dynstat_salt_del2            =   5.6519893164380E-04
(PID.TID 0000.0001) %MON advcfl_uvel_max              =   5.1338437365179E-03
(PID.TID 0000.0001) %MON advcfl_vvel_max              =   3.9105202535515E-04
(PID.TID 0000.0001) %MON advcfl_wvel_max              =   3.0352889601515E-03
(PID.TID 0000.0001) %MON advcfl_W_hf_max              =   3.2841681501430E-03
(PID.TID 0000.0001) %MON pe_b_mean                    =   5.2825622143689E-05
(PID.TID 0000.0001) %MON ke_max                       =   1.0195579541680E-02
(PID.TID 0000.0001) %MON ke_mean                      =   2.2258453085630E-04
(PID.TID 0000.0001) %MON ke_vol                       =   5.0981346415358E+14
(PID.TID 0000.0001) // =======================================================
(PID.TID 0000.0001) // End MONITOR dynamic field statistics
(PID.TID 0000.0001) // =======================================================
 cg2d: Sum(rhs),rhsMax =  -1.36314570742258E-14  9.06218243111569E-01
(PID.TID 0000.0001)      cg2d_init_res =   4.75365876453809E-03
(PID.TID 0000.0001)      cg2d_iters(min,last) =      -1      28
(PID.TID 0000.0001)      cg2d_last_res =   2.13772426535174E-16
(PID.TID 0000.0001) // =======================================================
(PID.TID 0000.0001) // Begin MONITOR dynamic field statistics
(PID.TID 0000.0001) // =======================================================
(PID.TID 0000.0001) %MON time_tsnumber                =                    13
(PID.TID 0000.0001) %MON time_secondsf                =   4.6800000000000E+04
(PID.TID 0000.0001) %MON dynstat_eta_max              =   3.5726903601575E-01
(PID.TID 0000.0001) %MON dynstat_eta_min              =  -8.1003161626009E-02
(PID.TID 0000.0001) %MON dynstat_eta_mean             =   1.3478597005208E-15
(PID.TID 0000.0001) %MON dynstat_eta_sd               =   1.3478461863751E-01
(PID.TID 0000.0001) %MON dynstat_eta_del2             =   5.7628867024868E-03
(PID.TID 0000.0001) %MON dynstat_uvel_max             =   1.3828126406646E-01
(PID.TID 0000.0001) %MON dynstat_uvel_min             =  -1.3951249541234E-01
(PID.TID 0000.0001) %MON dynstat_uvel_mean            =   1.4123389652194E-04
(PID.TID 0000.0001) %MON dynstat_uvel_sd              =   2.0602839083499E-02
(PID.TID 0000.0001) %MON dynstat_uvel_del2            =   6.2570203324661E-04
(PID.TID 0000.0001) %MON dynstat_vvel_max             =   1.1762416814343E-02
(PID.TID 0000.0001) %MON dynstat_vvel_min             =  -1.1891299385845E-02
(PID.TID 0000.0001) %MON dynstat_vvel_mean            =  -1.3669517853968E-04
(PID.TID 0000.0001) %MON dynstat_vvel_sd              =   1.8486370732164E-03
(PID.TID 0000.0001) %MON dynstat_vvel_del2            =   9.8780514624020E-05
(PID.TID 0000.0001) %MON dynstat_wvel_max             =   2.5324179286993E-05
(PID.TID 0000.0001) %MON dynstat_wvel_min             =  -3.2802813539876E-05
(PID.TID 0000.0001) %MON dynstat_wvel_mean            =  -7.6906043589672E-24
(PID.TID 0000.0001) %MON dynstat_wvel_sd              =   7.8193692711538E-06
(PID.TID 0000.0001) %MON dynstat_wvel_del2            =   3.7576948383384E-07
(PID.TID 0000.0001) %MON dynstat_theta_max            =   1.3329390432328E+01
(PID.TID 0000.0001) %MON dynstat_theta_min            =   6.2538414441916E+00
(PID.TID 0000.0001) %MON dynstat_theta_mean           =   8.4641522242961E+00
(PID.TID 0000.0001) %MON dynstat_theta_sd             =   1.4058084977589E+00
(PID.TID 0000.0001) %MON dynstat_theta_del2           =   7.4010740709154E-03
(PID.TID 0000.0001) %MON dynstat_salt_max             =   1.1996760607476E+01
(PID.TID 0000.0001) %MON dynstat_salt_min             =   1.0463928686309E+01
(PID.TID 0000.0001) %MON dynstat_salt_mean            =   1.1308814346665E+01
(PID.TID 0000.0001) %MON dynstat_salt_sd              =   5.1711626815540E-01
(PID.TID 0000.0001) %MON dynstat_salt_del2            =   5.6528775762400E-04
(PID.TID 0000.0001) %MON advcfl_uvel_max              =   5.0224498348441E-03
(PID.TID 0000.0001) %MON advcfl_vvel_max              =   4.2808677789043E-04
(PID.TID 0000.0001) %MON advcfl_wvel_max              =   3.2661211207721E-03
(PID.TID 0000.0001) %MON advcfl_W_hf_max              =   3.5369272010342E-03
(PID.TID 0000.0001) %MON pe_b_mean                    =   5.2436009538836E-05
(PID.TID 0000.0001) %MON ke_max                       =   9.7683532173398E-03
(PID.TID 0000.0001) %MON ke_mean                      =   2.1389914377298E-04
(PID.TID 0000.0001) %MON ke_vol                       =   5.0981346415358E+14
(PID.TID 0000.0001) // =======================================================
(PID.TID 0000.0001) // End MONITOR dynamic field statistics
(PID.TID 0000.0001) // =======================================================
 cg2d: Sum(rhs),rhsMax =  -1.73611125475759E-14  9.07311785130771E-01
(PID.TID 0000.0001)      cg2d_init_res =   2.57538973468435E-03
(PID.TID 0000.0001)      cg2d_iters(min,last) =      -1      27
(PID.TID 0000.0001)      cg2d_last_res =   6.42083871157281E-14
(PID.TID 0000.0001) // =======================================================
(PID.TID 0000.0001) // Begin MONITOR dynamic field statistics
(PID.TID 0000.0001) // =======================================================
(PID.TID 0000.0001) %MON time_tsnumber                =                    14
(PID.TID 0000.0001) %MON time_secondsf                =   5.0400000000000E+04
(PID.TID 0000.0001) %MON dynstat_eta_max              =   3.5753391555384E-01
(PID.TID 0000.0001) %MON dynstat_eta_min              =  -8.0356042625958E-02
(PID.TID 0000.0001) %MON dynstat_eta_mean             =   1.3427734375000E-15
(PID.TID 0000.0001) %MON dynstat_eta_sd               =   1.3484461271416E-01
(PID.TID 0000.0001) %MON dynstat_eta_del2             =   5.7652853264054E-03
(PID.TID 0000.0001) %MON dynstat_uvel_max             =   1.3511064386056E-01
(PID.TID 0000.0001) %MON dynstat_uvel_min             =  -1.3623068683200E-01
(PID.TID 0000.0001) %MON dynstat_uvel_mean            =   9.3525456119652E-05
(PID.TID 0000.0001) %MON dynstat_uvel_sd              =   2.0170109018205E-02
(PID.TID 0000.0001) %MON dynstat_uvel_del2            =   6.0448162400535E-04
(PID.TID 0000.0001) %MON dynstat_vvel_max             =   1.1603788939516E-02
(PID.TID 0000.0001) %MON dynstat_vvel_min             =  -1.1632060667399E-02
(PID.TID 0000.0001) %MON dynstat_vvel_mean            =  -9.6022079159067E-05
(PID.TID 0000.0001) %MON dynstat_vvel_sd              =   1.8357939196845E-03
(PID.TID 0000.0001) %MON dynstat_vvel_del2            =   9.8678961383357E-05
(PID.TID 0000.0001) %MON dynstat_wvel_max             =   2.7496348009363E-05
(PID.TID 0000.0001) %MON dynstat_wvel_min             =  -3.1544798508566E-05
(PID.TID 0000.0001) %MON dynstat_wvel_mean            =  -1.1535906538451E-22
(PID.TID 0000.0001) %MON dynstat_wvel_sd              =   7.9465406530119E-06
(PID.TID 0000.0001) %MON dynstat_wvel_del2            =   3.5584612497797E-07
(PID.TID 0000.0001) %MON dynstat_theta_max            =   1.3329985489645E+01
(PID.TID 0000.0001) %MON dynstat_theta_min            =   6.2538416933003E+00
(PID.TID 0000.0001) %MON dynstat_theta_mean           =   8.4641523744098E+00
(PID.TID 0000.0001) %MON dynstat_theta_sd             =   1.4058082502488E+00
(PID.TID 0000.0001) %MON dynstat_theta_del2           =   7.4024100587410E-03
(PID.TID 0000.0001) %MON dynstat_salt_max             =   1.1996784518501E+01
(PID.TID 0000.0001) %MON dynstat_salt_min             =   1.0463954616920E+01
(PID.TID 0000.0001) %MON dynstat_salt_mean            =   1.1308814447242E+01
(PID.TID 0000.0001) %MON dynstat_salt_sd              =   5.1710820306825E-01
(PID.TID 0000.0001) %MON dynstat_salt_del2            =   5.6538051896209E-04
(PID.TID 0000.0001) %MON advcfl_uvel_max              =   4.9043047259519E-03
(PID.TID 0000.0001) %MON advcfl_vvel_max              =   4.1875418402636E-04
(PID.TID 0000.0001) %MON advcfl_wvel_max              =   3.1430290176966E-03
(PID.TID 0000.0001) %MON advcfl_W_hf_max              =   3.4062458506069E-03
(PID.TID 0000.0001) %MON pe_b_mean                    =   5.2482699586009E-05
(PID.TID 0000.0001) %MON ke_max                       =   9.3166663852594E-03
(PID.TID 0000.0001) %MON ke_mean                      =   2.0504442469539E-04
(PID.TID 0000.0001) %MON ke_vol                       =   5.0981346415358E+14
(PID.TID 0000.0001) // =======================================================
(PID.TID 0000.0001) // End MONITOR dynamic field statistics
(PID.TID 0000.0001) // =======================================================
 cg2d: Sum(rhs),rhsMax =  -1.75137682134618E-14  9.08645630653626E-01
(PID.TID 0000.0001)      cg2d_init_res =   2.58632171932007E-03
(PID.TID 0000.0001)      cg2d_iters(min,last) =      -1      27
(PID.TID 0000.0001)      cg2d_last_res =   2.45313205378327E-14
(PID.TID 0000.0001) // =======================================================
(PID.TID 0000.0001) // Begin MONITOR dynamic field statistics
(PID.TID 0000.0001) // =======================================================
(PID.TID 0000.0001) %MON time_tsnumber                =                    15
(PID.TID 0000.0001) %MON time_secondsf                =   5.4000000000000E+04
(PID.TID 0000.0001) %MON dynstat_eta_max              =   3.5823815058355E-01
(PID.TID 0000.0001) %MON dynstat_eta_min              =  -8.0171383470169E-02
(PID.TID 0000.0001) %MON dynstat_eta_mean             =   1.7553965250651E-15
(PID.TID 0000.0001) %MON dynstat_eta_sd               =   1.3515953444313E-01
(PID.TID 0000.0001) %MON dynstat_eta_del2             =   5.7677038385352E-03
(PID.TID 0000.0001) %MON dynstat_uvel_max             =   1.3222579788318E-01
(PID.TID 0000.0001) %MON dynstat_uvel_min             =  -1.3318789475341E-01
(PID.TID 0000.0001) %MON dynstat_uvel_mean            =   6.9663190875708E-05
(PID.TID 0000.0001) %MON dynstat_uvel_sd              =   1.9794174692699E-02
(PID.TID 0000.0001) %MON dynstat_uvel_del2            =   5.8333120761142E-04
(PID.TID 0000.0001) %MON dynstat_vvel_max             =   1.0225440007864E-02
(PID.TID 0000.0001) %MON dynstat_vvel_min             =  -1.0143506971346E-02
(PID.TID 0000.0001) %MON dynstat_vvel_mean            =  -3.5277350721790E-05
(PID.TID 0000.0001) %MON dynstat_vvel_sd              =   1.6315595000897E-03
(PID.TID 0000.0001) %MON dynstat_vvel_del2            =   9.3233555571530E-05
(PID.TID 0000.0001) %MON dynstat_wvel_max             =   2.6808267521189E-05
(PID.TID 0000.0001) %MON dynstat_wvel_min             =  -2.6897201085167E-05
(PID.TID 0000.0001) %MON dynstat_wvel_mean            =  -6.5370137051221E-23
(PID.TID 0000.0001) %MON dynstat_wvel_sd              =   7.3645208470378E-06
(PID.TID 0000.0001) %MON dynstat_wvel_del2            =   3.3130688632943E-07
(PID.TID 0000.0001) %MON dynstat_theta_max            =   1.3330741297063E+01
(PID.TID 0000.0001) %MON dynstat_theta_min            =   6.2538421279905E+00
(PID.TID 0000.0001) %MON dynstat_theta_mean           =   8.4641520994080E+00
(PID.TID 0000.0001) %MON dynstat_theta_sd             =   1.4058071454591E+00
(PID.TID 0000.0001) %MON dynstat_theta_del2           =   7.4037329946279E-03
(PID.TID 0000.0001) %MON dynstat_salt_max             =   1.1996814467365E+01
(PID.TID 0000.0001) %MON dynstat_salt_min             =   1.0464003939273E+01
(PID.TID 0000.0001) %MON dynstat_salt_mean            =   1.1308814277922E+01
(PID.TID 0000.0001) %MON dynstat_salt_sd              =   5.1710015205606E-01
(PID.TID 0000.0001) %MON dynstat_salt_del2            =   5.6547082587727E-04
(PID.TID 0000.0001) %MON advcfl_uvel_max              =   4.7947642111227E-03
(PID.TID 0000.0001) %MON advcfl_vvel_max              =   3.6811584028311E-04
(PID.TID 0000.0001) %MON advcfl_wvel_max              =   2.7093115578880E-03
(PID.TID 0000.0001) %MON advcfl_W_hf_max              =   2.9358623885885E-03
(PID.TID 0000.0001) %MON pe_b_mean                    =   5.2728126410033E-05
(PID.TID 0000.0001) %MON ke_max                       =   8.8985244784641E-03
(PID.TID 0000.0001) %MON ke_mean                      =   1.9718648535001E-04
(PID.TID 0000.0001) %MON ke_vol                       =   5.0981346415358E+14
(PID.TID 0000.0001) // =======================================================
(PID.TID 0000.0001) // End MONITOR dynamic field statistics
(PID.TID 0000.0001) // =======================================================
 cg2d: Sum(rhs),rhsMax =  -2.23016050071578E-14  9.09680437176064E-01
(PID.TID 0000.0001)      cg2d_init_res =   2.11599010674061E-03
(PID.TID 0000.0001)      cg2d_iters(min,last) =      -1      27
(PID.TID 0000.0001)      cg2d_last_res =   1.45456005056049E-14
(PID.TID 0000.0001) // =======================================================
(PID.TID 0000.0001) // Begin MONITOR dynamic field statistics
(PID.TID 0000.0001) // =======================================================
(PID.TID 0000.0001) %MON time_tsnumber                =                    16
(PID.TID 0000.0001) %MON time_secondsf                =   5.7600000000000E+04
(PID.TID 0000.0001) %MON dynstat_eta_max              =   3.5876568680045E-01
(PID.TID 0000.0001) %MON dynstat_eta_min              =  -8.0363051558081E-02
(PID.TID 0000.0001) %MON dynstat_eta_mean             =   1.8698374430339E-15
(PID.TID 0000.0001) %MON dynstat_eta_sd               =   1.3541218597445E-01
(PID.TID 0000.0001) %MON dynstat_eta_del2             =   5.7695712097244E-03
(PID.TID 0000.0001) %MON dynstat_uvel_max             =   1.2999558579183E-01
(PID.TID 0000.0001) %MON dynstat_uvel_min             =  -1.3077779346364E-01
(PID.TID 0000.0001) %MON dynstat_uvel_mean            =   7.1018983490200E-05
(PID.TID 0000.0001) %MON dynstat_uvel_sd              =   1.9521924359632E-02
(PID.TID 0000.0001) %MON dynstat_uvel_del2            =   5.6466279058210E-04
(PID.TID 0000.0001) %MON dynstat_vvel_max             =   7.7573508582478E-03
(PID.TID 0000.0001) %MON dynstat_vvel_min             =  -7.6211320257872E-03
(PID.TID 0000.0001) %MON dynstat_vvel_mean            =   2.1410730411791E-05
(PID.TID 0000.0001) %MON dynstat_vvel_sd              =   1.2818443190443E-03
(PID.TID 0000.0001) %MON dynstat_vvel_del2            =   8.3272262941139E-05
(PID.TID 0000.0001) %MON dynstat_wvel_max             =   2.3495715076801E-05
(PID.TID 0000.0001) %MON dynstat_wvel_min             =  -1.9383150428923E-05
(PID.TID 0000.0001) %MON dynstat_wvel_mean            =   9.2287252307606E-23
(PID.TID 0000.0001) %MON dynstat_wvel_sd              =   6.2147155967686E-06
(PID.TID 0000.0001) %MON dynstat_wvel_del2            =   3.0488542098043E-07
(PID.TID 0000.0001) %MON dynstat_theta_max            =   1.3331661284244E+01
(PID.TID 0000.0001) %MON dynstat_theta_min            =   6.2538426231730E+00
(PID.TID 0000.0001) %MON dynstat_theta_mean           =   8.4641517777304E+00
(PID.TID 0000.0001) %MON dynstat_theta_sd             =   1.4058059035022E+00
(PID.TID 0000.0001) %MON dynstat_theta_del2           =   7.4048406812394E-03
(PID.TID 0000.0001) %MON dynstat_salt_max             =   1.1996850618183E+01
(PID.TID 0000.0001) %MON dynstat_salt_min             =   1.0464079261544E+01
(PID.TID 0000.0001) %MON dynstat_salt_mean            =   1.1308814077495E+01
(PID.TID 0000.0001) %MON dynstat_salt_sd              =   5.1709210159140E-01
(PID.TID 0000.0001) %MON dynstat_salt_del2            =   5.6556660819401E-04
(PID.TID 0000.0001) %MON advcfl_uvel_max              =   4.7080005646911E-03
(PID.TID 0000.0001) %MON advcfl_vvel_max              =   2.7926463089692E-04
(PID.TID 0000.0001) %MON advcfl_wvel_max              =   2.3031396728146E-03
(PID.TID 0000.0001) %MON advcfl_W_hf_max              =   2.4950105652111E-03
(PID.TID 0000.0001) %MON pe_b_mean                    =   5.2925438321288E-05
(PID.TID 0000.0001) %MON ke_max                       =   8.5674146710736E-03
(PID.TID 0000.0001) %MON ke_mean                      =   1.9134484415790E-04
(PID.TID 0000.0001) %MON ke_vol                       =   5.0981346415358E+14
(PID.TID 0000.0001) // =======================================================
(PID.TID 0000.0001) // End MONITOR dynamic field statistics
(PID.TID 0000.0001) // =======================================================
 cg2d: Sum(rhs),rhsMax =  -2.39357145215280E-14  9.10174725600039E-01
(PID.TID 0000.0001)      cg2d_init_res =   1.55964402029600E-03
(PID.TID 0000.0001)      cg2d_iters(min,last) =      -1      27
(PID.TID 0000.0001)      cg2d_last_res =   2.63993696205704E-14
(PID.TID 0000.0001) // =======================================================
(PID.TID 0000.0001) // Begin MONITOR dynamic field statistics
(PID.TID 0000.0001) // =======================================================
(PID.TID 0000.0001) %MON time_tsnumber                =                    17
(PID.TID 0000.0001) %MON time_secondsf                =   6.1200000000000E+04
(PID.TID 0000.0001) %MON dynstat_eta_max              =   3.5888690017249E-01
(PID.TID 0000.0001) %MON dynstat_eta_min              =  -8.0772566138857E-02
(PID.TID 0000.0001) %MON dynstat_eta_mean             =   1.5306472778320E-15
(PID.TID 0000.0001) %MON dynstat_eta_sd               =   1.3547968536894E-01
(PID.TID 0000.0001) %MON dynstat_eta_del2             =   5.7706003109867E-03
(PID.TID 0000.0001) %MON dynstat_uvel_max             =   1.2867542747045E-01
(PID.TID 0000.0001) %MON dynstat_uvel_min             =  -1.2929570434554E-01
(PID.TID 0000.0001) %MON dynstat_uvel_mean            =   9.0999070431960E-05
(PID.TID 0000.0001) %MON dynstat_uvel_sd              =   1.9382517876925E-02
(PID.TID 0000.0001) %MON dynstat_uvel_del2            =   5.5044143391965E-04
(PID.TID 0000.0001) %MON dynstat_vvel_max             =   5.2946508833354E-03
(PID.TID 0000.0001) %MON dynstat_vvel_min             =  -5.5914419121269E-03
(PID.TID 0000.0001) %MON dynstat_vvel_mean            =   5.7858051179793E-05
(PID.TID 0000.0001) %MON dynstat_vvel_sd              =   8.8934085672744E-04
(PID.TID 0000.0001) %MON dynstat_vvel_del2            =   7.1763128359132E-05
(PID.TID 0000.0001) %MON dynstat_wvel_max             =   1.8114223283793E-05
(PID.TID 0000.0001) %MON dynstat_wvel_min             =  -1.2397442827667E-05
(PID.TID 0000.0001) %MON dynstat_wvel_mean            =   1.6919329589728E-22
(PID.TID 0000.0001) %MON dynstat_wvel_sd              =   4.8404506935050E-06
(PID.TID 0000.0001) %MON dynstat_wvel_del2            =   2.8427370944020E-07
(PID.TID 0000.0001) %MON dynstat_theta_max            =   1.3332730558950E+01
(PID.TID 0000.0001) %MON dynstat_theta_min            =   6.2538430916999E+00
(PID.TID 0000.0001) %MON dynstat_theta_mean           =   8.4641516326032E+00
(PID.TID 0000.0001) %MON dynstat_theta_sd             =   1.4058049411099E+00
(PID.TID 0000.0001) %MON dynstat_theta_del2           =   7.4055280862335E-03
(PID.TID 0000.0001) %MON dynstat_salt_max             =   1.1996892423177E+01
(PID.TID 0000.0001) %MON dynstat_salt_min             =   1.0464129714434E+01
(PID.TID 0000.0001) %MON dynstat_salt_mean            =   1.1308813986585E+01
(PID.TID 0000.0001) %MON dynstat_salt_sd              =   5.1708404377780E-01
(PID.TID 0000.0001) %MON dynstat_salt_del2            =   5.6566530276851E-04
(PID.TID 0000.0001) %MON advcfl_uvel_max              =   4.6546453564395E-03
(PID.TID 0000.0001) %MON advcfl_vvel_max              =   2.0129190883657E-04
(PID.TID 0000.0001) %MON advcfl_wvel_max              =   1.8145085963363E-03
(PID.TID 0000.0001) %MON advcfl_W_hf_max              =   1.9640761250899E-03
(PID.TID 0000.0001) %MON pe_b_mean                    =   5.2978215335352E-05
(PID.TID 0000.0001) %MON ke_max                       =   8.3634268340195E-03
(PID.TID 0000.0001) %MON ke_mean                      =   1.8822669973066E-04
(PID.TID 0000.0001) %MON ke_vol                       =   5.0981346415358E+14
(PID.TID 0000.0001) // =======================================================
(PID.TID 0000.0001) // End MONITOR dynamic field statistics
(PID.TID 0000.0001) // =======================================================
 cg2d: Sum(rhs),rhsMax =  -1.91201221522164E-14  9.10167845574940E-01
(PID.TID 0000.0001)      cg2d_init_res =   1.53511608989160E-03
(PID.TID 0000.0001)      cg2d_iters(min,last) =      -1      27
(PID.TID 0000.0001)      cg2d_last_res =   5.58222247581804E-14
(PID.TID 0000.0001) // =======================================================
(PID.TID 0000.0001) // Begin MONITOR dynamic field statistics
(PID.TID 0000.0001) // =======================================================
(PID.TID 0000.0001) %MON time_tsnumber                =                    18
(PID.TID 0000.0001) %MON time_secondsf                =   6.4800000000000E+04
(PID.TID 0000.0001) %MON dynstat_eta_max              =   3.5871857266340E-01
(PID.TID 0000.0001) %MON dynstat_eta_min              =  -8.1229256550902E-02
(PID.TID 0000.0001) %MON dynstat_eta_mean             =   1.7150243123372E-15
(PID.TID 0000.0001) %MON dynstat_eta_sd               =   1.3541492591066E-01
(PID.TID 0000.0001) %MON dynstat_eta_del2             =   5.7707770369620E-03
(PID.TID 0000.0001) %MON dynstat_uvel_max             =   1.2838188105248E-01
(PID.TID 0000.0001) %MON dynstat_uvel_min             =  -1.2889861140633E-01
(PID.TID 0000.0001) %MON dynstat_uvel_mean            =   1.1910181817256E-04
(PID.TID 0000.0001) %MON dynstat_uvel_sd              =   1.9385720679663E-02
(PID.TID 0000.0001) %MON dynstat_uvel_del2            =   5.4200982494056E-04
(PID.TID 0000.0001) %MON dynstat_vvel_max             =   5.4250720518460E-03
(PID.TID 0000.0001) %MON dynstat_vvel_min             =  -5.6683709802211E-03
(PID.TID 0000.0001) %MON dynstat_vvel_mean            =   6.7769792655866E-05
(PID.TID 0000.0001) %MON dynstat_vvel_sd              =   6.8765690754222E-04
(PID.TID 0000.0001) %MON dynstat_vvel_del2            =   6.3875549921901E-05
(PID.TID 0000.0001) %MON dynstat_wvel_max             =   1.1414040093130E-05
(PID.TID 0000.0001) %MON dynstat_wvel_min             =  -1.3725973900554E-05
(PID.TID 0000.0001) %MON dynstat_wvel_mean            =  -3.0762417435869E-23
(PID.TID 0000.0001) %MON dynstat_wvel_sd              =   3.9086464856972E-06
(PID.TID 0000.0001) %MON dynstat_wvel_del2            =   2.7940703315381E-07
(PID.TID 0000.0001) %MON dynstat_theta_max            =   1.3333923144347E+01
(PID.TID 0000.0001) %MON dynstat_theta_min            =   6.2538435218854E+00
(PID.TID 0000.0001) %MON dynstat_theta_mean           =   8.4641516679858E+00
(PID.TID 0000.0001) %MON dynstat_theta_sd             =   1.4058042754388E+00
(PID.TID 0000.0001) %MON dynstat_theta_del2           =   7.4057277296021E-03
(PID.TID 0000.0001) %MON dynstat_salt_max             =   1.1996938899039E+01
(PID.TID 0000.0001) %MON dynstat_salt_min             =   1.0464160781722E+01
(PID.TID 0000.0001) %MON dynstat_salt_mean            =   1.1308814007806E+01
(PID.TID 0000.0001) %MON dynstat_salt_sd              =   5.1707597836046E-01
(PID.TID 0000.0001) %MON dynstat_salt_del2            =   5.6576952239906E-04
(PID.TID 0000.0001) %MON advcfl_uvel_max              =   4.6403500106278E-03
(PID.TID 0000.0001) %MON advcfl_vvel_max              =   2.0406135528796E-04
(PID.TID 0000.0001) %MON advcfl_wvel_max              =   1.2882565744629E-03
(PID.TID 0000.0001) %MON advcfl_W_hf_max              =   1.3987359723024E-03
(PID.TID 0000.0001) %MON pe_b_mean                    =   5.2927580134316E-05
(PID.TID 0000.0001) %MON ke_max                       =   8.3078383990298E-03
(PID.TID 0000.0001) %MON ke_mean                      =   1.8813954389043E-04
(PID.TID 0000.0001) %MON ke_vol                       =   5.0981346415358E+14
(PID.TID 0000.0001) // =======================================================
(PID.TID 0000.0001) // End MONITOR dynamic field statistics
(PID.TID 0000.0001) // =======================================================
 cg2d: Sum(rhs),rhsMax =  -2.16875128966620E-14  9.09800000084836E-01
(PID.TID 0000.0001)      cg2d_init_res =   1.38204141758128E-03
(PID.TID 0000.0001)      cg2d_iters(min,last) =      -1      27
(PID.TID 0000.0001)      cg2d_last_res =   7.19687486769158E-14
(PID.TID 0000.0001) // =======================================================
(PID.TID 0000.0001) // Begin MONITOR dynamic field statistics
(PID.TID 0000.0001) // =======================================================
(PID.TID 0000.0001) %MON time_tsnumber                =                    19
(PID.TID 0000.0001) %MON time_secondsf                =   6.8400000000000E+04
(PID.TID 0000.0001) %MON dynstat_eta_max              =   3.5848880358597E-01
(PID.TID 0000.0001) %MON dynstat_eta_min              =  -8.1589978993266E-02
(PID.TID 0000.0001) %MON dynstat_eta_mean             =   1.3408660888672E-15
(PID.TID 0000.0001) %MON dynstat_eta_sd               =   1.3532653581660E-01
(PID.TID 0000.0001) %MON dynstat_eta_del2             =   5.7702618847287E-03
(PID.TID 0000.0001) %MON dynstat_uvel_max             =   1.2909007775759E-01
(PID.TID 0000.0001) %MON dynstat_uvel_min             =  -1.2959107509719E-01
(PID.TID 0000.0001) %MON dynstat_uvel_mean            =   1.4477277083534E-04
(PID.TID 0000.0001) %MON dynstat_uvel_sd              =   1.9523999203980E-02
(PID.TID 0000.0001) %MON dynstat_uvel_del2            =   5.4000732531281E-04
(PID.TID 0000.0001) %MON dynstat_vvel_max             =   5.0446511489099E-03
(PID.TID 0000.0001) %MON dynstat_vvel_min             =  -5.2605060801140E-03
(PID.TID 0000.0001) %MON dynstat_vvel_mean            =   5.3983269689451E-05
(PID.TID 0000.0001) %MON dynstat_vvel_sd              =   8.8561468895622E-04
(PID.TID 0000.0001) %MON dynstat_vvel_del2            =   6.4687687586258E-05
(PID.TID 0000.0001) %MON dynstat_wvel_max             =   1.1581074146501E-05
(PID.TID 0000.0001) %MON dynstat_wvel_min             =  -1.7669115322649E-05
(PID.TID 0000.0001) %MON dynstat_wvel_mean            =  -3.0762417435869E-23
(PID.TID 0000.0001) %MON dynstat_wvel_sd              =   4.1623263785695E-06
(PID.TID 0000.0001) %MON dynstat_wvel_del2            =   2.9527788247671E-07
(PID.TID 0000.0001) %MON dynstat_theta_max            =   1.3335213290791E+01
(PID.TID 0000.0001) %MON dynstat_theta_min            =   6.2538439464436E+00
(PID.TID 0000.0001) %MON dynstat_theta_mean           =   8.4641517738220E+00
(PID.TID 0000.0001) %MON dynstat_theta_sd             =   1.4058036921171E+00
(PID.TID 0000.0001) %MON dynstat_theta_del2           =   7.4053975972102E-03
(PID.TID 0000.0001) %MON dynstat_salt_max             =   1.1996989074266E+01
(PID.TID 0000.0001) %MON dynstat_salt_min             =   1.0464192677270E+01
(PID.TID 0000.0001) %MON dynstat_salt_mean            =   1.1308814072334E+01
(PID.TID 0000.0001) %MON dynstat_salt_sd              =   5.1706790826553E-01
(PID.TID 0000.0001) %MON dynstat_salt_del2            =   5.6586855111936E-04
(PID.TID 0000.0001) %MON advcfl_uvel_max              =   4.6652787034990E-03
(PID.TID 0000.0001) %MON advcfl_vvel_max              =   1.8937821888410E-04
(PID.TID 0000.0001) %MON advcfl_wvel_max              =   1.6723273460520E-03
(PID.TID 0000.0001) %MON advcfl_W_hf_max              =   1.8152201929717E-03
(PID.TID 0000.0001) %MON pe_b_mean                    =   5.2858507291452E-05
(PID.TID 0000.0001) %MON ke_max                       =   8.4012436743606E-03
(PID.TID 0000.0001) %MON ke_mean                      =   1.9098192636693E-04
(PID.TID 0000.0001) %MON ke_vol                       =   5.0981346415358E+14
(PID.TID 0000.0001) // =======================================================
(PID.TID 0000.0001) // End MONITOR dynamic field statistics
(PID.TID 0000.0001) // =======================================================
 cg2d: Sum(rhs),rhsMax =  -1.73368264189122E-14  9.09191855191381E-01
(PID.TID 0000.0001)      cg2d_init_res =   1.18582738056501E-03
(PID.TID 0000.0001)      cg2d_iters(min,last) =      -1      27
(PID.TID 0000.0001)      cg2d_last_res =   1.09132212034032E-14
(PID.TID 0000.0001) // =======================================================
(PID.TID 0000.0001) // Begin MONITOR dynamic field statistics
(PID.TID 0000.0001) // =======================================================
(PID.TID 0000.0001) %MON time_tsnumber                =                    20
(PID.TID 0000.0001) %MON time_secondsf                =   7.2000000000000E+04
(PID.TID 0000.0001) %MON dynstat_eta_max              =   3.5834892935589E-01
(PID.TID 0000.0001) %MON dynstat_eta_min              =  -8.1767774681623E-02
(PID.TID 0000.0001) %MON dynstat_eta_mean             =   1.3081232706706E-15
(PID.TID 0000.0001) %MON dynstat_eta_sd               =   1.3528445384422E-01
(PID.TID 0000.0001) %MON dynstat_eta_del2             =   5.7692300319339E-03
(PID.TID 0000.0001) %MON dynstat_uvel_max             =   1.3064863030897E-01
(PID.TID 0000.0001) %MON dynstat_uvel_min             =  -1.3123228983080E-01
(PID.TID 0000.0001) %MON dynstat_uvel_mean            =   1.6041320479274E-04
(PID.TID 0000.0001) %MON dynstat_uvel_sd              =   1.9775781236388E-02
(PID.TID 0000.0001) %MON dynstat_uvel_del2            =   5.4436357647252E-04
(PID.TID 0000.0001) %MON dynstat_vvel_max             =   6.0776804146146E-03
(PID.TID 0000.0001) %MON dynstat_vvel_min             =  -6.4389084939064E-03
(PID.TID 0000.0001) %MON dynstat_vvel_mean            =   2.5813431070225E-05
(PID.TID 0000.0001) %MON dynstat_vvel_sd              =   1.2353795149198E-03
(PID.TID 0000.0001) %MON dynstat_vvel_del2            =   7.3763023820299E-05
(PID.TID 0000.0001) %MON dynstat_wvel_max             =   2.0751637757806E-05
(PID.TID 0000.0001) %MON dynstat_wvel_min             =  -2.0080595111971E-05
(PID.TID 0000.0001) %MON dynstat_wvel_mean            =   1.1151376320502E-22
(PID.TID 0000.0001) %MON dynstat_wvel_sd              =   5.2983502680149E-06
(PID.TID 0000.0001) %MON dynstat_wvel_del2            =   3.2682899506703E-07
(PID.TID 0000.0001) %MON dynstat_theta_max            =   1.3336573821576E+01
(PID.TID 0000.0001) %MON dynstat_theta_min            =   6.2538444006022E+00
(PID.TID 0000.0001) %MON dynstat_theta_mean           =   8.4641518495491E+00
(PID.TID 0000.0001) %MON dynstat_theta_sd             =   1.4058030115494E+00
(PID.TID 0000.0001) %MON dynstat_theta_del2           =   7.4046019008918E-03
(PID.TID 0000.0001) %MON dynstat_salt_max             =   1.1997041910238E+01
(PID.TID 0000.0001) %MON dynstat_salt_min             =   1.0464225169144E+01
(PID.TID 0000.0001) %MON dynstat_salt_mean            =   1.1308814117661E+01
(PID.TID 0000.0001) %MON dynstat_salt_sd              =   5.1705983777406E-01
(PID.TID 0000.0001) %MON dynstat_salt_del2            =   5.6597633974205E-04
(PID.TID 0000.0001) %MON advcfl_uvel_max              =   4.7243624339088E-03
(PID.TID 0000.0001) %MON advcfl_vvel_max              =   2.3180070578063E-04
(PID.TID 0000.0001) %MON advcfl_wvel_max              =   1.9136368417790E-03
(PID.TID 0000.0001) %MON advcfl_W_hf_max              =   2.0769448783006E-03
(PID.TID 0000.0001) %MON pe_b_mean                    =   5.2825637989430E-05
(PID.TID 0000.0001) %MON ke_max                       =   8.6244867235325E-03
(PID.TID 0000.0001) %MON ke_mean                      =   1.9628709755069E-04
(PID.TID 0000.0001) %MON ke_vol                       =   5.0981346415358E+14
(PID.TID 0000.0001) // =======================================================
(PID.TID 0000.0001) // End MONITOR dynamic field statistics
(PID.TID 0000.0001) // =======================================================
 cg2d: Sum(rhs),rhsMax =  -1.67435509901281E-14  9.08402201311567E-01
(PID.TID 0000.0001)      cg2d_init_res =   1.42512606492250E-03
(PID.TID 0000.0001)      cg2d_iters(min,last) =      -1      27
(PID.TID 0000.0001)      cg2d_last_res =   9.50464716543056E-14
(PID.TID 0000.0001) // =======================================================
(PID.TID 0000.0001) // Begin MONITOR dynamic field statistics
(PID.TID 0000.0001) // =======================================================
(PID.TID 0000.0001) %MON time_tsnumber                =                    21
(PID.TID 0000.0001) %MON time_secondsf                =   7.5600000000000E+04
(PID.TID 0000.0001) %MON dynstat_eta_max              =   3.5832374202844E-01
(PID.TID 0000.0001) %MON dynstat_eta_min              =  -8.1746324956738E-02
(PID.TID 0000.0001) %MON dynstat_eta_mean             =   1.5528996785482E-15
(PID.TID 0000.0001) %MON dynstat_eta_sd               =   1.3529753666564E-01
(PID.TID 0000.0001) %MON dynstat_eta_del2             =   5.7678435780993E-03
(PID.TID 0000.0001) %MON dynstat_uvel_max             =   1.3280631047510E-01
(PID.TID 0000.0001) %MON dynstat_uvel_min             =  -1.3355962335433E-01
(PID.TID 0000.0001) %MON dynstat_uvel_mean            =   1.6305857807262E-04
(PID.TID 0000.0001) %MON dynstat_uvel_sd              =   2.0108367886366E-02
(PID.TID 0000.0001) %MON dynstat_uvel_del2            =   5.5433338997988E-04
(PID.TID 0000.0001) %MON dynstat_vvel_max             =   8.5898048782253E-03
(PID.TID 0000.0001) %MON dynstat_vvel_min             =  -9.1020197432343E-03
(PID.TID 0000.0001) %MON dynstat_vvel_mean            =  -4.8384025543986E-06
(PID.TID 0000.0001) %MON dynstat_vvel_sd              =   1.5224306294635E-03
(PID.TID 0000.0001) %MON dynstat_vvel_del2            =   8.5799873014065E-05
(PID.TID 0000.0001) %MON dynstat_wvel_max             =   2.7822798862126E-05
(PID.TID 0000.0001) %MON dynstat_wvel_min             =  -2.0707274800197E-05
(PID.TID 0000.0001) %MON dynstat_wvel_mean            =   9.4209903397348E-23
(PID.TID 0000.0001) %MON dynstat_wvel_sd              =   6.5050562769865E-06
(PID.TID 0000.0001) %MON dynstat_wvel_del2            =   3.6310458337558E-07
(PID.TID 0000.0001) %MON dynstat_theta_max            =   1.3337981517303E+01
(PID.TID 0000.0001) %MON dynstat_theta_min            =   6.2538449029513E+00
(PID.TID 0000.0001) %MON dynstat_theta_mean           =   8.4641518603870E+00
(PID.TID 0000.0001) %MON dynstat_theta_sd             =   1.4058021607215E+00
(PID.TID 0000.0001) %MON dynstat_theta_del2           =   7.4035572586611E-03
(PID.TID 0000.0001) %MON dynstat_salt_max             =   1.1997096480525E+01
(PID.TID 0000.0001) %MON dynstat_salt_min             =   1.0464258099625E+01
(PID.TID 0000.0001) %MON dynstat_salt_mean            =   1.1308814122589E+01
(PID.TID 0000.0001) %MON dynstat_salt_sd              =   5.1705176731485E-01
(PID.TID 0000.0001) %MON dynstat_salt_del2            =   5.6609160008211E-04
(PID.TID 0000.0001) %MON advcfl_uvel_max              =   4.8081464407560E-03
(PID.TID 0000.0001) %MON advcfl_vvel_max              =   3.2767271075644E-04
(PID.TID 0000.0001) %MON advcfl_wvel_max              =   2.5609376549996E-03
(PID.TID 0000.0001) %MON advcfl_W_hf_max              =   2.7859773790065E-03
(PID.TID 0000.0001) %MON pe_b_mean                    =   5.2835855598118E-05
(PID.TID 0000.0001) %MON ke_max                       =   8.9417458790558E-03
(PID.TID 0000.0001) %MON ke_mean                      =   2.0329997471460E-04
(PID.TID 0000.0001) %MON ke_vol                       =   5.0981346415358E+14
(PID.TID 0000.0001) // =======================================================
(PID.TID 0000.0001) // End MONITOR dynamic field statistics
(PID.TID 0000.0001) // =======================================================
 cg2d: Sum(rhs),rhsMax =  -1.96023752785379E-14  9.07467917772765E-01
(PID.TID 0000.0001)      cg2d_init_res =   1.79833350887701E-03
(PID.TID 0000.0001)      cg2d_iters(min,last) =      -1      28
(PID.TID 0000.0001)      cg2d_last_res =   1.44263183746316E-16
(PID.TID 0000.0001) // =======================================================
(PID.TID 0000.0001) // Begin MONITOR dynamic field statistics
(PID.TID 0000.0001) // =======================================================
(PID.TID 0000.0001) %MON time_tsnumber                =                    22
(PID.TID 0000.0001) %MON time_secondsf                =   7.9200000000000E+04
(PID.TID 0000.0001) %MON dynstat_eta_max              =   3.5836093367911E-01
(PID.TID 0000.0001) %MON dynstat_eta_min              =  -8.1574213370107E-02
(PID.TID 0000.0001) %MON dynstat_eta_mean             =   1.6158421834310E-15
(PID.TID 0000.0001) %MON dynstat_eta_sd               =   1.3533938335762E-01
(PID.TID 0000.0001) %MON dynstat_eta_del2             =   5.7662196825799E-03
(PID.TID 0000.0001) %MON dynstat_uvel_max             =   1.3524705115393E-01
(PID.TID 0000.0001) %MON dynstat_uvel_min             =  -1.3622608187107E-01
(PID.TID 0000.0001) %MON dynstat_uvel_mean            =   1.5444180687496E-04
(PID.TID 0000.0001) %MON dynstat_uvel_sd              =   2.0480681606957E-02
(PID.TID 0000.0001) %MON dynstat_uvel_del2            =   5.6857284841630E-04
(PID.TID 0000.0001) %MON dynstat_vvel_max             =   1.0170707441741E-02
(PID.TID 0000.0001) %MON dynstat_vvel_min             =  -1.0763869050378E-02
(PID.TID 0000.0001) %MON dynstat_vvel_mean            =  -2.7590933650021E-05
(PID.TID 0000.0001) %MON dynstat_vvel_sd              =   1.6690990103269E-03
(PID.TID 0000.0001) %MON dynstat_vvel_del2            =   9.5954074122658E-05
(PID.TID 0000.0001) %MON dynstat_wvel_max             =   3.1944936003334E-05
(PID.TID 0000.0001) %MON dynstat_wvel_min             =  -1.9487604949440E-05
(PID.TID 0000.0001) %MON dynstat_wvel_mean            =  -2.6917115256385E-23
(PID.TID 0000.0001) %MON dynstat_wvel_sd              =   7.3265619979572E-06
(PID.TID 0000.0001) %MON dynstat_wvel_del2            =   3.9379207239183E-07
(PID.TID 0000.0001) %MON dynstat_theta_max            =   1.3339394066544E+01
(PID.TID 0000.0001) %MON dynstat_theta_min            =   6.2538454584947E+00
(PID.TID 0000.0001) %MON dynstat_theta_mean           =   8.4641518254119E+00
(PID.TID 0000.0001) %MON dynstat_theta_sd             =   1.4058011736411E+00
(PID.TID 0000.0001) %MON dynstat_theta_del2           =   7.4020616239751E-03
(PID.TID 0000.0001) %MON dynstat_salt_max             =   1.1997151173627E+01
(PID.TID 0000.0001) %MON dynstat_salt_min             =   1.0464291391354E+01
(PID.TID 0000.0001) %MON dynstat_salt_mean            =   1.1308814099508E+01
(PID.TID 0000.0001) %MON dynstat_salt_sd              =   5.1704369652863E-01
(PID.TID 0000.0001) %MON dynstat_salt_del2            =   5.6619677941397E-04
(PID.TID 0000.0001) %MON advcfl_uvel_max              =   4.9041389473586E-03
(PID.TID 0000.0001) %MON advcfl_vvel_max              =   3.8749928581362E-04
(PID.TID 0000.0001) %MON advcfl_wvel_max              =   3.0003169201778E-03
(PID.TID 0000.0001) %MON advcfl_W_hf_max              =   3.2600636356153E-03
(PID.TID 0000.0001) %MON pe_b_mean                    =   5.2868544259777E-05
(PID.TID 0000.0001) %MON ke_max                       =   9.3055219088896E-03
(PID.TID 0000.0001) %MON ke_mean                      =   2.1107975899784E-04
(PID.TID 0000.0001) %MON ke_vol                       =   5.0981346415358E+14
(PID.TID 0000.0001) // =======================================================
(PID.TID 0000.0001) // End MONITOR dynamic field statistics
(PID.TID 0000.0001) // =======================================================
 cg2d: Sum(rhs),rhsMax =  -2.08270900525775E-14  9.06397099855650E-01
(PID.TID 0000.0001)      cg2d_init_res =   2.12481026221113E-03
(PID.TID 0000.0001)      cg2d_iters(min,last) =      -1      28
(PID.TID 0000.0001)      cg2d_last_res =   2.46776672792963E-16
(PID.TID 0000.0001) // =======================================================
(PID.TID 0000.0001) // Begin MONITOR dynamic field statistics
(PID.TID 0000.0001) // =======================================================
(PID.TID 0000.0001) %MON time_tsnumber                =                    23
(PID.TID 0000.0001) %MON time_secondsf                =   8.2800000000000E+04
(PID.TID 0000.0001) %MON dynstat_eta_max              =   3.5840039820096E-01
(PID.TID 0000.0001) %MON dynstat_eta_min              =  -8.1338925792847E-02
(PID.TID 0000.0001) %MON dynstat_eta_mean             =   1.6915003458659E-15
(PID.TID 0000.0001) %MON dynstat_eta_sd               =   1.3538199746765E-01
(PID.TID 0000.0001) %MON dynstat_eta_del2             =   5.7646700119909E-03
(PID.TID 0000.0001) %MON dynstat_uvel_max             =   1.3762940768464E-01
(PID.TID 0000.0001) %MON dynstat_uvel_min             =  -1.3884730590077E-01
(PID.TID 0000.0001) %MON dynstat_uvel_mean            =   1.3958545015226E-04
(PID.TID 0000.0001) %MON dynstat_uvel_sd              =   2.0846861480334E-02
(PID.TID 0000.0001) %MON dynstat_uvel_del2            =   5.8527174855716E-04
(PID.TID 0000.0001) %MON dynstat_vvel_max             =   1.0692262123859E-02
(PID.TID 0000.0001) %MON dynstat_vvel_min             =  -1.1277224636370E-02
(PID.TID 0000.0001) %MON dynstat_vvel_mean            =  -3.6638812635608E-05
(PID.TID 0000.0001) %MON dynstat_vvel_sd              =   1.6538942681106E-03
(PID.TID 0000.0001) %MON dynstat_vvel_del2            =   1.0143684240903E-04
(PID.TID 0000.0001) %MON dynstat_wvel_max             =   3.2764561085733E-05
(PID.TID 0000.0001) %MON dynstat_wvel_min             =  -1.6561361334225E-05
(PID.TID 0000.0001) %MON dynstat_wvel_mean            =   7.6906043589672E-23
(PID.TID 0000.0001) %MON dynstat_wvel_sd              =   7.5799385215645E-06
(PID.TID 0000.0001) %MON dynstat_wvel_del2            =   4.1190186941752E-07
(PID.TID 0000.0001) %MON dynstat_theta_max            =   1.3340806463741E+01
(PID.TID 0000.0001) %MON dynstat_theta_min            =   6.2538460677110E+00
(PID.TID 0000.0001) %MON dynstat_theta_mean           =   8.4641517795816E+00
(PID.TID 0000.0001) %MON dynstat_theta_sd             =   1.4058001828672E+00
(PID.TID 0000.0001) %MON dynstat_theta_del2           =   7.4005713560692E-03
(PID.TID 0000.0001) %MON dynstat_salt_max             =   1.1997205861394E+01
(PID.TID 0000.0001) %MON dynstat_salt_min             =   1.0464325033265E+01
(PID.TID 0000.0001) %MON dynstat_salt_mean            =   1.1308814070366E+01
(PID.TID 0000.0001) %MON dynstat_salt_sd              =   5.1703562516914E-01
(PID.TID 0000.0001) %MON dynstat_salt_del2            =   5.6630255471461E-04
(PID.TID 0000.0001) %MON advcfl_uvel_max              =   4.9985030124278E-03
(PID.TID 0000.0001) %MON advcfl_vvel_max              =   4.0598008690933E-04
(PID.TID 0000.0001) %MON advcfl_wvel_max              =   3.1252579854324E-03
(PID.TID 0000.0001) %MON advcfl_W_hf_max              =   3.3928566749756E-03
(PID.TID 0000.0001) %MON pe_b_mean                    =   5.2901842780830E-05
(PID.TID 0000.0001) %MON ke_max                       =   9.6630655333743E-03
(PID.TID 0000.0001) %MON ke_mean                      =   2.1862023962764E-04
(PID.TID 0000.0001) %MON ke_vol                       =   5.0981346415358E+14
(PID.TID 0000.0001) // =======================================================
(PID.TID 0000.0001) // End MONITOR dynamic field statistics
(PID.TID 0000.0001) // =======================================================
 cg2d: Sum(rhs),rhsMax =  -2.16666962149503E-14  9.05294826108210E-01
(PID.TID 0000.0001)      cg2d_init_res =   2.12361122362430E-03
(PID.TID 0000.0001)      cg2d_iters(min,last) =      -1      28
(PID.TID 0000.0001)      cg2d_last_res =   2.93418583313677E-16
(PID.TID 0000.0001) // =======================================================
(PID.TID 0000.0001) // Begin MONITOR dynamic field statistics
(PID.TID 0000.0001) // =======================================================
(PID.TID 0000.0001) %MON time_tsnumber                =                    24
(PID.TID 0000.0001) %MON time_secondsf                =   8.6400000000000E+04
(PID.TID 0000.0001) %MON dynstat_eta_max              =   3.5841207852708E-01
(PID.TID 0000.0001) %MON dynstat_eta_min              =  -8.1131955647092E-02
(PID.TID 0000.0001) %MON dynstat_eta_mean             =   1.8078486124674E-15
(PID.TID 0000.0001) %MON dynstat_eta_sd               =   1.3541189407156E-01
(PID.TID 0000.0001) %MON dynstat_eta_del2             =   5.7632500031042E-03
(PID.TID 0000.0001) %MON dynstat_uvel_max             =   1.3962938205990E-01
(PID.TID 0000.0001) %MON dynstat_uvel_min             =  -1.4105486286770E-01
(PID.TID 0000.0001) %MON dynstat_uvel_mean            =   1.2455619640388E-04
(PID.TID 0000.0001) %MON dynstat_uvel_sd              =   2.1161261693984E-02
(PID.TID 0000.0001) %MON dynstat_uvel_del2            =   6.0233907045012E-04
(PID.TID 0000.0001) %MON dynstat_vvel_max             =   1.0143214259232E-02
(PID.TID 0000.0001) %MON dynstat_vvel_min             =  -1.0634489100199E-02
(PID.TID 0000.0001) %MON dynstat_vvel_mean            =  -3.1839616146924E-05
(PID.TID 0000.0001) %MON dynstat_vvel_sd              =   1.4917166248058E-03
(PID.TID 0000.0001) %MON dynstat_vvel_del2            =   1.0124567212895E-04
(PID.TID 0000.0001) %MON dynstat_wvel_max             =   3.0314512948841E-05
(PID.TID 0000.0001) %MON dynstat_wvel_min             =  -1.5431701673825E-05
(PID.TID 0000.0001) %MON dynstat_wvel_mean            =   7.6906043589672E-24
(PID.TID 0000.0001) %MON dynstat_wvel_sd              =   7.2474659868963E-06
(PID.TID 0000.0001) %MON dynstat_wvel_del2            =   4.1435064656278E-07
(PID.TID 0000.0001) %MON dynstat_theta_max            =   1.3342183380445E+01
(PID.TID 0000.0001) %MON dynstat_theta_min            =   6.2538467294939E+00
(PID.TID 0000.0001) %MON dynstat_theta_mean           =   8.4641517453409E+00
(PID.TID 0000.0001) %MON dynstat_theta_sd             =   1.4057991771169E+00
(PID.TID 0000.0001) %MON dynstat_theta_del2           =   7.3991475058886E-03
(PID.TID 0000.0001) %MON dynstat_salt_max             =   1.1997259128710E+01
(PID.TID 0000.0001) %MON dynstat_salt_min             =   1.0464359044689E+01
(PID.TID 0000.0001) %MON dynstat_salt_mean            =   1.1308814049353E+01
(PID.TID 0000.0001) %MON dynstat_salt_sd              =   5.1702755174001E-01
(PID.TID 0000.0001) %MON dynstat_salt_del2            =   5.6640495423470E-04
(PID.TID 0000.0001) %MON advcfl_uvel_max              =   5.0779750632373E-03
(PID.TID 0000.0001) %MON advcfl_vvel_max              =   3.8284160760717E-04
(PID.TID 0000.0001) %MON advcfl_wvel_max              =   2.9360547726113E-03
(PID.TID 0000.0001) %MON advcfl_W_hf_max              =   3.1847398954101E-03
(PID.TID 0000.0001) %MON pe_b_mean                    =   5.2925210142834E-05
(PID.TID 0000.0001) %MON ke_max                       =   9.9637651073948E-03
(PID.TID 0000.0001) %MON ke_mean                      =   2.2497670963933E-04
(PID.TID 0000.0001) %MON ke_vol                       =   5.0981346415358E+14
(PID.TID 0000.0001) // =======================================================
(PID.TID 0000.0001) // End MONITOR dynamic field statistics
(PID.TID 0000.0001) // =======================================================
 cg2d: Sum(rhs),rhsMax =  -2.28775332011821E-14  9.04249570395689E-01
(PID.TID 0000.0001)      cg2d_init_res =   1.99041872925316E-03
(PID.TID 0000.0001)      cg2d_iters(min,last) =      -1      28
(PID.TID 0000.0001)      cg2d_last_res =   3.32306505950473E-16
(PID.TID 0000.0001) // =======================================================
(PID.TID 0000.0001) // Begin MONITOR dynamic field statistics
(PID.TID 0000.0001) // =======================================================
(PID.TID 0000.0001) %MON time_tsnumber                =                    25
(PID.TID 0000.0001) %MON time_secondsf                =   9.0000000000000E+04
(PID.TID 0000.0001) %MON dynstat_eta_max              =   3.5839806878838E-01
(PID.TID 0000.0001) %MON dynstat_eta_min              =  -8.1016458204655E-02
(PID.TID 0000.0001) %MON dynstat_eta_mean             =   1.8987655639648E-15
(PID.TID 0000.0001) %MON dynstat_eta_sd               =   1.3543014497747E-01
(PID.TID 0000.0001) %MON dynstat_eta_del2             =   5.7621687480605E-03
(PID.TID 0000.0001) %MON dynstat_uvel_max             =   1.4097858233343E-01
(PID.TID 0000.0001) %MON dynstat_uvel_min             =  -1.4254446661393E-01
(PID.TID 0000.0001) %MON dynstat_uvel_mean            =   1.1426006141375E-04
(PID.TID 0000.0001) %MON dynstat_uvel_sd              =   2.1384440908713E-02
(PID.TID 0000.0001) %MON dynstat_uvel_del2            =   6.1766129341685E-04
(PID.TID 0000.0001) %MON dynstat_vvel_max             =   8.6237923909761E-03
(PID.TID 0000.0001) %MON dynstat_vvel_min             =  -8.9589490616322E-03
(PID.TID 0000.0001) %MON dynstat_vvel_mean            =  -1.7696017423516E-05
(PID.TID 0000.0001) %MON dynstat_vvel_sd              =   1.2321861812506E-03
(PID.TID 0000.0001) %MON dynstat_vvel_del2            =   9.5792281596719E-05
(PID.TID 0000.0001) %MON dynstat_wvel_max             =   2.4983460302325E-05
(PID.TID 0000.0001) %MON dynstat_wvel_min             =  -1.3724473843784E-05
(PID.TID 0000.0001) %MON dynstat_wvel_mean            =   1.5381208717934E-22
(PID.TID 0000.0001) %MON dynstat_wvel_sd              =   6.4432863527874E-06
(PID.TID 0000.0001) %MON dynstat_wvel_del2            =   4.0156047802927E-07
(PID.TID 0000.0001) %MON dynstat_theta_max            =   1.3343611969680E+01
(PID.TID 0000.0001) %MON dynstat_theta_min            =   6.2538474371661E+00
(PID.TID 0000.0001) %MON dynstat_theta_mean           =   8.4641517272511E+00
(PID.TID 0000.0001) %MON dynstat_theta_sd             =   1.4057981937011E+00
(PID.TID 0000.0001) %MON dynstat_theta_del2           =   7.3979618477618E-03
(PID.TID 0000.0001) %MON dynstat_salt_max             =   1.1997314246680E+01
(PID.TID 0000.0001) %MON dynstat_salt_min             =   1.0464393449819E+01
(PID.TID 0000.0001) %MON dynstat_salt_mean            =   1.1308814038981E+01
(PID.TID 0000.0001) %MON dynstat_salt_sd              =   5.1701947715229E-01
(PID.TID 0000.0001) %MON dynstat_salt_del2            =   5.6651040323448E-04
(PID.TID 0000.0001) %MON advcfl_uvel_max              =   5.1316007981015E-03
(PID.TID 0000.0001) %MON advcfl_vvel_max              =   3.2252216621876E-04
(PID.TID 0000.0001) %MON advcfl_wvel_max              =   2.4668010069579E-03
(PID.TID 0000.0001) %MON advcfl_W_hf_max              =   2.6728383397801E-03
(PID.TID 0000.0001) %MON pe_b_mean                    =   5.2939477694911E-05
(PID.TID 0000.0001) %MON ke_max                       =   1.0165937061881E-02
(PID.TID 0000.0001) %MON ke_mean                      =   2.2938319876349E-04
(PID.TID 0000.0001) %MON ke_vol                       =   5.0981346415358E+14
(PID.TID 0000.0001) // =======================================================
(PID.TID 0000.0001) // End MONITOR dynamic field statistics
(PID.TID 0000.0001) // =======================================================
 Computing Diagnostic #     23  ETAN         Counter:       1   Parms: SM      M1      
 Computing Diagnostic #     25  DETADT2      Counter:       1   Parms: SM      M1      
 Computing Diagnostic #     73  PHIBOT       Counter:       1   Parms: SM      M1      
 Computing Diagnostic #     76  MXLDEPTH     Counter:       1   Parms: SM      M1      
 Computing Diagnostic #    210  GM_BVPcW     Counter:       1   Parms: SU P    M1      
 Computing Diagnostic #    211  GM_BVPcS     Counter:       1   Parms: SV P    M1      
 Computing Diagnostic #    193  SubMesLf     Counter:       1   Parms: SM P    M1      
 Computing Diagnostic #    195  SubMpsiY     Counter:       1   Parms: VV      M1      
           Vector  Mate for  SubMpsiY     Diagnostic #    194  SubMpsiX not enabled
 Computing Diagnostic #     77  DRHODR       Counter:       1   Parms: SM      LR      
 Computing Diagnostic #     64  RHOAnoma     Counter:       1   Parms: SMR     MR      
 Computing Diagnostic #    201  GM_Kwy       Counter:       1   Parms: VM      LR      
           Vector  Mate for  GM_Kwy       Diagnostic #    200  GM_Kwx   not enabled
 Computing Diagnostic #    202  GM_Kwz       Counter:       1   Parms: WM P    LR      
 Computing Diagnostic #    197  GM_Kvy       Counter:       1   Parms: VV P    MR      
           Vector  Mate for  GM_Kvy       Diagnostic #    196  GM_Kux   not enabled
 Computing Diagnostic #     26  THETA        Counter:       1   Parms: SMR     MR      
 Computing Diagnostic #    204  GM_PsiY      Counter:       1   Parms: VV      LR      
           Vector  Mate for  GM_PsiY      Diagnostic #    203  GM_PsiX  not enabled
 Computing Diagnostic #    199  GM_Kvz       Counter:       1   Parms: VV      MR      
           Vector  Mate for  GM_Kvz       Diagnostic #    198  GM_Kuz   not enabled
(PID.TID 0000.0001) %CHECKPOINT        25 ckptA
(PID.TID 0000.0001)   Seconds in section "ALL                    [THE_MODEL_MAIN]":
(PID.TID 0000.0001)           User time:   1.7127400374738500
(PID.TID 0000.0001)         System time:  1.19980000890791416E-002
(PID.TID 0000.0001)     Wall clock time:   1.7298541069030762
(PID.TID 0000.0001)          No. starts:           1
(PID.TID 0000.0001)           No. stops:           1
(PID.TID 0000.0001)   Seconds in section "INITIALISE_FIXED       [THE_MODEL_MAIN]":
(PID.TID 0000.0001)           User time:  2.19969990430399776E-002
(PID.TID 0000.0001)         System time:  3.99899994954466820E-003
(PID.TID 0000.0001)     Wall clock time:  2.67980098724365234E-002
(PID.TID 0000.0001)          No. starts:           1
(PID.TID 0000.0001)           No. stops:           1
(PID.TID 0000.0001)   Seconds in section "THE_MAIN_LOOP          [THE_MODEL_MAIN]":
(PID.TID 0000.0001)           User time:   1.6907430384308100
(PID.TID 0000.0001)         System time:  7.99900013953447342E-003
(PID.TID 0000.0001)     Wall clock time:   1.7030179500579834
(PID.TID 0000.0001)          No. starts:           1
(PID.TID 0000.0001)           No. stops:           1
(PID.TID 0000.0001)   Seconds in section "INITIALISE_VARIA    [THE_MAIN_LOOP]":
(PID.TID 0000.0001)           User time:  1.29980016499757767E-002
(PID.TID 0000.0001)         System time:  2.99999956041574478E-003
(PID.TID 0000.0001)     Wall clock time:  1.64420604705810547E-002
(PID.TID 0000.0001)          No. starts:           1
(PID.TID 0000.0001)           No. stops:           1
(PID.TID 0000.0001)   Seconds in section "MAIN LOOP           [THE_MAIN_LOOP]":
(PID.TID 0000.0001)           User time:   1.6777450367808342
(PID.TID 0000.0001)         System time:  4.99900057911872864E-003
(PID.TID 0000.0001)     Wall clock time:   1.6865479946136475
(PID.TID 0000.0001)          No. starts:           1
(PID.TID 0000.0001)           No. stops:           1
(PID.TID 0000.0001)   Seconds in section "MAIN_DO_LOOP        [THE_MAIN_LOOP]":
(PID.TID 0000.0001)           User time:   1.6777450367808342
(PID.TID 0000.0001)         System time:  4.99900057911872864E-003
(PID.TID 0000.0001)     Wall clock time:   1.6863284111022949
(PID.TID 0000.0001)          No. starts:          25
(PID.TID 0000.0001)           No. stops:          25
(PID.TID 0000.0001)   Seconds in section "FORWARD_STEP        [MAIN_DO_LOOP]":
(PID.TID 0000.0001)           User time:   1.6777450367808342
(PID.TID 0000.0001)         System time:  4.99900057911872864E-003
(PID.TID 0000.0001)     Wall clock time:   1.6859078407287598
(PID.TID 0000.0001)          No. starts:          25
(PID.TID 0000.0001)           No. stops:          25
(PID.TID 0000.0001)   Seconds in section "DO_STATEVARS_DIAGS  [FORWARD_STEP]":
(PID.TID 0000.0001)           User time:  3.00000235438346863E-003
(PID.TID 0000.0001)         System time:   0.0000000000000000
(PID.TID 0000.0001)     Wall clock time:  2.54559516906738281E-003
(PID.TID 0000.0001)          No. starts:          50
(PID.TID 0000.0001)           No. stops:          50
(PID.TID 0000.0001)   Seconds in section "LOAD_FIELDS_DRIVER  [FORWARD_STEP]":
(PID.TID 0000.0001)           User time:  1.99997425079345703E-003
(PID.TID 0000.0001)         System time:  9.98999923467636108E-004
(PID.TID 0000.0001)     Wall clock time:  6.71386718750000000E-004
(PID.TID 0000.0001)          No. starts:          25
(PID.TID 0000.0001)           No. stops:          25
(PID.TID 0000.0001)   Seconds in section "EXTERNAL_FLDS_LOAD [LOAD_FLDS_DRIVER]":
(PID.TID 0000.0001)           User time:   0.0000000000000000
(PID.TID 0000.0001)         System time:   0.0000000000000000
(PID.TID 0000.0001)     Wall clock time:  2.31266021728515625E-004
(PID.TID 0000.0001)          No. starts:          25
(PID.TID 0000.0001)           No. stops:          25
(PID.TID 0000.0001)   Seconds in section "DO_ATMOSPHERIC_PHYS [FORWARD_STEP]":
(PID.TID 0000.0001)           User time:   0.0000000000000000
(PID.TID 0000.0001)         System time:   0.0000000000000000
(PID.TID 0000.0001)     Wall clock time:  2.16484069824218750E-004
(PID.TID 0000.0001)          No. starts:          25
(PID.TID 0000.0001)           No. stops:          25
(PID.TID 0000.0001)   Seconds in section "DO_OCEANIC_PHYS     [FORWARD_STEP]":
(PID.TID 0000.0001)           User time:  0.36794301494956017
(PID.TID 0000.0001)         System time:   0.0000000000000000
(PID.TID 0000.0001)     Wall clock time:  0.36344075202941895
(PID.TID 0000.0001)          No. starts:          25
(PID.TID 0000.0001)           No. stops:          25
(PID.TID 0000.0001)   Seconds in section "THERMODYNAMICS      [FORWARD_STEP]":
(PID.TID 0000.0001)           User time:  0.57191218435764313
(PID.TID 0000.0001)         System time:   0.0000000000000000
(PID.TID 0000.0001)     Wall clock time:  0.57159900665283203
(PID.TID 0000.0001)          No. starts:          25
(PID.TID 0000.0001)           No. stops:          25
(PID.TID 0000.0001)   Seconds in section "DYNAMICS            [FORWARD_STEP]":
(PID.TID 0000.0001)           User time:  0.51492370665073395
(PID.TID 0000.0001)         System time:   0.0000000000000000
(PID.TID 0000.0001)     Wall clock time:  0.51948451995849609
(PID.TID 0000.0001)          No. starts:          25
(PID.TID 0000.0001)           No. stops:          25
(PID.TID 0000.0001)   Seconds in section "SOLVE_FOR_PRESSURE  [FORWARD_STEP]":
(PID.TID 0000.0001)           User time:  3.29951047897338867E-002
(PID.TID 0000.0001)         System time:  1.00000016391277313E-003
(PID.TID 0000.0001)     Wall clock time:  3.14636230468750000E-002
(PID.TID 0000.0001)          No. starts:          25
(PID.TID 0000.0001)           No. stops:          25
(PID.TID 0000.0001)   Seconds in section "MOM_CORRECTION_STEP [FORWARD_STEP]":
(PID.TID 0000.0001)           User time:  1.79960802197456360E-002
(PID.TID 0000.0001)         System time:   0.0000000000000000
(PID.TID 0000.0001)     Wall clock time:  2.07142829895019531E-002
(PID.TID 0000.0001)          No. starts:          25
(PID.TID 0000.0001)           No. stops:          25
(PID.TID 0000.0001)   Seconds in section "INTEGR_CONTINUITY   [FORWARD_STEP]":
(PID.TID 0000.0001)           User time:  6.99901580810546875E-003
(PID.TID 0000.0001)         System time:   0.0000000000000000
(PID.TID 0000.0001)     Wall clock time:  7.20167160034179688E-003
(PID.TID 0000.0001)          No. starts:          25
(PID.TID 0000.0001)           No. stops:          25
(PID.TID 0000.0001)   Seconds in section "TRC_CORRECTION_STEP [FORWARD_STEP]":
(PID.TID 0000.0001)           User time:  4.89908754825592041E-002
(PID.TID 0000.0001)         System time:   0.0000000000000000
(PID.TID 0000.0001)     Wall clock time:  4.80504035949707031E-002
(PID.TID 0000.0001)          No. starts:          25
(PID.TID 0000.0001)           No. stops:          25
(PID.TID 0000.0001)   Seconds in section "BLOCKING_EXCHANGES  [FORWARD_STEP]":
(PID.TID 0000.0001)           User time:  5.99900558590888977E-002
(PID.TID 0000.0001)         System time:   0.0000000000000000
(PID.TID 0000.0001)     Wall clock time:  6.27455711364746094E-002
(PID.TID 0000.0001)          No. starts:          25
(PID.TID 0000.0001)           No. stops:          25
(PID.TID 0000.0001)   Seconds in section "MONITOR             [FORWARD_STEP]":
(PID.TID 0000.0001)           User time:  4.09971252083778381E-002
(PID.TID 0000.0001)         System time:   0.0000000000000000
(PID.TID 0000.0001)     Wall clock time:  4.30810451507568359E-002
(PID.TID 0000.0001)          No. starts:          25
(PID.TID 0000.0001)           No. stops:          25
(PID.TID 0000.0001)   Seconds in section "DO_THE_MODEL_IO     [FORWARD_STEP]":
(PID.TID 0000.0001)           User time:  5.99794834852218628E-003
(PID.TID 0000.0001)         System time:  3.00000049173831940E-003
(PID.TID 0000.0001)     Wall clock time:  9.70530509948730469E-003
(PID.TID 0000.0001)          No. starts:          25
(PID.TID 0000.0001)           No. stops:          25
(PID.TID 0000.0001)   Seconds in section "DO_WRITE_PICKUP     [FORWARD_STEP]":
(PID.TID 0000.0001)           User time:  1.00004673004150391E-003
(PID.TID 0000.0001)         System time:   0.0000000000000000
(PID.TID 0000.0001)     Wall clock time:  1.33562088012695313E-003
(PID.TID 0000.0001)          No. starts:          25
(PID.TID 0000.0001)           No. stops:          25
(PID.TID 0000.0001) // ======================================================
(PID.TID 0000.0001) // Tile <-> Tile communication statistics
(PID.TID 0000.0001) // ======================================================
(PID.TID 0000.0001) // o Tile number: 000001
(PID.TID 0000.0001) //         No. X exchanges =              0
(PID.TID 0000.0001) //            Max. X spins =              0
(PID.TID 0000.0001) //            Min. X spins =     1000000000
(PID.TID 0000.0001) //          Total. X spins =              0
(PID.TID 0000.0001) //            Avg. X spins =       0.00E+00
(PID.TID 0000.0001) //         No. Y exchanges =              0
(PID.TID 0000.0001) //            Max. Y spins =              0
(PID.TID 0000.0001) //            Min. Y spins =     1000000000
(PID.TID 0000.0001) //          Total. Y spins =              0
(PID.TID 0000.0001) //            Avg. Y spins =       0.00E+00
(PID.TID 0000.0001) // o Tile number: 000002
(PID.TID 0000.0001) //         No. X exchanges =              0
(PID.TID 0000.0001) //            Max. X spins =              0
(PID.TID 0000.0001) //            Min. X spins =     1000000000
(PID.TID 0000.0001) //          Total. X spins =              0
(PID.TID 0000.0001) //            Avg. X spins =       0.00E+00
(PID.TID 0000.0001) //         No. Y exchanges =              0
(PID.TID 0000.0001) //            Max. Y spins =              0
(PID.TID 0000.0001) //            Min. Y spins =     1000000000
(PID.TID 0000.0001) //          Total. Y spins =              0
(PID.TID 0000.0001) //            Avg. Y spins =       0.00E+00
(PID.TID 0000.0001) // o Thread number: 000001
(PID.TID 0000.0001) //            No. barriers =           7690
(PID.TID 0000.0001) //      Max. barrier spins =              1
(PID.TID 0000.0001) //      Min. barrier spins =              1
(PID.TID 0000.0001) //     Total barrier spins =           7690
(PID.TID 0000.0001) //      Avg. barrier spins =       1.00E+00
PROGRAM MAIN: Execution ended Normally
