(PID.TID 0000.0001) 
(PID.TID 0000.0001) // ======================================================
(PID.TID 0000.0001) //                      MITgcm UV
(PID.TID 0000.0001) //                      =========
(PID.TID 0000.0001) // ======================================================
(PID.TID 0000.0001) // execution environment starting up...
(PID.TID 0000.0001) 
(PID.TID 0000.0001) // MITgcmUV version:  checkpoint67h
(PID.TID 0000.0001) // Build user:        jmc
(PID.TID 0000.0001) // Build host:        baudelaire
(PID.TID 0000.0001) // Build date:        Thu Mar 21 23:47:19 EDT 2019
(PID.TID 0000.0001) 
(PID.TID 0000.0001) // =======================================================
(PID.TID 0000.0001) // Execution Environment parameter file "eedata"
(PID.TID 0000.0001) // =======================================================
(PID.TID 0000.0001) ># Example "eedata" file
(PID.TID 0000.0001) ># Lines beginning "#" are comments
(PID.TID 0000.0001) ># nTx - No. threads per process in X
(PID.TID 0000.0001) ># nTy - No. threads per process in Y
(PID.TID 0000.0001) > &EEPARMS
(PID.TID 0000.0001) > nTx=1,
(PID.TID 0000.0001) > nTy=1,
(PID.TID 0000.0001) > /
(PID.TID 0000.0001) ># Note: Some systems use & as the
(PID.TID 0000.0001) ># namelist terminator. Other systems
(PID.TID 0000.0001) ># use a / character (as shown here).
(PID.TID 0000.0001) 
(PID.TID 0000.0001) // =======================================================
(PID.TID 0000.0001) // Computational Grid Specification ( see files "SIZE.h" )
(PID.TID 0000.0001) //                                  ( and "eedata"       )
(PID.TID 0000.0001) // =======================================================
(PID.TID 0000.0001)      nPx =    1 ; /* No. processes in X */
(PID.TID 0000.0001)      nPy =    1 ; /* No. processes in Y */
(PID.TID 0000.0001)      nSx =    1 ; /* No. tiles in X per process */
(PID.TID 0000.0001)      nSy =    2 ; /* No. tiles in Y per process */
(PID.TID 0000.0001)      sNx =    1 ; /* Tile size in X */
(PID.TID 0000.0001)      sNy =   16 ; /* Tile size in Y */
(PID.TID 0000.0001)      OLx =    3 ; /* Tile overlap distance in X */
(PID.TID 0000.0001)      OLy =    3 ; /* Tile overlap distance in Y */
(PID.TID 0000.0001)      nTx =    1 ; /* No. threads in X per process */
(PID.TID 0000.0001)      nTy =    1 ; /* No. threads in Y per process */
(PID.TID 0000.0001)       Nr =   25 ; /* No. levels in the vertical   */
(PID.TID 0000.0001)       Nx =    1 ; /* Total domain size in X ( = nPx*nSx*sNx ) */
(PID.TID 0000.0001)       Ny =   32 ; /* Total domain size in Y ( = nPy*nSy*sNy ) */
(PID.TID 0000.0001)   nTiles =    2 ; /* Total no. tiles per process ( = nSx*nSy ) */
(PID.TID 0000.0001)   nProcs =    1 ; /* Total no. processes ( = nPx*nPy ) */
(PID.TID 0000.0001) nThreads =    1 ; /* Total no. threads per process ( = nTx*nTy ) */
(PID.TID 0000.0001) usingMPI =    F ; /* Flag used to control whether MPI is in use */
(PID.TID 0000.0001)                   /*  note: To execute a program with MPI calls */
(PID.TID 0000.0001)                   /*  it must be launched appropriately e.g     */
(PID.TID 0000.0001)                   /*  "mpirun -np 64 ......"                    */
(PID.TID 0000.0001) useCoupler=    F ;/* Flag used to control communications with   */
(PID.TID 0000.0001)                   /*  other model components, through a coupler */
(PID.TID 0000.0001) useNest2W_parent =    F ;/* Control 2-W Nesting comm */
(PID.TID 0000.0001) useNest2W_child  =    F ;/* Control 2-W Nesting comm */
(PID.TID 0000.0001) debugMode =    F ; /* print debug msg. (sequence of S/R calls)  */
(PID.TID 0000.0001) printMapIncludesZeros=    F ; /* print zeros in Std.Output maps */
(PID.TID 0000.0001) maxLengthPrt1D=   65 /* maxLength of 1D array printed to StdOut */
(PID.TID 0000.0001) 
(PID.TID 0000.0001) // ======================================================
(PID.TID 0000.0001) // Mapping of tiles to threads
(PID.TID 0000.0001) // ======================================================
(PID.TID 0000.0001) // -o- Thread   1, tiles (   1:   1,   1:   2)
(PID.TID 0000.0001) 
(PID.TID 0000.0001) // ======================================================
(PID.TID 0000.0001) // Tile <-> Tile connectvity table
(PID.TID 0000.0001) // ======================================================
(PID.TID 0000.0001) // Tile number: 000001 (process no. = 000000)
(PID.TID 0000.0001) //        WEST: Tile = 000001, Process = 000000, Comm = put
(PID.TID 0000.0001) //                bi = 000001, bj = 000001
(PID.TID 0000.0001) //        EAST: Tile = 000001, Process = 000000, Comm = put
(PID.TID 0000.0001) //                bi = 000001, bj = 000001
(PID.TID 0000.0001) //       SOUTH: Tile = 000002, Process = 000000, Comm = put
(PID.TID 0000.0001) //                bi = 000001, bj = 000002
(PID.TID 0000.0001) //       NORTH: Tile = 000002, Process = 000000, Comm = put
(PID.TID 0000.0001) //                bi = 000001, bj = 000002
(PID.TID 0000.0001) // Tile number: 000002 (process no. = 000000)
(PID.TID 0000.0001) //        WEST: Tile = 000002, Process = 000000, Comm = put
(PID.TID 0000.0001) //                bi = 000001, bj = 000002
(PID.TID 0000.0001) //        EAST: Tile = 000002, Process = 000000, Comm = put
(PID.TID 0000.0001) //                bi = 000001, bj = 000002
(PID.TID 0000.0001) //       SOUTH: Tile = 000001, Process = 000000, Comm = put
(PID.TID 0000.0001) //                bi = 000001, bj = 000001
(PID.TID 0000.0001) //       NORTH: Tile = 000001, Process = 000000, Comm = put
(PID.TID 0000.0001) //                bi = 000001, bj = 000001
(PID.TID 0000.0001) 
(PID.TID 0000.0001)  INI_PARMS: opening model parameter file "data"
(PID.TID 0000.0001)  OPEN_COPY_DATA_FILE: opening file data
(PID.TID 0000.0001) // =======================================================
(PID.TID 0000.0001) // Parameter file "data"
(PID.TID 0000.0001) // =======================================================
(PID.TID 0000.0001) ># ====================
(PID.TID 0000.0001) ># | Model parameters |
(PID.TID 0000.0001) ># ====================
(PID.TID 0000.0001) >#
(PID.TID 0000.0001) ># Continuous equation parameters
(PID.TID 0000.0001) > &PARM01
(PID.TID 0000.0001) > tRef=29., 28., 27., 26., 25., 24., 23., 22., 21., 20., 19., 18.,
(PID.TID 0000.0001) > 17., 16., 15., 14., 13., 12., 11., 10., 09., 07., 08., 06., 05.,
(PID.TID 0000.0001) > viscAr=2.E-4,
(PID.TID 0000.0001) > viscA4=12.E5,
(PID.TID 0000.0001) > no_slip_sides=.FALSE.,
(PID.TID 0000.0001) > no_slip_bottom=.TRUE.,
(PID.TID 0000.0001) > bottomDragLinear=1.E-3,
(PID.TID 0000.0001) >#bottomDragQuadratic=1.E-3,
(PID.TID 0000.0001) >#diffKrT=2.E-5,
(PID.TID 0000.0001) >#diffKrS=2.E-5,
(PID.TID 0000.0001) > diffKrNrT=6*1.E-2, 19*2.E-5,
(PID.TID 0000.0001) > diffKrNrS=6*1.E-2, 19*2.E-5,
(PID.TID 0000.0001) > diffKhT=0.E3,
(PID.TID 0000.0001) > diffKhS=0.E3,
(PID.TID 0000.0001) > beta=0.E-11,
(PID.TID 0000.0001) > f0  =1.E-4,
(PID.TID 0000.0001) > gravity=9.81,
(PID.TID 0000.0001) > eosType='LINEAR',
(PID.TID 0000.0001) > tAlpha=2.E-4,
(PID.TID 0000.0001) > sBeta =0.E-4,
(PID.TID 0000.0001) > rhoConst=1000.,
(PID.TID 0000.0001) > rhoNil=1000.,
(PID.TID 0000.0001) > rigidLid=.FALSE.,
(PID.TID 0000.0001) > implicitFreeSurface=.TRUE.,
(PID.TID 0000.0001) > implicitDiffusion=.TRUE.,
(PID.TID 0000.0001) > hFacMin=.1,
(PID.TID 0000.0001) > hMixCriteria=-0.1,
(PID.TID 0000.0001) >#hMixCriteria=1.5,
(PID.TID 0000.0001) > readBinaryPrec=64,
(PID.TID 0000.0001) > writeBinaryPrec=64,
(PID.TID 0000.0001) > /
(PID.TID 0000.0001) >
(PID.TID 0000.0001) ># Elliptic solver parameters
(PID.TID 0000.0001) > &PARM02
(PID.TID 0000.0001) > cg2dMaxIters=1000,
(PID.TID 0000.0001) > cg2dTargetResidual=1.E-13,
(PID.TID 0000.0001) > /
(PID.TID 0000.0001) >
(PID.TID 0000.0001) ># Time stepping parameters
(PID.TID 0000.0001) > &PARM03
(PID.TID 0000.0001) > startTime=0.,
(PID.TID 0000.0001) >#nTimeSteps=8641,
(PID.TID 0000.0001) > nTimeSteps=25,
(PID.TID 0000.0001) > deltaT=3600.,
(PID.TID 0000.0001) > cAdjFreq=-1.,
(PID.TID 0000.0001) > abEps=0.1,
(PID.TID 0000.0001) > pChkptFreq=0.,
(PID.TID 0000.0001) > chkptFreq =0.,
(PID.TID 0000.0001) > dumpFreq=2592000.,
(PID.TID 0000.0001) >#monitorFreq=864000.,
(PID.TID 0000.0001) > monitorSelect=1,
(PID.TID 0000.0001) > monitorFreq=1.,
(PID.TID 0000.0001) > /
(PID.TID 0000.0001) >
(PID.TID 0000.0001) ># Gridding parameters
(PID.TID 0000.0001) > &PARM04
(PID.TID 0000.0001) > usingCartesianGrid=.TRUE.,
(PID.TID 0000.0001) > delR= 10*20.,  24.,  29.,  35.,  42.,  51.,  61.,  74.,
(PID.TID 0000.0001) >          89., 107., 128., 155., 186., 224., 270., 325.,
(PID.TID 0000.0001) > delX=1*1.E5,
(PID.TID 0000.0001) > delY=32*1.E5,
(PID.TID 0000.0001) > /
(PID.TID 0000.0001) >
(PID.TID 0000.0001) ># Input datasets
(PID.TID 0000.0001) > &PARM05
(PID.TID 0000.0001) > hydrogThetaFile='t_ini.bin',
(PID.TID 0000.0001) > hydrogSaltFile ='s_ini.bin',
(PID.TID 0000.0001) > uVelInitFile   ='u_ini.bin',
(PID.TID 0000.0001) > bathyFile      ='topog.bin',
(PID.TID 0000.0001) > /
(PID.TID 0000.0001) 
(PID.TID 0000.0001)  INI_PARMS ; starts to read PARM01
(PID.TID 0000.0001)  INI_PARMS ; read PARM01 : OK
(PID.TID 0000.0001)  INI_PARMS ; starts to read PARM02
(PID.TID 0000.0001)  INI_PARMS ; read PARM02 : OK
(PID.TID 0000.0001)  INI_PARMS ; starts to read PARM03
(PID.TID 0000.0001)  INI_PARMS ; read PARM03 : OK
(PID.TID 0000.0001)  INI_PARMS ; starts to read PARM04
(PID.TID 0000.0001)  INI_PARMS ; read PARM04 : OK
(PID.TID 0000.0001)  INI_PARMS ; starts to read PARM05
(PID.TID 0000.0001)  INI_PARMS ; read PARM05 : OK
(PID.TID 0000.0001)  INI_PARMS: finished reading file "data"
(PID.TID 0000.0001)  PACKAGES_BOOT: opening data.pkg
(PID.TID 0000.0001)  OPEN_COPY_DATA_FILE: opening file data.pkg
(PID.TID 0000.0001) // =======================================================
(PID.TID 0000.0001) // Parameter file "data.pkg"
(PID.TID 0000.0001) // =======================================================
(PID.TID 0000.0001) ># Packages
(PID.TID 0000.0001) > &PACKAGES
(PID.TID 0000.0001) >  useGMRedi=.TRUE.,
(PID.TID 0000.0001) >  useKPP=.FALSE.,
(PID.TID 0000.0001) >  useDiagnostics=.TRUE.,
(PID.TID 0000.0001) > /
(PID.TID 0000.0001) 
(PID.TID 0000.0001)  PACKAGES_BOOT: finished reading data.pkg
(PID.TID 0000.0001)  PACKAGES_BOOT: On/Off package Summary
 --------  pkgs with a standard "usePKG" On/Off switch in "data.pkg":  --------
 pkg/gmredi               compiled   and   used ( useGMRedi                = T )
 pkg/diagnostics          compiled   and   used ( useDiagnostics           = T )
 -------- pkgs without standard "usePKG" On/Off switch in "data.pkg":  --------
 pkg/generic_advdiff      compiled   and   used ( useGAD                   = T )
 pkg/mom_common           compiled   and   used ( momStepping              = T )
 pkg/mom_vecinv           compiled but not used ( +vectorInvariantMomentum = F )
 pkg/mom_fluxform         compiled   and   used ( & not vectorInvariantMom = T )
 pkg/monitor              compiled   and   used ( monitorFreq > 0.         = T )
 pkg/debug                compiled but not used ( debugMode                = F )
 pkg/rw                   compiled   and   used
 pkg/mdsio                compiled   and   used
(PID.TID 0000.0001)  PACKAGES_BOOT: End of package Summary
(PID.TID 0000.0001) 
(PID.TID 0000.0001)  GM_READPARMS: opening data.gmredi
(PID.TID 0000.0001)  OPEN_COPY_DATA_FILE: opening file data.gmredi
(PID.TID 0000.0001) // =======================================================
(PID.TID 0000.0001) // Parameter file "data.gmredi"
(PID.TID 0000.0001) // =======================================================
(PID.TID 0000.0001) ># GM-Redi parameters
(PID.TID 0000.0001) > &GM_PARM01
(PID.TID 0000.0001) > GM_background_K=1000.,
(PID.TID 0000.0001) >#GM_taper_scheme='clipping',
(PID.TID 0000.0001) > GM_taper_scheme='fm07',
(PID.TID 0000.0001) > GM_maxSlope    =1.E-02,
(PID.TID 0000.0001) > GM_facTrL2dz   = 0.,
(PID.TID 0000.0001) >#GM_facTrL2ML   = 5.,
(PID.TID 0000.0001) >#GM_maxTransLay = 500.,
(PID.TID 0000.0001) > /
(PID.TID 0000.0001) >
(PID.TID 0000.0001) 
(PID.TID 0000.0001)  GM_READPARMS: finished reading data.gmredi
(PID.TID 0000.0001)  DIAGNOSTICS_READPARMS: opening data.diagnostics
(PID.TID 0000.0001)  OPEN_COPY_DATA_FILE: opening file data.diagnostics
(PID.TID 0000.0001) // =======================================================
(PID.TID 0000.0001) // Parameter file "data.diagnostics"
(PID.TID 0000.0001) // =======================================================
(PID.TID 0000.0001) ># Diagnostic Package Choices
(PID.TID 0000.0001) >#--------------------
(PID.TID 0000.0001) >#  dumpAtLast (logical): always write output at the end of simulation (default=F)
(PID.TID 0000.0001) >#  diag_mnc   (logical): write to NetCDF files (default=useMNC)
(PID.TID 0000.0001) >#--for each output-stream:
(PID.TID 0000.0001) >#  fileName(n) : prefix of the output file name (max 80c long) for outp.stream n
(PID.TID 0000.0001) >#  frequency(n):< 0 : write snap-shot output every |frequency| seconds
(PID.TID 0000.0001) >#               > 0 : write time-average output every frequency seconds
(PID.TID 0000.0001) >#  timePhase(n)     : write at time = timePhase + multiple of |frequency|
(PID.TID 0000.0001) >#    averagingFreq  : frequency (in s) for periodic averaging interval
(PID.TID 0000.0001) >#    averagingPhase : phase     (in s) for periodic averaging interval
(PID.TID 0000.0001) >#    repeatCycle    : number of averaging intervals in 1 cycle
(PID.TID 0000.0001) >#  levels(:,n) : list of levels to write to file (Notes: declared as REAL)
(PID.TID 0000.0001) >#                when this entry is missing, select all common levels of this list
(PID.TID 0000.0001) >#  fields(:,n) : list of selected diagnostics fields (8.c) in outp.stream n
(PID.TID 0000.0001) >#                (see "available_diagnostics.log" file for the full list of diags)
(PID.TID 0000.0001) >#  missing_value(n) : missing value for real-type fields in output file "n"
(PID.TID 0000.0001) >#  fileFlags(n)     : specific code (8c string) for output file "n"
(PID.TID 0000.0001) >#--------------------
(PID.TID 0000.0001) > &DIAGNOSTICS_LIST
(PID.TID 0000.0001) ># diag_mnc     = .FALSE.,
(PID.TID 0000.0001) >  fields(1:9,1) = 'ETAN    ','ETANSQ  ','DETADT2 ','PHIBOT  ','PHIBOTSQ',
(PID.TID 0000.0001) >                  'MXLDEPTH','GM_hTrsL','GM_baseS','GM_rLamb',
(PID.TID 0000.0001) >#                 'GM_VisbK',
(PID.TID 0000.0001) >   levels(1,1) = 1.,
(PID.TID 0000.0001) >   fileName(1) = 'surfDiag',
(PID.TID 0000.0001) >  frequency(1) = -86400.,
(PID.TID 0000.0001) >  timePhase(1) = 0.,
(PID.TID 0000.0001) >
(PID.TID 0000.0001) >  fields(1:7,2)  = 'UVEL    ','VVEL    ','WVEL    ','PHIHYD  ',
(PID.TID 0000.0001) >                   'THETA   ','THETASQ ','UVELSQ  ',
(PID.TID 0000.0001) ># do not specify levels => all levels are selected
(PID.TID 0000.0001) >#  fileName(2) = 'dynDiag',
(PID.TID 0000.0001) >  frequency(2) = -864000.,
(PID.TID 0000.0001) >  timePhase(2) = 0.,
(PID.TID 0000.0001) >
(PID.TID 0000.0001) >  fields(1:6,3)  = 'DRHODR  ','RHOAnoma',
(PID.TID 0000.0001) >                   'GM_Kwy  ','GM_Kwz  ','GM_Kvy  ',
(PID.TID 0000.0001) >                   'THETA   ',
(PID.TID 0000.0001) >#                  'GM_PsiY ','GM_Kvz  ',
(PID.TID 0000.0001) >   fileName(3) = 'oceDiag',
(PID.TID 0000.0001) >  frequency(3) = -864000.,
(PID.TID 0000.0001) >  timePhase(3) = 0.,
(PID.TID 0000.0001) >
(PID.TID 0000.0001) >  fields(1:5,4)  = 'ADVy_TH ','ADVr_TH ',
(PID.TID 0000.0001) >                   'DFyE_TH ','DFrE_TH ',
(PID.TID 0000.0001) >                   'DFrI_TH ',
(PID.TID 0000.0001) >#                  'ADVx_SLT',
(PID.TID 0000.0001) >#  fileName(4) = 'flxDiag',
(PID.TID 0000.0001) >  frequency(4) = 1728000.,
(PID.TID 0000.0001) > /
(PID.TID 0000.0001) >
(PID.TID 0000.0001) >#--------------------
(PID.TID 0000.0001) ># Parameter for Diagnostics of per level statistics:
(PID.TID 0000.0001) >#--------------------
(PID.TID 0000.0001) >#  diagSt_mnc (logical): write stat-diags to NetCDF files (default=diag_mnc)
(PID.TID 0000.0001) >#  diagSt_regMaskFile : file containing the region-mask to read-in
(PID.TID 0000.0001) >#  nSetRegMskFile   : number of region-mask sets within the region-mask file
(PID.TID 0000.0001) >#  set_regMask(i)   : region-mask set-index that identifies the region "i"
(PID.TID 0000.0001) >#  val_regMask(i)   : region "i" identifier value in the region mask
(PID.TID 0000.0001) >#--for each output-stream:
(PID.TID 0000.0001) >#  stat_fName(n) : prefix of the output file name (max 80c long) for outp.stream n
(PID.TID 0000.0001) >#  stat_freq(n):< 0 : write snap-shot output every |stat_freq| seconds
(PID.TID 0000.0001) >#               > 0 : write time-average output every stat_freq seconds
(PID.TID 0000.0001) >#  stat_phase(n)    : write at time = stat_phase + multiple of |stat_freq|
(PID.TID 0000.0001) >#  stat_region(:,n) : list of "regions" (default: 1 region only=global)
(PID.TID 0000.0001) >#  stat_fields(:,n) : list of selected diagnostics fields (8.c) in outp.stream n
(PID.TID 0000.0001) >#                (see "available_diagnostics.log" file for the full list of diags)
(PID.TID 0000.0001) >#--------------------
(PID.TID 0000.0001) > &DIAG_STATIS_PARMS
(PID.TID 0000.0001) > stat_fields(1:12,1) = 'ETAN    ','UVEL    ','VVEL    ','WVEL    ', 'THETA   ',
(PID.TID 0000.0001) >                       'MXLDEPTH','GM_hTrsL','GM_baseS','GM_rLamb',
(PID.TID 0000.0001) >                       'GM_Kwy  ','GM_Kwz  ','GM_Kvy  ',
(PID.TID 0000.0001) >#                      'GM_Kvz  ',
(PID.TID 0000.0001) >  stat_fName(1) = 'dynStDiag',
(PID.TID 0000.0001) >   stat_freq(1) = 3600.,
(PID.TID 0000.0001) ># stat_phase(1) = 0.,
(PID.TID 0000.0001) > /
(PID.TID 0000.0001) >
(PID.TID 0000.0001) 
(PID.TID 0000.0001) S/R DIAGNOSTICS_READPARMS, read namelist "diagnostics_list": start
(PID.TID 0000.0001) S/R DIAGNOSTICS_READPARMS, read namelist "diagnostics_list": OK
(PID.TID 0000.0001) S/R DIAGNOSTICS_READPARMS, read namelist "DIAG_STATIS_PARMS": start
(PID.TID 0000.0001) S/R DIAGNOSTICS_READPARMS, read namelist "DIAG_STATIS_PARMS": OK
(PID.TID 0000.0001)  DIAGNOSTICS_READPARMS: global parameter summary:
(PID.TID 0000.0001)  dumpAtLast = /* always write time-ave diags at the end */
(PID.TID 0000.0001)                   F
(PID.TID 0000.0001)     ;
(PID.TID 0000.0001)  diag_mnc =   /* write NetCDF output files */
(PID.TID 0000.0001)                   F
(PID.TID 0000.0001)     ;
(PID.TID 0000.0001)  useMissingValue = /* put MissingValue where mask = 0 */
(PID.TID 0000.0001)                   F
(PID.TID 0000.0001)     ;
(PID.TID 0000.0001)  diagCG_maxIters = /* max number of iters in diag_cg2d */
(PID.TID 0000.0001)                    1000
(PID.TID 0000.0001)     ;
(PID.TID 0000.0001)  diagCG_resTarget = /* residual target for diag_cg2d */
(PID.TID 0000.0001)                 1.000000000000000E-13
(PID.TID 0000.0001)     ;
(PID.TID 0000.0001)  diagCG_pcOffDFac = /* preconditioner off-diagonal factor */
(PID.TID 0000.0001)                 9.611687812379854E-01
(PID.TID 0000.0001)     ;
(PID.TID 0000.0001) -----------------------------------------------------
(PID.TID 0000.0001)  DIAGNOSTICS_READPARMS: active diagnostics summary:
(PID.TID 0000.0001) -----------------------------------------------------
(PID.TID 0000.0001) Creating Output Stream: surfDiag
(PID.TID 0000.0001) Output Frequency:     -86400.000000 ; Phase:           0.000000
(PID.TID 0000.0001)  Averaging Freq.:          0.000000 , Phase:           0.000000 , Cycle:   1
(PID.TID 0000.0001)  missing value: -9.990000000000E+02
(PID.TID 0000.0001)  Levels:       1.
(PID.TID 0000.0001)  Fields:    ETAN     ETANSQ   DETADT2  PHIBOT   PHIBOTSQ MXLDEPTH GM_hTrsL GM_baseS GM_rLamb
(PID.TID 0000.0001) Creating Output Stream: oceDiag
(PID.TID 0000.0001) Output Frequency:    -864000.000000 ; Phase:           0.000000
(PID.TID 0000.0001)  Averaging Freq.:          0.000000 , Phase:           0.000000 , Cycle:   1
(PID.TID 0000.0001)  missing value: -9.990000000000E+02
(PID.TID 0000.0001)  Levels:    will be set later
(PID.TID 0000.0001)  Fields:    DRHODR   RHOAnoma GM_Kwy   GM_Kwz   GM_Kvy   THETA
(PID.TID 0000.0001) -----------------------------------------------------
(PID.TID 0000.0001)  DIAGNOSTICS_READPARMS: statistics diags. summary:
(PID.TID 0000.0001) Creating Stats. Output Stream: dynStDiag
(PID.TID 0000.0001) Output Frequency:       3600.000000 ; Phase:           0.000000
(PID.TID 0000.0001)  Regions:   0
(PID.TID 0000.0001)  Fields:    ETAN     UVEL     VVEL     WVEL     THETA    MXLDEPTH GM_hTrsL GM_baseS GM_rLamb GM_Kwy
(PID.TID 0000.0001)  Fields:    GM_Kwz   GM_Kvy
(PID.TID 0000.0001) -----------------------------------------------------
(PID.TID 0000.0001) 
(PID.TID 0000.0001) SET_PARMS: done
(PID.TID 0000.0001) Enter INI_VERTICAL_GRID: setInterFDr=    T ; setCenterDr=    F
(PID.TID 0000.0001) %MON XC_max                       =   5.0000000000000E+04
(PID.TID 0000.0001) %MON XC_min                       =   5.0000000000000E+04
(PID.TID 0000.0001) %MON XC_mean                      =   5.0000000000000E+04
(PID.TID 0000.0001) %MON XC_sd                        =   0.0000000000000E+00
(PID.TID 0000.0001) %MON XG_max                       =   0.0000000000000E+00
(PID.TID 0000.0001) %MON XG_min                       =   0.0000000000000E+00
(PID.TID 0000.0001) %MON XG_mean                      =   0.0000000000000E+00
(PID.TID 0000.0001) %MON XG_sd                        =   0.0000000000000E+00
(PID.TID 0000.0001) %MON DXC_max                      =   1.0000000000000E+05
(PID.TID 0000.0001) %MON DXC_min                      =   1.0000000000000E+05
(PID.TID 0000.0001) %MON DXC_mean                     =   1.0000000000000E+05
(PID.TID 0000.0001) %MON DXC_sd                       =   0.0000000000000E+00
(PID.TID 0000.0001) %MON DXF_max                      =   1.0000000000000E+05
(PID.TID 0000.0001) %MON DXF_min                      =   1.0000000000000E+05
(PID.TID 0000.0001) %MON DXF_mean                     =   1.0000000000000E+05
(PID.TID 0000.0001) %MON DXF_sd                       =   0.0000000000000E+00
(PID.TID 0000.0001) %MON DXG_max                      =   1.0000000000000E+05
(PID.TID 0000.0001) %MON DXG_min                      =   1.0000000000000E+05
(PID.TID 0000.0001) %MON DXG_mean                     =   1.0000000000000E+05
(PID.TID 0000.0001) %MON DXG_sd                       =   0.0000000000000E+00
(PID.TID 0000.0001) %MON DXV_max                      =   1.0000000000000E+05
(PID.TID 0000.0001) %MON DXV_min                      =   1.0000000000000E+05
(PID.TID 0000.0001) %MON DXV_mean                     =   1.0000000000000E+05
(PID.TID 0000.0001) %MON DXV_sd                       =   0.0000000000000E+00
(PID.TID 0000.0001) %MON YC_max                       =   3.1500000000000E+06
(PID.TID 0000.0001) %MON YC_min                       =   5.0000000000000E+04
(PID.TID 0000.0001) %MON YC_mean                      =   1.6000000000000E+06
(PID.TID 0000.0001) %MON YC_sd                        =   9.2330926563097E+05
(PID.TID 0000.0001) %MON YG_max                       =   3.1000000000000E+06
(PID.TID 0000.0001) %MON YG_min                       =   0.0000000000000E+00
(PID.TID 0000.0001) %MON YG_mean                      =   1.5500000000000E+06
(PID.TID 0000.0001) %MON YG_sd                        =   9.2330926563097E+05
(PID.TID 0000.0001) %MON DYC_max                      =   1.0000000000000E+05
(PID.TID 0000.0001) %MON DYC_min                      =   1.0000000000000E+05
(PID.TID 0000.0001) %MON DYC_mean                     =   1.0000000000000E+05
(PID.TID 0000.0001) %MON DYC_sd                       =   0.0000000000000E+00
(PID.TID 0000.0001) %MON DYF_max                      =   1.0000000000000E+05
(PID.TID 0000.0001) %MON DYF_min                      =   1.0000000000000E+05
(PID.TID 0000.0001) %MON DYF_mean                     =   1.0000000000000E+05
(PID.TID 0000.0001) %MON DYF_sd                       =   0.0000000000000E+00
(PID.TID 0000.0001) %MON DYG_max                      =   1.0000000000000E+05
(PID.TID 0000.0001) %MON DYG_min                      =   1.0000000000000E+05
(PID.TID 0000.0001) %MON DYG_mean                     =   1.0000000000000E+05
(PID.TID 0000.0001) %MON DYG_sd                       =   0.0000000000000E+00
(PID.TID 0000.0001) %MON DYU_max                      =   1.0000000000000E+05
(PID.TID 0000.0001) %MON DYU_min                      =   1.0000000000000E+05
(PID.TID 0000.0001) %MON DYU_mean                     =   1.0000000000000E+05
(PID.TID 0000.0001) %MON DYU_sd                       =   0.0000000000000E+00
(PID.TID 0000.0001) %MON RA_max                       =   1.0000000000000E+10
(PID.TID 0000.0001) %MON RA_min                       =   1.0000000000000E+10
(PID.TID 0000.0001) %MON RA_mean                      =   1.0000000000000E+10
(PID.TID 0000.0001) %MON RA_sd                        =   0.0000000000000E+00
(PID.TID 0000.0001) %MON RAW_max                      =   1.0000000000000E+10
(PID.TID 0000.0001) %MON RAW_min                      =   1.0000000000000E+10
(PID.TID 0000.0001) %MON RAW_mean                     =   1.0000000000000E+10
(PID.TID 0000.0001) %MON RAW_sd                       =   0.0000000000000E+00
(PID.TID 0000.0001) %MON RAS_max                      =   1.0000000000000E+10
(PID.TID 0000.0001) %MON RAS_min                      =   1.0000000000000E+10
(PID.TID 0000.0001) %MON RAS_mean                     =   1.0000000000000E+10
(PID.TID 0000.0001) %MON RAS_sd                       =   0.0000000000000E+00
(PID.TID 0000.0001) %MON RAZ_max                      =   1.0000000000000E+10
(PID.TID 0000.0001) %MON RAZ_min                      =   1.0000000000000E+10
(PID.TID 0000.0001) %MON RAZ_mean                     =   1.0000000000000E+10
(PID.TID 0000.0001) %MON RAZ_sd                       =   0.0000000000000E+00
(PID.TID 0000.0001) %MON AngleCS_max                  =   1.0000000000000E+00
(PID.TID 0000.0001) %MON AngleCS_min                  =   1.0000000000000E+00
(PID.TID 0000.0001) %MON AngleCS_mean                 =   1.0000000000000E+00
(PID.TID 0000.0001) %MON AngleCS_sd                   =   0.0000000000000E+00
(PID.TID 0000.0001) %MON AngleSN_max                  =   0.0000000000000E+00
(PID.TID 0000.0001) %MON AngleSN_min                  =   0.0000000000000E+00
(PID.TID 0000.0001) %MON AngleSN_mean                 =   0.0000000000000E+00
(PID.TID 0000.0001) %MON AngleSN_sd                   =   0.0000000000000E+00
(PID.TID 0000.0001)  MDS_READ_FIELD: opening global file: topog.bin
(PID.TID 0000.0001) // =======================================================
(PID.TID 0000.0001) // Field Model R_low (ini_masks_etc)
(PID.TID 0000.0001) // CMIN =         -2.000000000000000E+03
(PID.TID 0000.0001) // CMAX =         -2.000000000000000E+03
(PID.TID 0000.0001) // CINT =          0.000000000000000E+00
(PID.TID 0000.0001) // SYMBOLS (CMIN->CMAX): -abcdefghijklmnopqrstuvwxyz+
(PID.TID 0000.0001) //                  0.0: .
(PID.TID 0000.0001) // RANGE I (Lo:Hi:Step):(    -2:     4:     1)
(PID.TID 0000.0001) // RANGE J (Lo:Hi:Step):(    35:    -2:    -1)
(PID.TID 0000.0001) // RANGE K (Lo:Hi:Step):(   1:   1:   1)
(PID.TID 0000.0001) // =======================================================
(PID.TID 0000.0001) // =======================================================
(PID.TID 0000.0001) // END OF FIELD                                          =
(PID.TID 0000.0001) // =======================================================
(PID.TID 0000.0001) 
(PID.TID 0000.0001) // =======================================================
(PID.TID 0000.0001) // Field Model Ro_surf (ini_masks_etc)
(PID.TID 0000.0001) // CMIN =          1.000000000000000E+32
(PID.TID 0000.0001) // CMAX =         -1.000000000000000E+32
(PID.TID 0000.0001) // CINT =          0.000000000000000E+00
(PID.TID 0000.0001) // SYMBOLS (CMIN->CMAX): -abcdefghijklmnopqrstuvwxyz+
(PID.TID 0000.0001) //                  0.0: .
(PID.TID 0000.0001) // RANGE I (Lo:Hi:Step):(    -2:     4:     1)
(PID.TID 0000.0001) // RANGE J (Lo:Hi:Step):(    35:    -2:    -1)
(PID.TID 0000.0001) // RANGE K (Lo:Hi:Step):(   1:   1:   1)
(PID.TID 0000.0001) // =======================================================
(PID.TID 0000.0001) // =======================================================
(PID.TID 0000.0001) // END OF FIELD                                          =
(PID.TID 0000.0001) // =======================================================
(PID.TID 0000.0001) 
(PID.TID 0000.0001) // =======================================================
(PID.TID 0000.0001) // Field hFacC at iteration          0
(PID.TID 0000.0001) // CMIN =          1.000000000000000E+00
(PID.TID 0000.0001) // CMAX =          1.000000000000000E+00
(PID.TID 0000.0001) // CINT =          0.000000000000000E+00
(PID.TID 0000.0001) // SYMBOLS (CMIN->CMAX): -abcdefghijklmnopqrstuvwxyz+
(PID.TID 0000.0001) //                  0.0: .
(PID.TID 0000.0001) // RANGE I (Lo:Hi:Step):(    -2:     4:     1)
(PID.TID 0000.0001) // RANGE J (Lo:Hi:Step):(    35:    -2:    -1)
(PID.TID 0000.0001) // RANGE K (Lo:Hi:Step):(   1:   1:   1)
(PID.TID 0000.0001) // =======================================================
(PID.TID 0000.0001) // =======================================================
(PID.TID 0000.0001) // END OF FIELD                                          =
(PID.TID 0000.0001) // =======================================================
(PID.TID 0000.0001) 
(PID.TID 0000.0001) // =======================================================
(PID.TID 0000.0001) // Field hFacW at iteration          0
(PID.TID 0000.0001) // CMIN =          1.000000000000000E+00
(PID.TID 0000.0001) // CMAX =          1.000000000000000E+00
(PID.TID 0000.0001) // CINT =          0.000000000000000E+00
(PID.TID 0000.0001) // SYMBOLS (CMIN->CMAX): -abcdefghijklmnopqrstuvwxyz+
(PID.TID 0000.0001) //                  0.0: .
(PID.TID 0000.0001) // RANGE I (Lo:Hi:Step):(    -2:     4:     1)
(PID.TID 0000.0001) // RANGE J (Lo:Hi:Step):(    35:    -2:    -1)
(PID.TID 0000.0001) // RANGE K (Lo:Hi:Step):(   1:   1:   1)
(PID.TID 0000.0001) // =======================================================
(PID.TID 0000.0001) // =======================================================
(PID.TID 0000.0001) // END OF FIELD                                          =
(PID.TID 0000.0001) // =======================================================
(PID.TID 0000.0001) 
(PID.TID 0000.0001) // =======================================================
(PID.TID 0000.0001) // Field hFacS at iteration          0
(PID.TID 0000.0001) // CMIN =          1.000000000000000E+00
(PID.TID 0000.0001) // CMAX =          1.000000000000000E+00
(PID.TID 0000.0001) // CINT =          0.000000000000000E+00
(PID.TID 0000.0001) // SYMBOLS (CMIN->CMAX): -abcdefghijklmnopqrstuvwxyz+
(PID.TID 0000.0001) //                  0.0: .
(PID.TID 0000.0001) // RANGE I (Lo:Hi:Step):(    -2:     4:     1)
(PID.TID 0000.0001) // RANGE J (Lo:Hi:Step):(    35:    -2:    -1)
(PID.TID 0000.0001) // RANGE K (Lo:Hi:Step):(   1:   1:   1)
(PID.TID 0000.0001) // =======================================================
(PID.TID 0000.0001) // =======================================================
(PID.TID 0000.0001) // END OF FIELD                                          =
(PID.TID 0000.0001) // =======================================================
(PID.TID 0000.0001) 
(PID.TID 0000.0001) GAD_INIT_FIXED: GAD_OlMinSize=  1  0  1
(PID.TID 0000.0001) 
(PID.TID 0000.0001) // ===================================
(PID.TID 0000.0001) // GAD parameters :
(PID.TID 0000.0001) // ===================================
(PID.TID 0000.0001) tempAdvScheme =   /* Temp. Horiz.Advection scheme selector */
(PID.TID 0000.0001)                       2
(PID.TID 0000.0001)     ;
(PID.TID 0000.0001) tempVertAdvScheme =   /* Temp. Vert. Advection scheme selector */
(PID.TID 0000.0001)                       2
(PID.TID 0000.0001)     ;
(PID.TID 0000.0001) tempMultiDimAdvec =   /* use Muti-Dim Advec method for Temp */
(PID.TID 0000.0001)                   F
(PID.TID 0000.0001)     ;
(PID.TID 0000.0001) tempSOM_Advection = /* use 2nd Order Moment Advection for Temp */
(PID.TID 0000.0001)                   F
(PID.TID 0000.0001)     ;
(PID.TID 0000.0001) AdamsBashforthGt = /* apply Adams-Bashforth extrapolation on Gt */
(PID.TID 0000.0001)                   T
(PID.TID 0000.0001)     ;
(PID.TID 0000.0001) AdamsBashforth_T = /* apply Adams-Bashforth extrapolation on Temp */
(PID.TID 0000.0001)                   F
(PID.TID 0000.0001)     ;
(PID.TID 0000.0001) saltAdvScheme =   /* Salt. Horiz.advection scheme selector */
(PID.TID 0000.0001)                       2
(PID.TID 0000.0001)     ;
(PID.TID 0000.0001) saltVertAdvScheme =   /* Salt. Vert. Advection scheme selector */
(PID.TID 0000.0001)                       2
(PID.TID 0000.0001)     ;
(PID.TID 0000.0001) saltMultiDimAdvec =   /* use Muti-Dim Advec method for Salt */
(PID.TID 0000.0001)                   F
(PID.TID 0000.0001)     ;
(PID.TID 0000.0001) saltSOM_Advection = /* use 2nd Order Moment Advection for Salt */
(PID.TID 0000.0001)                   F
(PID.TID 0000.0001)     ;
(PID.TID 0000.0001) AdamsBashforthGs = /* apply Adams-Bashforth extrapolation on Gs */
(PID.TID 0000.0001)                   T
(PID.TID 0000.0001)     ;
(PID.TID 0000.0001) AdamsBashforth_S = /* apply Adams-Bashforth extrapolation on Salt */
(PID.TID 0000.0001)                   F
(PID.TID 0000.0001)     ;
(PID.TID 0000.0001) // ===================================
(PID.TID 0000.0001) ------------------------------------------------------------
(PID.TID 0000.0001) DIAGNOSTICS_SET_LEVELS: done
(PID.TID 0000.0001)  Total Nb of available Diagnostics: ndiagt=   211
(PID.TID 0000.0001)  write list of available Diagnostics to file: available_diagnostics.log
(PID.TID 0000.0001) SETDIAG: Allocate  1 x  1 Levels for Diagnostic #    23 ETAN
(PID.TID 0000.0001) SETDIAG: Allocate  1 x  1 Levels for Diagnostic #    24 ETANSQ
(PID.TID 0000.0001) SETDIAG: Allocate  1 x  1 Levels for Diagnostic #    25 DETADT2
(PID.TID 0000.0001) SETDIAG: Allocate  1 x  1 Levels for Diagnostic #    73 PHIBOT
(PID.TID 0000.0001) SETDIAG: Allocate  1 x  1 Levels for Diagnostic #    74 PHIBOTSQ
(PID.TID 0000.0001) SETDIAG: Allocate  1 x  1 Levels for Diagnostic #    76 MXLDEPTH
(PID.TID 0000.0001) SETDIAG: Allocate  1 x  1 Levels for Diagnostic #   190 GM_hTrsL
(PID.TID 0000.0001) SETDIAG: Allocate  1 x  1 Levels for Diagnostic #   191 GM_baseS
(PID.TID 0000.0001) SETDIAG: Allocate  1 x  1 Levels for Diagnostic #   192 GM_rLamb
(PID.TID 0000.0001) SETDIAG: Allocate 25 x  1 Levels for Diagnostic #    77 DRHODR
(PID.TID 0000.0001) SETDIAG: Allocate 25 x  1 Levels for Diagnostic #    64 RHOAnoma
(PID.TID 0000.0001) SETDIAG: Allocate 25 x  1 Levels for Diagnostic #   201 GM_Kwy
(PID.TID 0000.0001) SETDIAG: Allocate 25 x  1 Levels for Diagnostic #   202 GM_Kwz
(PID.TID 0000.0001) SETDIAG: Allocate 25 x  1 Levels for Diagnostic #   197 GM_Kvy
(PID.TID 0000.0001) SETDIAG: Allocate 25 x  1 Levels for Diagnostic #    26 THETA
(PID.TID 0000.0001)   space allocated for all diagnostics:     159 levels
(PID.TID 0000.0001) DIAGNOSTICS_SET_POINTERS: Set levels for Outp.Stream: oceDiag
(PID.TID 0000.0001)  Levels:       1.   2.   3.   4.   5.   6.   7.   8.   9.  10.  11.  12.  13.  14.  15.  16.  17.  18.  19.  20.
(PID.TID 0000.0001)  Levels:      21.  22.  23.  24.  25.
(PID.TID 0000.0001) DIAGNOSTICS_SET_POINTERS: done
(PID.TID 0000.0001) ------------------------------------------------------------
(PID.TID 0000.0001) DIAGSTATS_SET_REGIONS: define no region
(PID.TID 0000.0001) ------------------------------------------------------------
(PID.TID 0000.0001) SETDIAG: Allocate  1 Levels for Stats-Diag #    23 ETAN
(PID.TID 0000.0001) SETDIAG: Allocate 25 Levels for Stats-Diag #    30 UVEL
(PID.TID 0000.0001) SETDIAG: Allocate 25 Levels for Stats-Diag #    31 VVEL
(PID.TID 0000.0001) SETDIAG: Allocate 25 Levels for Stats-Diag #    32 WVEL
(PID.TID 0000.0001) SETDIAG: Allocate 25 Levels for Stats-Diag #    26 THETA
(PID.TID 0000.0001) SETDIAG: Allocate  1 Levels for Stats-Diag #    76 MXLDEPTH
(PID.TID 0000.0001) SETDIAG: Allocate  1 Levels for Stats-Diag #   190 GM_hTrsL
(PID.TID 0000.0001) SETDIAG: Allocate  1 Levels for Stats-Diag #   191 GM_baseS
(PID.TID 0000.0001) SETDIAG: Allocate  1 Levels for Stats-Diag #   192 GM_rLamb
(PID.TID 0000.0001) SETDIAG: Allocate 25 Levels for Stats-Diag #   201 GM_Kwy
(PID.TID 0000.0001) SETDIAG: Allocate 25 Levels for Stats-Diag #   202 GM_Kwz
(PID.TID 0000.0001) SETDIAG: Allocate 25 Levels for Stats-Diag #   197 GM_Kvy
(PID.TID 0000.0001)   space allocated for all stats-diags:     180 levels
(PID.TID 0000.0001) DIAGSTATS_SET_POINTERS: done
(PID.TID 0000.0001) ------------------------------------------------------------
(PID.TID 0000.0001) DIAGSTATS_INI_IO: open file: dynStDiag.0000000000.txt , unit=     9
(PID.TID 0000.0001) %MON fCori_max                    =   1.0000000000000E-04
(PID.TID 0000.0001) %MON fCori_min                    =   1.0000000000000E-04
(PID.TID 0000.0001) %MON fCori_mean                   =   1.0000000000000E-04
(PID.TID 0000.0001) %MON fCori_sd                     =   2.7105054312138E-20
(PID.TID 0000.0001) %MON fCoriG_max                   =   1.0000000000000E-04
(PID.TID 0000.0001) %MON fCoriG_min                   =   1.0000000000000E-04
(PID.TID 0000.0001) %MON fCoriG_mean                  =   1.0000000000000E-04
(PID.TID 0000.0001) %MON fCoriG_sd                    =   2.7105054312138E-20
(PID.TID 0000.0001) %MON fCoriCos_max                 =   0.0000000000000E+00
(PID.TID 0000.0001) %MON fCoriCos_min                 =   0.0000000000000E+00
(PID.TID 0000.0001) %MON fCoriCos_mean                =   0.0000000000000E+00
(PID.TID 0000.0001) %MON fCoriCos_sd                  =   0.0000000000000E+00
(PID.TID 0000.0001) INI_CG2D: CG2D normalisation factor =  5.0000000000000001E-04
(PID.TID 0000.0001) 
(PID.TID 0000.0001) // =======================================================
(PID.TID 0000.0001) // Model configuration
(PID.TID 0000.0001) // =======================================================
(PID.TID 0000.0001) //
(PID.TID 0000.0001) // "Physical" paramters ( PARM01 in namelist )
(PID.TID 0000.0001) //
(PID.TID 0000.0001) buoyancyRelation = /* Type of relation to get Buoyancy */
(PID.TID 0000.0001)               'OCEANIC'
(PID.TID 0000.0001)     ;
(PID.TID 0000.0001) fluidIsAir   =  /* fluid major constituent is Air */
(PID.TID 0000.0001)                   F
(PID.TID 0000.0001)     ;
(PID.TID 0000.0001) fluidIsWater =  /* fluid major constituent is Water */
(PID.TID 0000.0001)                   T
(PID.TID 0000.0001)     ;
(PID.TID 0000.0001) usingPCoords =  /* use p (or p*) vertical coordinate */
(PID.TID 0000.0001)                   F
(PID.TID 0000.0001)     ;
(PID.TID 0000.0001) usingZCoords =  /* use z (or z*) vertical coordinate */
(PID.TID 0000.0001)                   T
(PID.TID 0000.0001)     ;
(PID.TID 0000.0001) tRef =   /* Reference temperature profile ( oC or K ) */
(PID.TID 0000.0001)                 2.900000000000000E+01,      /* K =  1 */
(PID.TID 0000.0001)                 2.800000000000000E+01,      /* K =  2 */
(PID.TID 0000.0001)                 2.700000000000000E+01,      /* K =  3 */
(PID.TID 0000.0001)                 2.600000000000000E+01,      /* K =  4 */
(PID.TID 0000.0001)                 2.500000000000000E+01,      /* K =  5 */
(PID.TID 0000.0001)                 2.400000000000000E+01,      /* K =  6 */
(PID.TID 0000.0001)                 2.300000000000000E+01,      /* K =  7 */
(PID.TID 0000.0001)                 2.200000000000000E+01,      /* K =  8 */
(PID.TID 0000.0001)                 2.100000000000000E+01,      /* K =  9 */
(PID.TID 0000.0001)                 2.000000000000000E+01,      /* K = 10 */
(PID.TID 0000.0001)                 1.900000000000000E+01,      /* K = 11 */
(PID.TID 0000.0001)                 1.800000000000000E+01,      /* K = 12 */
(PID.TID 0000.0001)                 1.700000000000000E+01,      /* K = 13 */
(PID.TID 0000.0001)                 1.600000000000000E+01,      /* K = 14 */
(PID.TID 0000.0001)                 1.500000000000000E+01,      /* K = 15 */
(PID.TID 0000.0001)                 1.400000000000000E+01,      /* K = 16 */
(PID.TID 0000.0001)                 1.300000000000000E+01,      /* K = 17 */
(PID.TID 0000.0001)                 1.200000000000000E+01,      /* K = 18 */
(PID.TID 0000.0001)                 1.100000000000000E+01,      /* K = 19 */
(PID.TID 0000.0001)                 1.000000000000000E+01,      /* K = 20 */
(PID.TID 0000.0001)                 9.000000000000000E+00,      /* K = 21 */
(PID.TID 0000.0001)                 7.000000000000000E+00,      /* K = 22 */
(PID.TID 0000.0001)                 8.000000000000000E+00,      /* K = 23 */
(PID.TID 0000.0001)                 6.000000000000000E+00,      /* K = 24 */
(PID.TID 0000.0001)                 5.000000000000000E+00       /* K = 25 */
(PID.TID 0000.0001)     ;
(PID.TID 0000.0001) sRef =   /* Reference salinity profile ( psu ) */
(PID.TID 0000.0001)    25 @  3.000000000000000E+01              /* K =  1: 25 */
(PID.TID 0000.0001)     ;
(PID.TID 0000.0001) useStrainTensionVisc= /* Use StrainTension Form of Viscous Operator */
(PID.TID 0000.0001)                   F
(PID.TID 0000.0001)     ;
(PID.TID 0000.0001) useVariableVisc = /* Use variable horizontal viscosity */
(PID.TID 0000.0001)                   F
(PID.TID 0000.0001)     ;
(PID.TID 0000.0001) useHarmonicVisc = /* Use harmonic horizontal viscosity */
(PID.TID 0000.0001)                   F
(PID.TID 0000.0001)     ;
(PID.TID 0000.0001) useBiharmonicVisc= /* Use biharmonic horiz.  viscosity */
(PID.TID 0000.0001)                   T
(PID.TID 0000.0001)     ;
(PID.TID 0000.0001) useSmag3D = /* Use isotropic 3-D Smagorinsky viscosity */
(PID.TID 0000.0001)                   F
(PID.TID 0000.0001)     ;
(PID.TID 0000.0001) viscAh  =   /* Lateral harmonic viscosity ( m^2/s ) */
(PID.TID 0000.0001)                 0.000000000000000E+00
(PID.TID 0000.0001)     ;
(PID.TID 0000.0001) viscA4  =   /* Lateral biharmonic viscosity ( m^4/s ) */
(PID.TID 0000.0001)                 1.200000000000000E+06
(PID.TID 0000.0001)     ;
(PID.TID 0000.0001) no_slip_sides =  /* Viscous BCs: No-slip sides */
(PID.TID 0000.0001)                   F
(PID.TID 0000.0001)     ;
(PID.TID 0000.0001) sideDragFactor = /* side-drag scaling factor (non-dim) */
(PID.TID 0000.0001)                 2.000000000000000E+00
(PID.TID 0000.0001)     ;
(PID.TID 0000.0001) viscArNr = /* vertical profile of vertical viscosity ( m^2/s )*/
(PID.TID 0000.0001)    25 @  2.000000000000000E-04              /* K =  1: 25 */
(PID.TID 0000.0001)     ;
(PID.TID 0000.0001) no_slip_bottom =  /* Viscous BCs: No-slip bottom */
(PID.TID 0000.0001)                   T
(PID.TID 0000.0001)     ;
(PID.TID 0000.0001) bottomVisc_pCell = /* Partial-cell in bottom Visc. BC */
(PID.TID 0000.0001)                   F
(PID.TID 0000.0001)     ;
(PID.TID 0000.0001) bottomDragLinear = /* linear bottom-drag coefficient ( m/s ) */
(PID.TID 0000.0001)                 1.000000000000000E-03
(PID.TID 0000.0001)     ;
(PID.TID 0000.0001) bottomDragQuadratic = /* quadratic bottom-drag coefficient (-) */
(PID.TID 0000.0001)                 0.000000000000000E+00
(PID.TID 0000.0001)     ;
(PID.TID 0000.0001) selectBotDragQuadr = /* select quadratic bottom drag options */
(PID.TID 0000.0001)                      -1
(PID.TID 0000.0001)     ;
(PID.TID 0000.0001) diffKhT =   /* Laplacian diffusion of heat laterally ( m^2/s ) */
(PID.TID 0000.0001)                 0.000000000000000E+00
(PID.TID 0000.0001)     ;
(PID.TID 0000.0001) diffK4T =   /* Biharmonic diffusion of heat laterally ( m^4/s ) */
(PID.TID 0000.0001)                 0.000000000000000E+00
(PID.TID 0000.0001)     ;
(PID.TID 0000.0001) diffKhS =   /* Laplacian diffusion of salt laterally ( m^2/s ) */
(PID.TID 0000.0001)                 0.000000000000000E+00
(PID.TID 0000.0001)     ;
(PID.TID 0000.0001) diffK4S =   /* Biharmonic diffusion of salt laterally ( m^4/s ) */
(PID.TID 0000.0001)                 0.000000000000000E+00
(PID.TID 0000.0001)     ;
(PID.TID 0000.0001) diffKrNrT = /* vertical profile of vertical diffusion of Temp ( m^2/s )*/
(PID.TID 0000.0001)     6 @  1.000000000000000E-02,             /* K =  1:  6 */
(PID.TID 0000.0001)    19 @  2.000000000000000E-05              /* K =  7: 25 */
(PID.TID 0000.0001)     ;
(PID.TID 0000.0001) diffKrNrS = /* vertical profile of vertical diffusion of Salt ( m^2/s )*/
(PID.TID 0000.0001)     6 @  1.000000000000000E-02,             /* K =  1:  6 */
(PID.TID 0000.0001)    19 @  2.000000000000000E-05              /* K =  7: 25 */
(PID.TID 0000.0001)     ;
(PID.TID 0000.0001) diffKrBL79surf = /* Surface diffusion for Bryan and Lewis 79 ( m^2/s ) */
(PID.TID 0000.0001)                 0.000000000000000E+00
(PID.TID 0000.0001)     ;
(PID.TID 0000.0001) diffKrBL79deep = /* Deep diffusion for Bryan and Lewis 1979 ( m^2/s ) */
(PID.TID 0000.0001)                 0.000000000000000E+00
(PID.TID 0000.0001)     ;
(PID.TID 0000.0001) diffKrBL79scl = /* Depth scale for Bryan and Lewis 1979 ( m ) */
(PID.TID 0000.0001)                 2.000000000000000E+02
(PID.TID 0000.0001)     ;
(PID.TID 0000.0001) diffKrBL79Ho = /* Turning depth for Bryan and Lewis 1979 ( m ) */
(PID.TID 0000.0001)                -2.000000000000000E+03
(PID.TID 0000.0001)     ;
(PID.TID 0000.0001) ivdc_kappa = /* Implicit Vertical Diffusivity for Convection ( m^2/s) */
(PID.TID 0000.0001)                 0.000000000000000E+00
(PID.TID 0000.0001)     ;
(PID.TID 0000.0001) hMixCriteria=  /* Criteria for mixed-layer diagnostic */
(PID.TID 0000.0001)                -1.000000000000000E-01
(PID.TID 0000.0001)     ;
(PID.TID 0000.0001) dRhoSmall =  /* Parameter for mixed-layer diagnostic */
(PID.TID 0000.0001)                 1.000000000000000E-06
(PID.TID 0000.0001)     ;
(PID.TID 0000.0001) hMixSmooth=  /* Smoothing parameter for mixed-layer diagnostic */
(PID.TID 0000.0001)                 0.000000000000000E+00
(PID.TID 0000.0001)     ;
(PID.TID 0000.0001) eosType =  /* Type of Equation of State */
(PID.TID 0000.0001)               'LINEAR'
(PID.TID 0000.0001)     ;
(PID.TID 0000.0001) tAlpha = /* Linear EOS thermal expansion coefficient ( 1/oC ) */
(PID.TID 0000.0001)                 2.000000000000000E-04
(PID.TID 0000.0001)     ;
(PID.TID 0000.0001) sBeta  = /* Linear EOS haline contraction coefficient ( 1/psu ) */
(PID.TID 0000.0001)                 0.000000000000000E+00
(PID.TID 0000.0001)     ;
(PID.TID 0000.0001) rhoNil    = /* Reference density for Linear EOS ( kg/m^3 ) */
(PID.TID 0000.0001)                 1.000000000000000E+03
(PID.TID 0000.0001)     ;
(PID.TID 0000.0001) selectP_inEOS_Zc = /* select pressure to use in EOS (0,1,2,3) */
(PID.TID 0000.0001)                       0
(PID.TID 0000.0001)     0= -g*rhoConst*z ; 1= pRef (from tRef,sRef); 2= Hyd P ; 3= Hyd+NH P
(PID.TID 0000.0001)     ;
(PID.TID 0000.0001) HeatCapacity_Cp =  /* Specific heat capacity ( J/kg/K ) */
(PID.TID 0000.0001)                 3.994000000000000E+03
(PID.TID 0000.0001)     ;
(PID.TID 0000.0001) celsius2K = /* 0 degree Celsius converted to Kelvin ( K ) */
(PID.TID 0000.0001)                 2.731500000000000E+02
(PID.TID 0000.0001)     ;
(PID.TID 0000.0001) rhoConst  = /* Reference density (Boussinesq)  ( kg/m^3 ) */
(PID.TID 0000.0001)                 1.000000000000000E+03
(PID.TID 0000.0001)     ;
(PID.TID 0000.0001) rhoFacC = /* normalized Reference density @ cell-Center (-) */
(PID.TID 0000.0001)    25 @  1.000000000000000E+00              /* K =  1: 25 */
(PID.TID 0000.0001)     ;
(PID.TID 0000.0001) rhoFacF = /* normalized Reference density @ W-Interface (-) */
(PID.TID 0000.0001)    26 @  1.000000000000000E+00              /* K =  1: 26 */
(PID.TID 0000.0001)     ;
(PID.TID 0000.0001) rhoConstFresh = /* Fresh-water reference density ( kg/m^3 ) */
(PID.TID 0000.0001)                 1.000000000000000E+03
(PID.TID 0000.0001)     ;
(PID.TID 0000.0001) gravity =   /* Gravitational acceleration ( m/s^2 ) */
(PID.TID 0000.0001)                 9.810000000000000E+00
(PID.TID 0000.0001)     ;
(PID.TID 0000.0001) gBaro =   /* Barotropic gravity ( m/s^2 ) */
(PID.TID 0000.0001)                 9.810000000000000E+00
(PID.TID 0000.0001)     ;
(PID.TID 0000.0001) gravFacC = /* gravity factor (vs surf.) @ cell-Center (-) */
(PID.TID 0000.0001)    25 @  1.000000000000000E+00              /* K =  1: 25 */
(PID.TID 0000.0001)     ;
(PID.TID 0000.0001) gravFacF = /* gravity factor (vs surf.) @ W-Interface (-) */
(PID.TID 0000.0001)    26 @  1.000000000000000E+00              /* K =  1: 26 */
(PID.TID 0000.0001)     ;
(PID.TID 0000.0001) rotationPeriod =   /* Rotation Period ( s ) */
(PID.TID 0000.0001)                 8.616400000000000E+04
(PID.TID 0000.0001)     ;
(PID.TID 0000.0001) omega =   /* Angular velocity ( rad/s ) */
(PID.TID 0000.0001)                 7.292123516990375E-05
(PID.TID 0000.0001)     ;
(PID.TID 0000.0001) f0 =   /* Reference coriolis parameter ( 1/s ) */
(PID.TID 0000.0001)                 1.000000000000000E-04
(PID.TID 0000.0001)     ;
(PID.TID 0000.0001) beta =   /* Beta ( 1/(m.s) ) */
(PID.TID 0000.0001)                 0.000000000000000E+00
(PID.TID 0000.0001)     ;
(PID.TID 0000.0001) fPrime =   /* Second coriolis parameter ( 1/s ) */
(PID.TID 0000.0001)                 0.000000000000000E+00
(PID.TID 0000.0001)     ;
(PID.TID 0000.0001) rigidLid =   /* Rigid lid on/off flag */
(PID.TID 0000.0001)                   F
(PID.TID 0000.0001)     ;
(PID.TID 0000.0001) implicitFreeSurface =   /* Implicit free surface on/off flag */
(PID.TID 0000.0001)                   T
(PID.TID 0000.0001)     ;
(PID.TID 0000.0001) freeSurfFac =   /* Implicit free surface factor */
(PID.TID 0000.0001)                 1.000000000000000E+00
(PID.TID 0000.0001)     ;
(PID.TID 0000.0001) implicSurfPress =  /* Surface Pressure implicit factor (0-1)*/
(PID.TID 0000.0001)                 1.000000000000000E+00
(PID.TID 0000.0001)     ;
(PID.TID 0000.0001) implicDiv2DFlow =  /* Barot. Flow Div. implicit factor (0-1)*/
(PID.TID 0000.0001)                 1.000000000000000E+00
(PID.TID 0000.0001)     ;
(PID.TID 0000.0001) uniformLin_PhiSurf = /* use uniform Bo_surf on/off flag*/
(PID.TID 0000.0001)                   T
(PID.TID 0000.0001)     ;
(PID.TID 0000.0001) uniformFreeSurfLev = /* free-surface level-index is uniform */
(PID.TID 0000.0001)                   T
(PID.TID 0000.0001)     ;
(PID.TID 0000.0001) hFacMin =   /* minimum partial cell factor (hFac) */
(PID.TID 0000.0001)                 1.000000000000000E-01
(PID.TID 0000.0001)     ;
(PID.TID 0000.0001) hFacMinDr = /* minimum partial cell thickness ( m) */
(PID.TID 0000.0001)                 0.000000000000000E+00
(PID.TID 0000.0001)     ;
(PID.TID 0000.0001) exactConserv =  /* Exact Volume Conservation on/off flag*/
(PID.TID 0000.0001)                   F
(PID.TID 0000.0001)     ;
(PID.TID 0000.0001) linFSConserveTr = /* Tracer correction for Lin Free Surface on/off flag*/
(PID.TID 0000.0001)                   F
(PID.TID 0000.0001)     ;
(PID.TID 0000.0001) nonlinFreeSurf = /* Non-linear Free Surf. options (-1,0,1,2,3)*/
(PID.TID 0000.0001)                       0
(PID.TID 0000.0001)      -1,0= Off ; 1,2,3= On, 2=+rescale gU,gV, 3=+update cg2d solv.
(PID.TID 0000.0001)     ;
(PID.TID 0000.0001) hFacInf =   /* lower threshold for hFac (nonlinFreeSurf only)*/
(PID.TID 0000.0001)                 2.000000000000000E-01
(PID.TID 0000.0001)     ;
(PID.TID 0000.0001) hFacSup =   /* upper threshold for hFac (nonlinFreeSurf only)*/
(PID.TID 0000.0001)                 2.000000000000000E+00
(PID.TID 0000.0001)     ;
(PID.TID 0000.0001) select_rStar = /* r* Vertical coord. options (=0 r coord.; >0 uses r*)*/
(PID.TID 0000.0001)                       0
(PID.TID 0000.0001)     ;
(PID.TID 0000.0001) useRealFreshWaterFlux = /* Real Fresh Water Flux on/off flag*/
(PID.TID 0000.0001)                   F
(PID.TID 0000.0001)     ;
(PID.TID 0000.0001) temp_EvPrRn = /* Temp. of Evap/Prec/R (UNSET=use local T)(oC)*/
(PID.TID 0000.0001)                 1.234567000000000E+05
(PID.TID 0000.0001)     ;
(PID.TID 0000.0001) salt_EvPrRn = /* Salin. of Evap/Prec/R (UNSET=use local S)(psu)*/
(PID.TID 0000.0001)                 0.000000000000000E+00
(PID.TID 0000.0001)     ;
(PID.TID 0000.0001) selectAddFluid = /* option for mass source/sink of fluid (=0: off) */
(PID.TID 0000.0001)                       0
(PID.TID 0000.0001)     ;
(PID.TID 0000.0001) temp_addMass = /* Temp. of addMass array (UNSET=use local T)(oC)*/
(PID.TID 0000.0001)                 1.234567000000000E+05
(PID.TID 0000.0001)     ;
(PID.TID 0000.0001) salt_addMass = /* Salin. of addMass array (UNSET=use local S)(psu)*/
(PID.TID 0000.0001)                 0.000000000000000E+00
(PID.TID 0000.0001)     ;
(PID.TID 0000.0001) convertFW2Salt = /* convert F.W. Flux to Salt Flux (-1=use local S)(psu)*/
(PID.TID 0000.0001)                 3.500000000000000E+01
(PID.TID 0000.0001)     ;
(PID.TID 0000.0001) use3Dsolver = /* use 3-D pressure solver on/off flag */
(PID.TID 0000.0001)                   F
(PID.TID 0000.0001)     ;
(PID.TID 0000.0001) nonHydrostatic =  /* Non-Hydrostatic on/off flag */
(PID.TID 0000.0001)                   F
(PID.TID 0000.0001)     ;
(PID.TID 0000.0001) nh_Am2 = /* Non-Hydrostatic terms scaling factor */
(PID.TID 0000.0001)                 1.000000000000000E+00
(PID.TID 0000.0001)     ;
(PID.TID 0000.0001) implicitNHPress = /* Non-Hyd Pressure implicit factor (0-1)*/
(PID.TID 0000.0001)                 1.000000000000000E+00
(PID.TID 0000.0001)     ;
(PID.TID 0000.0001) selectNHfreeSurf = /* Non-Hyd (free-)Surface option */
(PID.TID 0000.0001)                       0
(PID.TID 0000.0001)     ;
(PID.TID 0000.0001) quasiHydrostatic = /* Quasi-Hydrostatic on/off flag */
(PID.TID 0000.0001)                   F
(PID.TID 0000.0001)     ;
(PID.TID 0000.0001) calc_wVelocity = /* vertical velocity calculation on/off flag */
(PID.TID 0000.0001)                   T
(PID.TID 0000.0001)     ;
(PID.TID 0000.0001) momStepping =  /* Momentum equation on/off flag */
(PID.TID 0000.0001)                   T
(PID.TID 0000.0001)     ;
(PID.TID 0000.0001) vectorInvariantMomentum= /* Vector-Invariant Momentum on/off */
(PID.TID 0000.0001)                   F
(PID.TID 0000.0001)     ;
(PID.TID 0000.0001) momAdvection =  /* Momentum advection on/off flag */
(PID.TID 0000.0001)                   T
(PID.TID 0000.0001)     ;
(PID.TID 0000.0001) momViscosity =  /* Momentum viscosity on/off flag */
(PID.TID 0000.0001)                   T
(PID.TID 0000.0001)     ;
(PID.TID 0000.0001) momImplVertAdv= /* Momentum implicit vert. advection on/off*/
(PID.TID 0000.0001)                   F
(PID.TID 0000.0001)     ;
(PID.TID 0000.0001) implicitViscosity = /* Implicit viscosity on/off flag */
(PID.TID 0000.0001)                   F
(PID.TID 0000.0001)     ;
(PID.TID 0000.0001) selectImplicitDrag= /* Implicit bot Drag options (0,1,2)*/
(PID.TID 0000.0001)                       0
(PID.TID 0000.0001)     0= Expl. ; 1= Impl. on provis. Vel ; 2= Fully Impl (with surf.P)
(PID.TID 0000.0001)     ;
(PID.TID 0000.0001) metricTerms =  /* metric-Terms on/off flag */
(PID.TID 0000.0001)                   F
(PID.TID 0000.0001)     ;
(PID.TID 0000.0001) useNHMTerms = /* Non-Hydrostatic Metric-Terms on/off */
(PID.TID 0000.0001)                   F
(PID.TID 0000.0001)     ;
(PID.TID 0000.0001) selectCoriMap = /* Coriolis Map options (0,1,2,3)*/
(PID.TID 0000.0001)                       1
(PID.TID 0000.0001)     0= f-Plane ; 1= Beta-Plane ; 2= Spherical ; 3= read from file
(PID.TID 0000.0001)     ;
(PID.TID 0000.0001) use3dCoriolis = /* 3-D Coriolis on/off flag */
(PID.TID 0000.0001)                   F
(PID.TID 0000.0001)     ;
(PID.TID 0000.0001) useCoriolis =  /* Coriolis on/off flag */
(PID.TID 0000.0001)                   T
(PID.TID 0000.0001)     ;
(PID.TID 0000.0001) useCDscheme =  /* CD scheme on/off flag */
(PID.TID 0000.0001)                   F
(PID.TID 0000.0001)     ;
(PID.TID 0000.0001) useEnergyConservingCoriolis= /* Flx-Form Coriolis scheme flag */
(PID.TID 0000.0001)                   F
(PID.TID 0000.0001)     ;
(PID.TID 0000.0001) useJamartWetPoints= /* Coriolis WetPoints method flag */
(PID.TID 0000.0001)                   F
(PID.TID 0000.0001)     ;
(PID.TID 0000.0001) useJamartMomAdv= /* V.I Non-linear terms Jamart flag */
(PID.TID 0000.0001)                   F
(PID.TID 0000.0001)     ;
(PID.TID 0000.0001) useAbsVorticity= /* V.I Works with f+zeta in Coriolis */
(PID.TID 0000.0001)                   F
(PID.TID 0000.0001)     ;
(PID.TID 0000.0001) selectVortScheme= /* V.I Scheme selector for Vorticity-Term */
(PID.TID 0000.0001)               123456789
(PID.TID 0000.0001)    = 0 : enstrophy (Shallow-Water Eq.) conserving scheme by Sadourny, JAS 75
(PID.TID 0000.0001)    = 1 : same as 0 with modified hFac
(PID.TID 0000.0001)    = 2 : energy conserving scheme (used by Sadourny in JAS 75 paper)
(PID.TID 0000.0001)    = 3 : energy (general) and enstrophy (2D, nonDiv.) conserving scheme
(PID.TID 0000.0001)          from Sadourny (Burridge & Haseler, ECMWF Rep.4, 1977)
(PID.TID 0000.0001)     ;
(PID.TID 0000.0001) upwindVorticity= /* V.I Upwind bias vorticity flag */
(PID.TID 0000.0001)                   F
(PID.TID 0000.0001)     ;
(PID.TID 0000.0001) highOrderVorticity= /* V.I High order vort. advect. flag */
(PID.TID 0000.0001)                   F
(PID.TID 0000.0001)     ;
(PID.TID 0000.0001) upwindShear= /* V.I Upwind vertical Shear advection flag */
(PID.TID 0000.0001)                   F
(PID.TID 0000.0001)     ;
(PID.TID 0000.0001) selectKEscheme= /* V.I Kinetic Energy scheme selector */
(PID.TID 0000.0001)                       0
(PID.TID 0000.0001)     ;
(PID.TID 0000.0001) momForcing =  /* Momentum forcing on/off flag */
(PID.TID 0000.0001)                   T
(PID.TID 0000.0001)     ;
(PID.TID 0000.0001) momTidalForcing = /* Momentum Tidal forcing on/off flag */
(PID.TID 0000.0001)                   T
(PID.TID 0000.0001)     ;
(PID.TID 0000.0001) momPressureForcing =  /* Momentum pressure term on/off flag */
(PID.TID 0000.0001)                   T
(PID.TID 0000.0001)     ;
(PID.TID 0000.0001) implicitIntGravWave= /* Implicit Internal Gravity Wave flag */
(PID.TID 0000.0001)                   F
(PID.TID 0000.0001)     ;
(PID.TID 0000.0001) staggerTimeStep =    /* Stagger time stepping on/off flag */
(PID.TID 0000.0001)                   F
(PID.TID 0000.0001)     ;
(PID.TID 0000.0001) doResetHFactors = /* reset thickness factors @ each time-step */
(PID.TID 0000.0001)                   F
(PID.TID 0000.0001)     ;
(PID.TID 0000.0001) multiDimAdvection =  /* enable/disable Multi-Dim Advection */
(PID.TID 0000.0001)                   T
(PID.TID 0000.0001)     ;
(PID.TID 0000.0001) useMultiDimAdvec =   /* Multi-Dim Advection is/is-not used */
(PID.TID 0000.0001)                   F
(PID.TID 0000.0001)     ;
(PID.TID 0000.0001) implicitDiffusion = /* Implicit Diffusion on/off flag */
(PID.TID 0000.0001)                   T
(PID.TID 0000.0001)     ;
(PID.TID 0000.0001) tempStepping =  /* Temperature equation on/off flag */
(PID.TID 0000.0001)                   T
(PID.TID 0000.0001)     ;
(PID.TID 0000.0001) tempAdvection = /* Temperature advection on/off flag */
(PID.TID 0000.0001)                   T
(PID.TID 0000.0001)     ;
(PID.TID 0000.0001) tempImplVertAdv = /* Temp. implicit vert. advection on/off */
(PID.TID 0000.0001)                   F
(PID.TID 0000.0001)     ;
(PID.TID 0000.0001) tempForcing  =  /* Temperature forcing on/off flag */
(PID.TID 0000.0001)                   T
(PID.TID 0000.0001)     ;
(PID.TID 0000.0001) doThetaClimRelax = /* apply SST relaxation on/off flag */
(PID.TID 0000.0001)                   F
(PID.TID 0000.0001)     ;
(PID.TID 0000.0001) tempIsActiveTr = /* Temp. is a dynamically Active Tracer */
(PID.TID 0000.0001)                   T
(PID.TID 0000.0001)     ;
(PID.TID 0000.0001) saltStepping =  /* Salinity equation on/off flag */
(PID.TID 0000.0001)                   T
(PID.TID 0000.0001)     ;
(PID.TID 0000.0001) saltAdvection = /* Salinity advection on/off flag */
(PID.TID 0000.0001)                   T
(PID.TID 0000.0001)     ;
(PID.TID 0000.0001) saltImplVertAdv = /* Sali. implicit vert. advection on/off */
(PID.TID 0000.0001)                   F
(PID.TID 0000.0001)     ;
(PID.TID 0000.0001) saltForcing  =  /* Salinity forcing on/off flag */
(PID.TID 0000.0001)                   T
(PID.TID 0000.0001)     ;
(PID.TID 0000.0001) doSaltClimRelax = /* apply SSS relaxation on/off flag */
(PID.TID 0000.0001)                   F
(PID.TID 0000.0001)     ;
(PID.TID 0000.0001) saltIsActiveTr = /* Salt  is a dynamically Active Tracer */
(PID.TID 0000.0001)                   F
(PID.TID 0000.0001)     ;
(PID.TID 0000.0001)  readBinaryPrec = /* Precision used for reading binary files */
(PID.TID 0000.0001)                      64
(PID.TID 0000.0001)     ;
(PID.TID 0000.0001) writeBinaryPrec = /* Precision used for writing binary files */
(PID.TID 0000.0001)                      64
(PID.TID 0000.0001)     ;
(PID.TID 0000.0001)  rwSuffixType =   /* select format of mds file suffix */
(PID.TID 0000.0001)                       0
(PID.TID 0000.0001)    = 0 : myIter (I10.10) ;   = 1 : 100*myTime (100th sec) ;
(PID.TID 0000.0001)    = 2 : myTime (seconds);   = 3 : myTime/360 (10th of hr);
(PID.TID 0000.0001)    = 4 : myTime/3600 (hours)
(PID.TID 0000.0001)     ;
(PID.TID 0000.0001)  globalFiles = /* write "global" (=not per tile) files */
(PID.TID 0000.0001)                   F
(PID.TID 0000.0001)     ;
(PID.TID 0000.0001)  useSingleCpuIO = /* only master MPI process does I/O */
(PID.TID 0000.0001)                   F
(PID.TID 0000.0001)     ;
(PID.TID 0000.0001)  useSingleCpuInput = /* only master process reads input */
(PID.TID 0000.0001)                   F
(PID.TID 0000.0001)     ;
(PID.TID 0000.0001) /* debLev[*]  : level of debug & auxiliary message printing */
(PID.TID 0000.0001) debLevZero =  0 ; /* level of disabled aux. msg printing */
(PID.TID 0000.0001)    debLevA =  1 ; /* level of minimum  aux. msg printing */
(PID.TID 0000.0001)    debLevB =  2 ; /* level of low aux. print (report read-file opening)*/
(PID.TID 0000.0001)    debLevC =  3 ; /* level of moderate debug prt (most pkgs debug msg) */
(PID.TID 0000.0001)    debLevD =  4 ; /* level of enhanced debug prt (add DEBUG_STATS prt) */
(PID.TID 0000.0001)    debLevE =  5 ; /* level of extensive debug printing */
(PID.TID 0000.0001) debugLevel =  /* select debug printing level */
(PID.TID 0000.0001)                       2
(PID.TID 0000.0001)     ;
(PID.TID 0000.0001)  plotLevel =  /* select PLOT_FIELD printing level */
(PID.TID 0000.0001)                       2
(PID.TID 0000.0001)     ;
(PID.TID 0000.0001) //
(PID.TID 0000.0001) // Elliptic solver(s) paramters ( PARM02 in namelist )
(PID.TID 0000.0001) //
(PID.TID 0000.0001) cg2dMaxIters =   /* Upper limit on 2d con. grad iterations  */
(PID.TID 0000.0001)                    1000
(PID.TID 0000.0001)     ;
(PID.TID 0000.0001) cg2dChkResFreq =   /* 2d con. grad convergence test frequency */
(PID.TID 0000.0001)                       1
(PID.TID 0000.0001)     ;
(PID.TID 0000.0001) cg2dUseMinResSol= /* use cg2d last-iter(=0) / min-resid.(=1) solution */
(PID.TID 0000.0001)                       0
(PID.TID 0000.0001)     ;
(PID.TID 0000.0001) cg2dTargetResidual =   /* 2d con. grad target residual  */
(PID.TID 0000.0001)                 1.000000000000000E-13
(PID.TID 0000.0001)     ;
(PID.TID 0000.0001) cg2dTargetResWunit =   /* CG2d target residual [W units] */
(PID.TID 0000.0001)                -1.000000000000000E+00
(PID.TID 0000.0001)     ;
(PID.TID 0000.0001) cg2dPreCondFreq =   /* Freq. for updating cg2d preconditioner */
(PID.TID 0000.0001)                       1
(PID.TID 0000.0001)     ;
(PID.TID 0000.0001) useSRCGSolver =  /* use single reduction CG solver(s) */
(PID.TID 0000.0001)                   F
(PID.TID 0000.0001)     ;
(PID.TID 0000.0001) printResidualFreq = /* Freq. for printing CG residual */
(PID.TID 0000.0001)                       0
(PID.TID 0000.0001)     ;
(PID.TID 0000.0001) //
(PID.TID 0000.0001) // Time stepping paramters ( PARM03 in namelist )
(PID.TID 0000.0001) //
(PID.TID 0000.0001) deltaTMom =   /* Momentum equation timestep ( s ) */
(PID.TID 0000.0001)                 3.600000000000000E+03
(PID.TID 0000.0001)     ;
(PID.TID 0000.0001) deltaTFreeSurf = /* FreeSurface equation timestep ( s ) */
(PID.TID 0000.0001)                 3.600000000000000E+03
(PID.TID 0000.0001)     ;
(PID.TID 0000.0001) dTtracerLev =  /* Tracer equation timestep ( s ) */
(PID.TID 0000.0001)    25 @  3.600000000000000E+03              /* K =  1: 25 */
(PID.TID 0000.0001)     ;
(PID.TID 0000.0001) deltaTClock  =   /* Model clock timestep ( s ) */
(PID.TID 0000.0001)                 3.600000000000000E+03
(PID.TID 0000.0001)     ;
(PID.TID 0000.0001) cAdjFreq =   /* Convective adjustment interval ( s ) */
(PID.TID 0000.0001)                 3.600000000000000E+03
(PID.TID 0000.0001)     ;
(PID.TID 0000.0001) momForcingOutAB = /* =1: take Momentum Forcing out of Adams-Bash. stepping */
(PID.TID 0000.0001)                       0
(PID.TID 0000.0001)     ;
(PID.TID 0000.0001) tracForcingOutAB = /* =1: take T,S,pTr Forcing out of Adams-Bash. stepping */
(PID.TID 0000.0001)                       0
(PID.TID 0000.0001)     ;
(PID.TID 0000.0001) momDissip_In_AB = /* put Dissipation Tendency in Adams-Bash. stepping */
(PID.TID 0000.0001)                   T
(PID.TID 0000.0001)     ;
(PID.TID 0000.0001) doAB_onGtGs = /* apply AB on Tendencies (rather than on T,S)*/
(PID.TID 0000.0001)                   T
(PID.TID 0000.0001)     ;
(PID.TID 0000.0001) abEps =   /* Adams-Bashforth-2 stabilizing weight */
(PID.TID 0000.0001)                 1.000000000000000E-01
(PID.TID 0000.0001)     ;
(PID.TID 0000.0001) applyExchUV_early = /* Apply EXCH to U,V earlier in time-step */
(PID.TID 0000.0001)                   F
(PID.TID 0000.0001)     ;
(PID.TID 0000.0001) pickupStrictlyMatch= /* stop if pickup do not strictly match */
(PID.TID 0000.0001)                   T
(PID.TID 0000.0001)     ;
(PID.TID 0000.0001) nIter0   =   /* Run starting timestep number */
(PID.TID 0000.0001)                       0
(PID.TID 0000.0001)     ;
(PID.TID 0000.0001) nTimeSteps = /* Number of timesteps */
(PID.TID 0000.0001)                      25
(PID.TID 0000.0001)     ;
(PID.TID 0000.0001) nEndIter =   /* Run ending timestep number */
(PID.TID 0000.0001)                      25
(PID.TID 0000.0001)     ;
(PID.TID 0000.0001) baseTime =   /* Model base time ( s ) */
(PID.TID 0000.0001)                 0.000000000000000E+00
(PID.TID 0000.0001)     ;
(PID.TID 0000.0001) startTime =  /* Run start time ( s ) */
(PID.TID 0000.0001)                 0.000000000000000E+00
(PID.TID 0000.0001)     ;
(PID.TID 0000.0001) endTime  =   /* Integration ending time ( s ) */
(PID.TID 0000.0001)                 9.000000000000000E+04
(PID.TID 0000.0001)     ;
(PID.TID 0000.0001) pChkPtFreq = /* Permanent restart/pickup file interval ( s ) */
(PID.TID 0000.0001)                 0.000000000000000E+00
(PID.TID 0000.0001)     ;
(PID.TID 0000.0001) chkPtFreq  = /* Rolling restart/pickup file interval ( s ) */
(PID.TID 0000.0001)                 0.000000000000000E+00
(PID.TID 0000.0001)     ;
(PID.TID 0000.0001) pickup_write_mdsio =   /* Model IO flag. */
(PID.TID 0000.0001)                   T
(PID.TID 0000.0001)     ;
(PID.TID 0000.0001) pickup_read_mdsio =   /* Model IO flag. */
(PID.TID 0000.0001)                   T
(PID.TID 0000.0001)     ;
(PID.TID 0000.0001) writePickupAtEnd =   /* Model IO flag. */
(PID.TID 0000.0001)                   T
(PID.TID 0000.0001)     ;
(PID.TID 0000.0001) dumpFreq =   /* Model state write out interval ( s ). */
(PID.TID 0000.0001)                 2.592000000000000E+06
(PID.TID 0000.0001)     ;
(PID.TID 0000.0001) dumpInitAndLast= /* write out Initial & Last iter. model state */
(PID.TID 0000.0001)                   T
(PID.TID 0000.0001)     ;
(PID.TID 0000.0001) snapshot_mdsio =   /* Model IO flag. */
(PID.TID 0000.0001)                   T
(PID.TID 0000.0001)     ;
(PID.TID 0000.0001) monitorFreq =   /* Monitor output interval ( s ). */
(PID.TID 0000.0001)                 1.000000000000000E+00
(PID.TID 0000.0001)     ;
(PID.TID 0000.0001) monitorSelect = /* select group of variables to monitor */
(PID.TID 0000.0001)                       1
(PID.TID 0000.0001)     ;
(PID.TID 0000.0001) monitor_stdio =   /* Model IO flag. */
(PID.TID 0000.0001)                   T
(PID.TID 0000.0001)     ;
(PID.TID 0000.0001) externForcingPeriod =   /* forcing period (s) */
(PID.TID 0000.0001)                 0.000000000000000E+00
(PID.TID 0000.0001)     ;
(PID.TID 0000.0001) externForcingCycle =   /* period of the cyle (s). */
(PID.TID 0000.0001)                 0.000000000000000E+00
(PID.TID 0000.0001)     ;
(PID.TID 0000.0001) tauThetaClimRelax =   /* relaxation time scale (s) */
(PID.TID 0000.0001)                 0.000000000000000E+00
(PID.TID 0000.0001)     ;
(PID.TID 0000.0001) tauSaltClimRelax =   /* relaxation time scale (s) */
(PID.TID 0000.0001)                 0.000000000000000E+00
(PID.TID 0000.0001)     ;
(PID.TID 0000.0001) latBandClimRelax =   /* max. Lat. where relaxation */
(PID.TID 0000.0001)                 9.600000000000000E+06
(PID.TID 0000.0001)     ;
(PID.TID 0000.0001) //
(PID.TID 0000.0001) // Gridding paramters ( PARM04 in namelist )
(PID.TID 0000.0001) //
(PID.TID 0000.0001) usingCartesianGrid = /* Cartesian coordinates flag ( True/False ) */
(PID.TID 0000.0001)                   T
(PID.TID 0000.0001)     ;
(PID.TID 0000.0001) usingCylindricalGrid = /* Cylindrical coordinates flag ( True/False ) */
(PID.TID 0000.0001)                   F
(PID.TID 0000.0001)     ;
(PID.TID 0000.0001) usingSphericalPolarGrid = /* Spherical coordinates flag ( True/False ) */
(PID.TID 0000.0001)                   F
(PID.TID 0000.0001)     ;
(PID.TID 0000.0001) usingCurvilinearGrid = /* Curvilinear coordinates flag ( True/False ) */
(PID.TID 0000.0001)                   F
(PID.TID 0000.0001)     ;
(PID.TID 0000.0001) useMin4hFacEdges = /* set hFacW,S as minimum of adjacent hFacC factor */
(PID.TID 0000.0001)                   F
(PID.TID 0000.0001)     ;
(PID.TID 0000.0001) interViscAr_pCell = /* account for partial-cell in interior vert. viscosity */
(PID.TID 0000.0001)                   F
(PID.TID 0000.0001)     ;
(PID.TID 0000.0001) interDiffKr_pCell = /* account for partial-cell in interior vert. diffusion */
(PID.TID 0000.0001)                   F
(PID.TID 0000.0001)     ;
(PID.TID 0000.0001) pCellMix_select = /* option to enhance mixing near surface & bottom */
(PID.TID 0000.0001)                       0
(PID.TID 0000.0001)     ;
(PID.TID 0000.0001) selectSigmaCoord = /* Hybrid-Sigma Vert. Coordinate option */
(PID.TID 0000.0001)                       0
(PID.TID 0000.0001)     ;
(PID.TID 0000.0001) rSigmaBnd = /* r/sigma transition ( units of r ==  m ) */
(PID.TID 0000.0001)                 1.234567000000000E+05
(PID.TID 0000.0001)     ;
(PID.TID 0000.0001) rkSign =   /* index orientation relative to vertical coordinate */
(PID.TID 0000.0001)                -1.000000000000000E+00
(PID.TID 0000.0001)     ;
(PID.TID 0000.0001) gravitySign = /* gravity orientation relative to vertical coordinate */
(PID.TID 0000.0001)                -1.000000000000000E+00
(PID.TID 0000.0001)     ;
(PID.TID 0000.0001) seaLev_Z =  /* reference height of sea-level [m] */
(PID.TID 0000.0001)                 0.000000000000000E+00
(PID.TID 0000.0001)     ;
(PID.TID 0000.0001) top_Pres =  /* reference pressure at the top [Pa] */
(PID.TID 0000.0001)                 0.000000000000000E+00
(PID.TID 0000.0001)     ;
(PID.TID 0000.0001) mass2rUnit = /* convert mass per unit area [kg/m2] to r-units [m] */
(PID.TID 0000.0001)                 1.000000000000000E-03
(PID.TID 0000.0001)     ;
(PID.TID 0000.0001) rUnit2mass = /* convert r-units [m] to mass per unit area [kg/m2] */
(PID.TID 0000.0001)                 1.000000000000000E+03
(PID.TID 0000.0001)     ;
(PID.TID 0000.0001) drC =   /* C spacing ( units of r ) */
(PID.TID 0000.0001)                 1.000000000000000E+01,      /* K =  1 */
(PID.TID 0000.0001)     9 @  2.000000000000000E+01,             /* K =  2: 10 */
(PID.TID 0000.0001)                 2.200000000000000E+01,      /* K = 11 */
(PID.TID 0000.0001)                 2.650000000000000E+01,      /* K = 12 */
(PID.TID 0000.0001)                 3.200000000000000E+01,      /* K = 13 */
(PID.TID 0000.0001)                 3.850000000000000E+01,      /* K = 14 */
(PID.TID 0000.0001)                 4.650000000000000E+01,      /* K = 15 */
(PID.TID 0000.0001)                 5.600000000000000E+01,      /* K = 16 */
(PID.TID 0000.0001)                 6.750000000000000E+01,      /* K = 17 */
(PID.TID 0000.0001)                 8.150000000000000E+01,      /* K = 18 */
(PID.TID 0000.0001)                 9.800000000000000E+01,      /* K = 19 */
(PID.TID 0000.0001)                 1.175000000000000E+02,      /* K = 20 */
(PID.TID 0000.0001)                 1.415000000000000E+02,      /* K = 21 */
(PID.TID 0000.0001)                 1.705000000000000E+02,      /* K = 22 */
(PID.TID 0000.0001)                 2.050000000000000E+02,      /* K = 23 */
(PID.TID 0000.0001)                 2.470000000000000E+02,      /* K = 24 */
(PID.TID 0000.0001)                 2.975000000000000E+02,      /* K = 25 */
(PID.TID 0000.0001)                 1.625000000000000E+02       /* K = 26 */
(PID.TID 0000.0001)     ;
(PID.TID 0000.0001) drF =   /* W spacing ( units of r ) */
(PID.TID 0000.0001)    10 @  2.000000000000000E+01,             /* K =  1: 10 */
(PID.TID 0000.0001)                 2.400000000000000E+01,      /* K = 11 */
(PID.TID 0000.0001)                 2.900000000000000E+01,      /* K = 12 */
(PID.TID 0000.0001)                 3.500000000000000E+01,      /* K = 13 */
(PID.TID 0000.0001)                 4.200000000000000E+01,      /* K = 14 */
(PID.TID 0000.0001)                 5.100000000000000E+01,      /* K = 15 */
(PID.TID 0000.0001)                 6.100000000000000E+01,      /* K = 16 */
(PID.TID 0000.0001)                 7.400000000000000E+01,      /* K = 17 */
(PID.TID 0000.0001)                 8.900000000000000E+01,      /* K = 18 */
(PID.TID 0000.0001)                 1.070000000000000E+02,      /* K = 19 */
(PID.TID 0000.0001)                 1.280000000000000E+02,      /* K = 20 */
(PID.TID 0000.0001)                 1.550000000000000E+02,      /* K = 21 */
(PID.TID 0000.0001)                 1.860000000000000E+02,      /* K = 22 */
(PID.TID 0000.0001)                 2.240000000000000E+02,      /* K = 23 */
(PID.TID 0000.0001)                 2.700000000000000E+02,      /* K = 24 */
(PID.TID 0000.0001)                 3.250000000000000E+02       /* K = 25 */
(PID.TID 0000.0001)     ;
(PID.TID 0000.0001) delX = /* U spacing ( m - cartesian, degrees - spherical ) */
(PID.TID 0000.0001)                 1.000000000000000E+05       /* I =  1 */
(PID.TID 0000.0001)     ;
(PID.TID 0000.0001) delY = /* V spacing ( m - cartesian, degrees - spherical ) */
(PID.TID 0000.0001)    32 @  1.000000000000000E+05              /* J =  1: 32 */
(PID.TID 0000.0001)     ;
(PID.TID 0000.0001) xgOrigin = /* X-axis origin of West  edge (cartesian: m, lat-lon: deg) */
(PID.TID 0000.0001)                 0.000000000000000E+00
(PID.TID 0000.0001)     ;
(PID.TID 0000.0001) ygOrigin = /* Y-axis origin of South edge (cartesian: m, lat-lon: deg) */
(PID.TID 0000.0001)                 0.000000000000000E+00
(PID.TID 0000.0001)     ;
(PID.TID 0000.0001) rSphere =  /* Radius ( ignored - cartesian, m - spherical ) */
(PID.TID 0000.0001)                 6.370000000000000E+06
(PID.TID 0000.0001)     ;
(PID.TID 0000.0001) deepAtmosphere = /* Deep/Shallow Atmosphere flag (True/False) */
(PID.TID 0000.0001)                   F
(PID.TID 0000.0001)     ;
(PID.TID 0000.0001) xC =  /* xC(:,1,:,1) : P-point X coord ( deg. or m if cartesian) */
(PID.TID 0000.0001)                 5.000000000000000E+04       /* I =  1 */
(PID.TID 0000.0001)     ;
(PID.TID 0000.0001) yC =  /* yC(1,:,1,:) : P-point Y coord ( deg. or m if cartesian) */
(PID.TID 0000.0001)                 5.000000000000000E+04,      /* J =  1 */
(PID.TID 0000.0001)                 1.500000000000000E+05,      /* J =  2 */
(PID.TID 0000.0001)                 2.500000000000000E+05,      /* J =  3 */
(PID.TID 0000.0001)                 3.500000000000000E+05,      /* J =  4 */
(PID.TID 0000.0001)                 4.500000000000000E+05,      /* J =  5 */
(PID.TID 0000.0001)                 5.500000000000000E+05,      /* J =  6 */
(PID.TID 0000.0001)                 6.500000000000000E+05,      /* J =  7 */
(PID.TID 0000.0001)                 7.500000000000000E+05,      /* J =  8 */
(PID.TID 0000.0001)                 8.500000000000000E+05,      /* J =  9 */
(PID.TID 0000.0001)                 9.500000000000000E+05,      /* J = 10 */
(PID.TID 0000.0001)                 1.050000000000000E+06,      /* J = 11 */
(PID.TID 0000.0001)                 1.150000000000000E+06,      /* J = 12 */
(PID.TID 0000.0001)                 1.250000000000000E+06,      /* J = 13 */
(PID.TID 0000.0001)                 1.350000000000000E+06,      /* J = 14 */
(PID.TID 0000.0001)                 1.450000000000000E+06,      /* J = 15 */
(PID.TID 0000.0001)                 1.550000000000000E+06,      /* J = 16 */
(PID.TID 0000.0001)                 1.650000000000000E+06,      /* J = 17 */
(PID.TID 0000.0001)                 1.750000000000000E+06,      /* J = 18 */
(PID.TID 0000.0001)                 1.850000000000000E+06,      /* J = 19 */
(PID.TID 0000.0001)                 1.950000000000000E+06,      /* J = 20 */
(PID.TID 0000.0001)                 2.050000000000000E+06,      /* J = 21 */
(PID.TID 0000.0001)                 2.150000000000000E+06,      /* J = 22 */
(PID.TID 0000.0001)                 2.250000000000000E+06,      /* J = 23 */
(PID.TID 0000.0001)                 2.350000000000000E+06,      /* J = 24 */
(PID.TID 0000.0001)                 2.450000000000000E+06,      /* J = 25 */
(PID.TID 0000.0001)                 2.550000000000000E+06,      /* J = 26 */
(PID.TID 0000.0001)                 2.650000000000000E+06,      /* J = 27 */
(PID.TID 0000.0001)                 2.750000000000000E+06,      /* J = 28 */
(PID.TID 0000.0001)                 2.850000000000000E+06,      /* J = 29 */
(PID.TID 0000.0001)                 2.950000000000000E+06,      /* J = 30 */
(PID.TID 0000.0001)                 3.050000000000000E+06,      /* J = 31 */
(PID.TID 0000.0001)                 3.150000000000000E+06       /* J = 32 */
(PID.TID 0000.0001)     ;
(PID.TID 0000.0001) rcoord = /* P-point R coordinate (  units of r ) */
(PID.TID 0000.0001)                -1.000000000000000E+01,      /* K =  1 */
(PID.TID 0000.0001)                -3.000000000000000E+01,      /* K =  2 */
(PID.TID 0000.0001)                -5.000000000000000E+01,      /* K =  3 */
(PID.TID 0000.0001)                -7.000000000000000E+01,      /* K =  4 */
(PID.TID 0000.0001)                -9.000000000000000E+01,      /* K =  5 */
(PID.TID 0000.0001)                -1.100000000000000E+02,      /* K =  6 */
(PID.TID 0000.0001)                -1.300000000000000E+02,      /* K =  7 */
(PID.TID 0000.0001)                -1.500000000000000E+02,      /* K =  8 */
(PID.TID 0000.0001)                -1.700000000000000E+02,      /* K =  9 */
(PID.TID 0000.0001)                -1.900000000000000E+02,      /* K = 10 */
(PID.TID 0000.0001)                -2.120000000000000E+02,      /* K = 11 */
(PID.TID 0000.0001)                -2.385000000000000E+02,      /* K = 12 */
(PID.TID 0000.0001)                -2.705000000000000E+02,      /* K = 13 */
(PID.TID 0000.0001)                -3.090000000000000E+02,      /* K = 14 */
(PID.TID 0000.0001)                -3.555000000000000E+02,      /* K = 15 */
(PID.TID 0000.0001)                -4.115000000000000E+02,      /* K = 16 */
(PID.TID 0000.0001)                -4.790000000000000E+02,      /* K = 17 */
(PID.TID 0000.0001)                -5.605000000000000E+02,      /* K = 18 */
(PID.TID 0000.0001)                -6.585000000000000E+02,      /* K = 19 */
(PID.TID 0000.0001)                -7.760000000000000E+02,      /* K = 20 */
(PID.TID 0000.0001)                -9.175000000000000E+02,      /* K = 21 */
(PID.TID 0000.0001)                -1.088000000000000E+03,      /* K = 22 */
(PID.TID 0000.0001)                -1.293000000000000E+03,      /* K = 23 */
(PID.TID 0000.0001)                -1.540000000000000E+03,      /* K = 24 */
(PID.TID 0000.0001)                -1.837500000000000E+03       /* K = 25 */
(PID.TID 0000.0001)     ;
(PID.TID 0000.0001) rF =   /* W-Interf. R coordinate (  units of r ) */
(PID.TID 0000.0001)                 0.000000000000000E+00,      /* K =  1 */
(PID.TID 0000.0001)                -2.000000000000000E+01,      /* K =  2 */
(PID.TID 0000.0001)                -4.000000000000000E+01,      /* K =  3 */
(PID.TID 0000.0001)                -6.000000000000000E+01,      /* K =  4 */
(PID.TID 0000.0001)                -8.000000000000000E+01,      /* K =  5 */
(PID.TID 0000.0001)                -1.000000000000000E+02,      /* K =  6 */
(PID.TID 0000.0001)                -1.200000000000000E+02,      /* K =  7 */
(PID.TID 0000.0001)                -1.400000000000000E+02,      /* K =  8 */
(PID.TID 0000.0001)                -1.600000000000000E+02,      /* K =  9 */
(PID.TID 0000.0001)                -1.800000000000000E+02,      /* K = 10 */
(PID.TID 0000.0001)                -2.000000000000000E+02,      /* K = 11 */
(PID.TID 0000.0001)                -2.240000000000000E+02,      /* K = 12 */
(PID.TID 0000.0001)                -2.530000000000000E+02,      /* K = 13 */
(PID.TID 0000.0001)                -2.880000000000000E+02,      /* K = 14 */
(PID.TID 0000.0001)                -3.300000000000000E+02,      /* K = 15 */
(PID.TID 0000.0001)                -3.810000000000000E+02,      /* K = 16 */
(PID.TID 0000.0001)                -4.420000000000000E+02,      /* K = 17 */
(PID.TID 0000.0001)                -5.160000000000000E+02,      /* K = 18 */
(PID.TID 0000.0001)                -6.050000000000000E+02,      /* K = 19 */
(PID.TID 0000.0001)                -7.120000000000000E+02,      /* K = 20 */
(PID.TID 0000.0001)                -8.400000000000000E+02,      /* K = 21 */
(PID.TID 0000.0001)                -9.950000000000000E+02,      /* K = 22 */
(PID.TID 0000.0001)                -1.181000000000000E+03,      /* K = 23 */
(PID.TID 0000.0001)                -1.405000000000000E+03,      /* K = 24 */
(PID.TID 0000.0001)                -1.675000000000000E+03,      /* K = 25 */
(PID.TID 0000.0001)                -2.000000000000000E+03       /* K = 26 */
(PID.TID 0000.0001)     ;
(PID.TID 0000.0001) deepFacC = /* deep-model grid factor @ cell-Center (-) */
(PID.TID 0000.0001)    25 @  1.000000000000000E+00              /* K =  1: 25 */
(PID.TID 0000.0001)     ;
(PID.TID 0000.0001) deepFacF = /* deep-model grid factor @ W-Interface (-) */
(PID.TID 0000.0001)    26 @  1.000000000000000E+00              /* K =  1: 26 */
(PID.TID 0000.0001)     ;
(PID.TID 0000.0001) rVel2wUnit = /* convert units: rVel -> wSpeed (=1 if z-coord)*/
(PID.TID 0000.0001)    26 @  1.000000000000000E+00              /* K =  1: 26 */
(PID.TID 0000.0001)     ;
(PID.TID 0000.0001) wUnit2rVel = /* convert units: wSpeed -> rVel (=1 if z-coord)*/
(PID.TID 0000.0001)    26 @  1.000000000000000E+00              /* K =  1: 26 */
(PID.TID 0000.0001)     ;
(PID.TID 0000.0001) dBdrRef = /* Vertical grad. of reference buoyancy [(m/s/r)^2] */
(PID.TID 0000.0001)                 0.000000000000000E+00,      /* K =  1 */
(PID.TID 0000.0001)     9 @  9.810000000000001E-05,             /* K =  2: 10 */
(PID.TID 0000.0001)                 8.918181818181819E-05,      /* K = 11 */
(PID.TID 0000.0001)                 7.403773584905661E-05,      /* K = 12 */
(PID.TID 0000.0001)                 6.131250000000001E-05,      /* K = 13 */
(PID.TID 0000.0001)                 5.096103896103897E-05,      /* K = 14 */
(PID.TID 0000.0001)                 4.219354838709678E-05,      /* K = 15 */
(PID.TID 0000.0001)                 3.503571428571429E-05,      /* K = 16 */
(PID.TID 0000.0001)                 2.906666666666667E-05,      /* K = 17 */
(PID.TID 0000.0001)                 2.407361963190185E-05,      /* K = 18 */
(PID.TID 0000.0001)                 2.002040816326531E-05,      /* K = 19 */
(PID.TID 0000.0001)                 1.669787234042553E-05,      /* K = 20 */
(PID.TID 0000.0001)                 1.386572438162544E-05,      /* K = 21 */
(PID.TID 0000.0001)                 2.301466275659825E-05,      /* K = 22 */
(PID.TID 0000.0001)                -9.570731707317075E-06,      /* K = 23 */
(PID.TID 0000.0001)                 1.588663967611337E-05,      /* K = 24 */
(PID.TID 0000.0001)                 6.594957983193279E-06       /* K = 25 */
(PID.TID 0000.0001)     ;
(PID.TID 0000.0001) rotateGrid = /* use rotated grid ( True/False ) */
(PID.TID 0000.0001)                   F
(PID.TID 0000.0001)     ;
(PID.TID 0000.0001) phiEuler = /* Euler angle, rotation about original z-coordinate [rad] */
(PID.TID 0000.0001)                 0.000000000000000E+00
(PID.TID 0000.0001)     ;
(PID.TID 0000.0001) thetaEuler = /* Euler angle, rotation about new x-coordinate [rad] */
(PID.TID 0000.0001)                 0.000000000000000E+00
(PID.TID 0000.0001)     ;
(PID.TID 0000.0001) psiEuler = /* Euler angle, rotation about new z-coordinate [rad] */
(PID.TID 0000.0001)                 0.000000000000000E+00
(PID.TID 0000.0001)     ;
(PID.TID 0000.0001) dxF =  /* dxF(:,1,:,1) ( units: m ) */
(PID.TID 0000.0001)                 1.000000000000000E+05       /* I =  1 */
(PID.TID 0000.0001)     ;
(PID.TID 0000.0001) dxF =  /* dxF(1,:,1,:) ( units: m ) */
(PID.TID 0000.0001)    32 @  1.000000000000000E+05              /* J =  1: 32 */
(PID.TID 0000.0001)     ;
(PID.TID 0000.0001) dyF =  /* dyF(:,1,:,1) ( units: m ) */
(PID.TID 0000.0001)                 1.000000000000000E+05       /* I =  1 */
(PID.TID 0000.0001)     ;
(PID.TID 0000.0001) dyF =  /* dyF(1,:,1,:) ( units: m ) */
(PID.TID 0000.0001)    32 @  1.000000000000000E+05              /* J =  1: 32 */
(PID.TID 0000.0001)     ;
(PID.TID 0000.0001) dxG =  /* dxG(:,1,:,1) ( units: m ) */
(PID.TID 0000.0001)                 1.000000000000000E+05       /* I =  1 */
(PID.TID 0000.0001)     ;
(PID.TID 0000.0001) dxG =  /* dxG(1,:,1,:) ( units: m ) */
(PID.TID 0000.0001)    32 @  1.000000000000000E+05              /* J =  1: 32 */
(PID.TID 0000.0001)     ;
(PID.TID 0000.0001) dyG =  /* dyG(:,1,:,1) ( units: m ) */
(PID.TID 0000.0001)                 1.000000000000000E+05       /* I =  1 */
(PID.TID 0000.0001)     ;
(PID.TID 0000.0001) dyG =  /* dyG(1,:,1,:) ( units: m ) */
(PID.TID 0000.0001)    32 @  1.000000000000000E+05              /* J =  1: 32 */
(PID.TID 0000.0001)     ;
(PID.TID 0000.0001) dxC =  /* dxC(:,1,:,1) ( units: m ) */
(PID.TID 0000.0001)                 1.000000000000000E+05       /* I =  1 */
(PID.TID 0000.0001)     ;
(PID.TID 0000.0001) dxC =  /* dxC(1,:,1,:) ( units: m ) */
(PID.TID 0000.0001)    32 @  1.000000000000000E+05              /* J =  1: 32 */
(PID.TID 0000.0001)     ;
(PID.TID 0000.0001) dyC =  /* dyC(:,1,:,1) ( units: m ) */
(PID.TID 0000.0001)                 1.000000000000000E+05       /* I =  1 */
(PID.TID 0000.0001)     ;
(PID.TID 0000.0001) dyC =  /* dyC(1,:,1,:) ( units: m ) */
(PID.TID 0000.0001)    32 @  1.000000000000000E+05              /* J =  1: 32 */
(PID.TID 0000.0001)     ;
(PID.TID 0000.0001) dxV =  /* dxV(:,1,:,1) ( units: m ) */
(PID.TID 0000.0001)                 1.000000000000000E+05       /* I =  1 */
(PID.TID 0000.0001)     ;
(PID.TID 0000.0001) dxV =  /* dxV(1,:,1,:) ( units: m ) */
(PID.TID 0000.0001)    32 @  1.000000000000000E+05              /* J =  1: 32 */
(PID.TID 0000.0001)     ;
(PID.TID 0000.0001) dyU =  /* dyU(:,1,:,1) ( units: m ) */
(PID.TID 0000.0001)                 1.000000000000000E+05       /* I =  1 */
(PID.TID 0000.0001)     ;
(PID.TID 0000.0001) dyU =  /* dyU(1,:,1,:) ( units: m ) */
(PID.TID 0000.0001)    32 @  1.000000000000000E+05              /* J =  1: 32 */
(PID.TID 0000.0001)     ;
(PID.TID 0000.0001) rA  =  /* rA (:,1,:,1) ( units: m^2 ) */
(PID.TID 0000.0001)                 1.000000000000000E+10       /* I =  1 */
(PID.TID 0000.0001)     ;
(PID.TID 0000.0001) rA  =  /* rA (1,:,1,:) ( units: m^2 ) */
(PID.TID 0000.0001)    32 @  1.000000000000000E+10              /* J =  1: 32 */
(PID.TID 0000.0001)     ;
(PID.TID 0000.0001) rAw =  /* rAw(:,1,:,1) ( units: m^2 ) */
(PID.TID 0000.0001)                 1.000000000000000E+10       /* I =  1 */
(PID.TID 0000.0001)     ;
(PID.TID 0000.0001) rAw =  /* rAw(1,:,1,:) ( units: m^2 ) */
(PID.TID 0000.0001)    32 @  1.000000000000000E+10              /* J =  1: 32 */
(PID.TID 0000.0001)     ;
(PID.TID 0000.0001) rAs =  /* rAs(:,1,:,1) ( units: m^2 ) */
(PID.TID 0000.0001)                 1.000000000000000E+10       /* I =  1 */
(PID.TID 0000.0001)     ;
(PID.TID 0000.0001) rAs =  /* rAs(1,:,1,:) ( units: m^2 ) */
(PID.TID 0000.0001)    32 @  1.000000000000000E+10              /* J =  1: 32 */
(PID.TID 0000.0001)     ;
(PID.TID 0000.0001) globalArea = /* Integrated horizontal Area (m^2) */
(PID.TID 0000.0001)                 3.000000000000000E+11
(PID.TID 0000.0001)     ;
(PID.TID 0000.0001) // =======================================================
(PID.TID 0000.0001) // End of Model config. summary
(PID.TID 0000.0001) // =======================================================
(PID.TID 0000.0001) 
(PID.TID 0000.0001) == Packages configuration : Check & print summary ==
(PID.TID 0000.0001) 
(PID.TID 0000.0001) GMREDI_CHECK: #define GMREDI
(PID.TID 0000.0001) GM_AdvForm =     /* if FALSE => use SkewFlux Form */
(PID.TID 0000.0001)                   F
(PID.TID 0000.0001)     ;
(PID.TID 0000.0001) GM_InMomAsStress = /* if TRUE => apply as Eddy Stress */
(PID.TID 0000.0001)                   F
(PID.TID 0000.0001)     ;
(PID.TID 0000.0001) GM_AdvSeparate = /* Calc Bolus & Euler Adv. separately */
(PID.TID 0000.0001)                   F
(PID.TID 0000.0001)     ;
(PID.TID 0000.0001) GM_ExtraDiag =   /* Tensor Extra Diag (line 1&2) non 0 */
(PID.TID 0000.0001)                   F
(PID.TID 0000.0001)     ;
(PID.TID 0000.0001) GM_isopycK =    /* Background Isopyc. Diffusivity [m^2/s] */
(PID.TID 0000.0001)                 1.000000000000000E+03
(PID.TID 0000.0001)     ;
(PID.TID 0000.0001) GM_skewflx*K =  /* Background GM_SkewFlx Diffusivity [m^2/s] */
(PID.TID 0000.0001)                 1.000000000000000E+03
(PID.TID 0000.0001)     ;
(PID.TID 0000.0001) GM_advec*K =    /* Backg. GM-Advec(=Bolus) Diffusivity [m^2/s]*/
(PID.TID 0000.0001)                 0.000000000000000E+00
(PID.TID 0000.0001)     ;
(PID.TID 0000.0001) GM_Kmin_horiz = /* Minimum Horizontal Diffusivity [m^2/s] */
(PID.TID 0000.0001)                 0.000000000000000E+00
(PID.TID 0000.0001)     ;
(PID.TID 0000.0001) GM_Visbeck_alpha = /* Visbeck alpha coeff. [-] */
(PID.TID 0000.0001)                 0.000000000000000E+00
(PID.TID 0000.0001)     ;
(PID.TID 0000.0001) GM_Small_Number =  /* epsilon used in slope calc */
(PID.TID 0000.0001)                 9.999999999999999E-21
(PID.TID 0000.0001)     ;
(PID.TID 0000.0001) GM_slopeSqCutoff = /* Slope^2 cut-off value */
(PID.TID 0000.0001)                 1.000000000000000E+48
(PID.TID 0000.0001)     ;
(PID.TID 0000.0001) GM_taper_scheme =  /* Type of Tapering/Clipping scheme */
(PID.TID 0000.0001)               'fm07                                    '
(PID.TID 0000.0001)     ;
(PID.TID 0000.0001) GM_maxSlope =  /* Maximum Slope (Tapering/Clipping) */
(PID.TID 0000.0001)                 1.000000000000000E-02
(PID.TID 0000.0001)     ;
(PID.TID 0000.0001) GM_facTrL2dz = /* Minimum Trans.Layer Thick. (factor of dz) */
(PID.TID 0000.0001)                 0.000000000000000E+00
(PID.TID 0000.0001)     ;
(PID.TID 0000.0001) GM_facTrL2ML = /* Max.Trans.Layer Thick. (factor of MxL Depth)*/
(PID.TID 0000.0001)                 5.000000000000000E+00
(PID.TID 0000.0001)     ;
(PID.TID 0000.0001) GM_maxTransLay = /* Maximum Transition Layer Thickness [m] */
(PID.TID 0000.0001)                 5.000000000000000E+02
(PID.TID 0000.0001)     ;
(PID.TID 0000.0001) GM_UseBVP = /* if TRUE => use bvp a la Ferrari et al. (2010) */
(PID.TID 0000.0001)                   F
(PID.TID 0000.0001)     ;
(PID.TID 0000.0001) GM_BVP_ModeNumber = /* Vertical mode number for BVP wave speed */
(PID.TID 0000.0001)                       1
(PID.TID 0000.0001)     ;
(PID.TID 0000.0001) GM_BVP_cMin = /* Minimum wave speed for BVP [m/s] */
(PID.TID 0000.0001)                 1.000000000000000E-01
(PID.TID 0000.0001)     ;
(PID.TID 0000.0001) GM_useSubMeso = /* if TRUE => use Sub-Meso param. (B.Fox-Kemper) */
(PID.TID 0000.0001)                   F
(PID.TID 0000.0001)     ;
(PID.TID 0000.0001) subMeso_Ceff = /* efficiency coeff. of Mixed-Layer Eddies [-] */
(PID.TID 0000.0001)                 7.000000000000001E-02
(PID.TID 0000.0001)     ;
(PID.TID 0000.0001) subMeso_invTau = /* inverse of Sub-Meso mixing time-scale [/s] */
(PID.TID 0000.0001)                 2.000000000000000E-06
(PID.TID 0000.0001)     ;
(PID.TID 0000.0001) subMeso_LfMin = /* minimum length-scale "Lf" [m] */
(PID.TID 0000.0001)                 1.000000000000000E+03
(PID.TID 0000.0001)     ;
(PID.TID 0000.0001) subMeso_Lmax = /* maximum grid-scale length [m] */
(PID.TID 0000.0001)                 1.100000000000000E+05
(PID.TID 0000.0001)     ;
(PID.TID 0000.0001) GAD_CHECK: #define ALLOW_GENERIC_ADVDIFF
(PID.TID 0000.0001) // =======================================================
(PID.TID 0000.0001) // Check Model config. (CONFIG_CHECK):
(PID.TID 0000.0001) // CONFIG_CHECK : Normal End
(PID.TID 0000.0001) // =======================================================
(PID.TID 0000.0001) 
(PID.TID 0000.0001)  MDS_READ_FIELD: opening global file: u_ini.bin
(PID.TID 0000.0001)  MDS_READ_FIELD: opening global file: t_ini.bin
(PID.TID 0000.0001)  MDS_READ_FIELD: opening global file: s_ini.bin
(PID.TID 0000.0001) Start initial hydrostatic pressure computation
(PID.TID 0000.0001) Pressure is predetermined for buoyancyRelation OCEANIC
(PID.TID 0000.0001) 
(PID.TID 0000.0001)  write diagnostics summary to file ioUnit:      6
Iter.Nb:         0 ; Time(s):  0.0000000000000E+00
------------------------------------------------------------------------
2D/3D diagnostics: Number of lists:     2
------------------------------------------------------------------------
listId=    1 ; file name: surfDiag
 nFlds, nActive,       freq     &     phase        , nLev               
    9  |    9  |    -86400.000000         0.000000 |   1
 levels:   1
 diag# | name   |   ipt  |  iMate | kLev|   count |   mate.C|           
    23 |ETAN    |      1 |      0 |   1 |       0 |
    24 |ETANSQ  |      2 |      0 |   1 |       0 |
    25 |DETADT2 |      3 |      0 |   1 |       0 |
    73 |PHIBOT  |      4 |      0 |   1 |       0 |
    74 |PHIBOTSQ|      5 |      0 |   1 |       0 |
    76 |MXLDEPTH|      6 |      0 |   1 |       0 |
   190 |GM_hTrsL|      7 |      0 |   1 |       0 |
   191 |GM_baseS|      8 |      0 |   1 |       0 |
   192 |GM_rLamb|      9 |      0 |   1 |       0 |
------------------------------------------------------------------------
listId=    2 ; file name: oceDiag
 nFlds, nActive,       freq     &     phase        , nLev               
    6  |    6  |   -864000.000000         0.000000 |  25
 levels:   1   2   3   4   5   6   7   8   9  10  11  12  13  14  15  16  17  18  19  20  21  22  23  24  25
 diag# | name   |   ipt  |  iMate | kLev|   count |   mate.C|           
    77 |DRHODR  |     10 |      0 |  25 |       0 |
    64 |RHOAnoma|     35 |      0 |  25 |       0 |
   201 |GM_Kwy  |     60 |      0 |  25 |       0 |
   202 |GM_Kwz  |     85 |      0 |  25 |       0 |
   197 |GM_Kvy  |    110 |      0 |  25 |       0 |
    26 |THETA   |    135 |      0 |  25 |       0 |
------------------------------------------------------------------------
Global & Regional Statistics diagnostics: Number of lists:     1
------------------------------------------------------------------------
listId=   1 ; file name: dynStDiag
 nFlds, nActive,       freq     &     phase        |                    
   12  |   12  |      3600.000000         0.000000 |
 Regions:   0
 diag# | name   |   ipt  |  iMate |    Volume   |   mate-Vol. |         
    23 |ETAN    |      1 |      0 | 0.00000E+00 |
    30 |UVEL    |      2 |      0 | 0.00000E+00 |
    31 |VVEL    |     27 |      0 | 0.00000E+00 |
    32 |WVEL    |     52 |      0 | 0.00000E+00 |
    26 |THETA   |     77 |      0 | 0.00000E+00 |
    76 |MXLDEPTH|    102 |      0 | 0.00000E+00 |
   190 |GM_hTrsL|    103 |      0 | 0.00000E+00 |
   191 |GM_baseS|    104 |      0 | 0.00000E+00 |
   192 |GM_rLamb|    105 |      0 | 0.00000E+00 |
   201 |GM_Kwy  |    106 |      0 | 0.00000E+00 |
   202 |GM_Kwz  |    131 |      0 | 0.00000E+00 |
   197 |GM_Kvy  |    156 |      0 | 0.00000E+00 |
------------------------------------------------------------------------
(PID.TID 0000.0001) // =======================================================
(PID.TID 0000.0001) // Model current state
(PID.TID 0000.0001) // =======================================================
(PID.TID 0000.0001) 
(PID.TID 0000.0001) // =======================================================
(PID.TID 0000.0001) // Begin MONITOR dynamic field statistics
(PID.TID 0000.0001) // =======================================================
(PID.TID 0000.0001) %MON time_tsnumber                =                     0
(PID.TID 0000.0001) %MON time_secondsf                =   0.0000000000000E+00
(PID.TID 0000.0001) %MON dynstat_eta_max              =   0.0000000000000E+00
(PID.TID 0000.0001) %MON dynstat_eta_min              =   0.0000000000000E+00
(PID.TID 0000.0001) %MON dynstat_eta_mean             =   0.0000000000000E+00
(PID.TID 0000.0001) %MON dynstat_eta_sd               =   0.0000000000000E+00
(PID.TID 0000.0001) %MON dynstat_eta_del2             =   0.0000000000000E+00
(PID.TID 0000.0001) %MON dynstat_uvel_max             =   1.2708890949034E-01
(PID.TID 0000.0001) %MON dynstat_uvel_min             =  -1.2708890949034E-01
(PID.TID 0000.0001) %MON dynstat_uvel_mean            =   8.1380208333333E-19
(PID.TID 0000.0001) %MON dynstat_uvel_sd              =   1.8732858558569E-02
(PID.TID 0000.0001) %MON dynstat_uvel_del2            =   4.8892991590669E-04
(PID.TID 0000.0001) %MON dynstat_vvel_max             =   0.0000000000000E+00
(PID.TID 0000.0001) %MON dynstat_vvel_min             =   0.0000000000000E+00
(PID.TID 0000.0001) %MON dynstat_vvel_mean            =   0.0000000000000E+00
(PID.TID 0000.0001) %MON dynstat_vvel_sd              =   0.0000000000000E+00
(PID.TID 0000.0001) %MON dynstat_vvel_del2            =   0.0000000000000E+00
(PID.TID 0000.0001) %MON dynstat_wvel_max             =  -0.0000000000000E+00
(PID.TID 0000.0001) %MON dynstat_wvel_min             =  -0.0000000000000E+00
(PID.TID 0000.0001) %MON dynstat_wvel_mean            =   0.0000000000000E+00
(PID.TID 0000.0001) %MON dynstat_wvel_sd              =   0.0000000000000E+00
(PID.TID 0000.0001) %MON dynstat_wvel_del2            =   0.0000000000000E+00
(PID.TID 0000.0001) %MON dynstat_theta_max            =   1.3324548570971E+01
(PID.TID 0000.0001) %MON dynstat_theta_min            =   6.2538226645252E+00
(PID.TID 0000.0001) %MON dynstat_theta_mean           =   8.1665548524383E+00
(PID.TID 0000.0001) %MON dynstat_theta_sd             =   1.4811659182317E+00
(PID.TID 0000.0001) %MON dynstat_theta_del2           =   7.1811685291909E-03
(PID.TID 0000.0001) %MON dynstat_salt_max             =   1.1996530790116E+01
(PID.TID 0000.0001) %MON dynstat_salt_min             =   1.0464440295541E+01
(PID.TID 0000.0001) %MON dynstat_salt_mean            =   1.1308880902317E+01
(PID.TID 0000.0001) %MON dynstat_salt_sd              =   5.1713804933892E-01
(PID.TID 0000.0001) %MON dynstat_salt_del2            =   5.5414110304355E-04
(PID.TID 0000.0001) %MON advcfl_uvel_max              =   4.5752007416521E-03
(PID.TID 0000.0001) %MON advcfl_vvel_max              =   0.0000000000000E+00
(PID.TID 0000.0001) %MON advcfl_wvel_max              =   0.0000000000000E+00
(PID.TID 0000.0001) %MON advcfl_W_hf_max              =   0.0000000000000E+00
(PID.TID 0000.0001) %MON pe_b_mean                    =   0.0000000000000E+00
(PID.TID 0000.0001) %MON ke_max                       =   8.0757954577213E-03
(PID.TID 0000.0001) %MON ke_mean                      =   1.7545999488767E-04
(PID.TID 0000.0001) %MON ke_vol                       =   6.0000000000000E+14
(PID.TID 0000.0001) // =======================================================
(PID.TID 0000.0001) // End MONITOR dynamic field statistics
(PID.TID 0000.0001) // =======================================================
(PID.TID 0000.0001) SOLVE_FOR_PRESSURE: putPmEinXvector =    F
 cg2d: Sum(rhs),rhsMax =  -6.60556949850372E-16  9.05542891235334E-01
(PID.TID 0000.0001)      cg2d_init_res =   1.92114379558740E+00
(PID.TID 0000.0001)      cg2d_iters(min,last) =      -1      15
(PID.TID 0000.0001)      cg2d_last_res =   1.32089610709408E-16
(PID.TID 0000.0001) // =======================================================
(PID.TID 0000.0001) // Begin MONITOR dynamic field statistics
(PID.TID 0000.0001) // =======================================================
(PID.TID 0000.0001) %MON time_tsnumber                =                     1
(PID.TID 0000.0001) %MON time_secondsf                =   3.6000000000000E+03
(PID.TID 0000.0001) %MON dynstat_eta_max              =   2.8102382700775E-01
(PID.TID 0000.0001) %MON dynstat_eta_min              =  -7.5331928191978E-02
(PID.TID 0000.0001) %MON dynstat_eta_mean             =  -3.7988026936849E-17
(PID.TID 0000.0001) %MON dynstat_eta_sd               =   1.0162478024414E-01
(PID.TID 0000.0001) %MON dynstat_eta_del2             =   5.3482030573341E-03
(PID.TID 0000.0001) %MON dynstat_uvel_max             =   1.2708190064387E-01
(PID.TID 0000.0001) %MON dynstat_uvel_min             =  -1.2708190064387E-01
(PID.TID 0000.0001) %MON dynstat_uvel_mean            =  -1.2207031250000E-18
(PID.TID 0000.0001) %MON dynstat_uvel_sd              =   1.8732799796089E-02
(PID.TID 0000.0001) %MON dynstat_uvel_del2            =   4.8892753258811E-04
(PID.TID 0000.0001) %MON dynstat_vvel_max             =   8.5334190587776E-03
(PID.TID 0000.0001) %MON dynstat_vvel_min             =  -8.5334190587776E-03
(PID.TID 0000.0001) %MON dynstat_vvel_mean            =   4.2093211206897E-19
(PID.TID 0000.0001) %MON dynstat_vvel_sd              =   4.6381942777939E-03
(PID.TID 0000.0001) %MON dynstat_vvel_del2            =   3.5063107315323E-05
(PID.TID 0000.0001) %MON dynstat_wvel_max             =   7.8062174168822E-05
(PID.TID 0000.0001) %MON dynstat_wvel_min             =  -2.0925535608883E-05
(PID.TID 0000.0001) %MON dynstat_wvel_mean            =   1.5627635038899E-22
(PID.TID 0000.0001) %MON dynstat_wvel_sd              =   1.8659119105378E-05
(PID.TID 0000.0001) %MON dynstat_wvel_del2            =   3.2362137299156E-07
(PID.TID 0000.0001) %MON dynstat_theta_max            =   1.3324443999442E+01
(PID.TID 0000.0001) %MON dynstat_theta_min            =   6.2538231162048E+00
(PID.TID 0000.0001) %MON dynstat_theta_mean           =   8.1665548524383E+00
(PID.TID 0000.0001) %MON dynstat_theta_sd             =   1.4811621910841E+00
(PID.TID 0000.0001) %MON dynstat_theta_del2           =   7.1791093430775E-03
(PID.TID 0000.0001) %MON dynstat_salt_max             =   1.1996526739084E+01
(PID.TID 0000.0001) %MON dynstat_salt_min             =   1.0464476182046E+01
(PID.TID 0000.0001) %MON dynstat_salt_mean            =   1.1308880902317E+01
(PID.TID 0000.0001) %MON dynstat_salt_sd              =   5.1712952887114E-01
(PID.TID 0000.0001) %MON dynstat_salt_del2            =   5.5420208960740E-04
(PID.TID 0000.0001) %MON advcfl_uvel_max              =   4.5749484231792E-03
(PID.TID 0000.0001) %MON advcfl_vvel_max              =   3.0720308611599E-04
(PID.TID 0000.0001) %MON advcfl_wvel_max              =   2.8102382700776E-02
(PID.TID 0000.0001) %MON advcfl_W_hf_max              =   1.4026360064443E-02
(PID.TID 0000.0001) %MON pe_b_mean                    =   2.5328429091089E-05
(PID.TID 0000.0001) %MON ke_max                       =   8.0831981017101E-03
(PID.TID 0000.0001) %MON ke_mean                      =   1.8585676974348E-04
(PID.TID 0000.0001) %MON ke_vol                       =   6.0000000000000E+14
(PID.TID 0000.0001) // =======================================================
(PID.TID 0000.0001) // End MONITOR dynamic field statistics
(PID.TID 0000.0001) // =======================================================
 Computing Diagnostic #     23  ETAN         Counter:       1   Parms: SM      M1      
 Computing Diagnostic #     24  ETANSQ       Counter:       1   Parms: SM P    M1      
 Computing Diagnostic #     25  DETADT2      Counter:       1   Parms: SM      M1      
 Computing Diagnostic #     73  PHIBOT       Counter:       1   Parms: SM      M1      
 Computing Diagnostic #     74  PHIBOTSQ     Counter:       1   Parms: SM P    M1      
 Computing Diagnostic #     76  MXLDEPTH     Counter:       1   Parms: SM      M1      
 Computing Diagnostic #    190  GM_hTrsL     Counter:       1   Parms: SM P    M1      
 Computing Diagnostic #    191  GM_baseS     Counter:       1   Parms: SM P    M1      
 Computing Diagnostic #    192  GM_rLamb     Counter:       1   Parms: SM P    M1      
 Computing Diagnostic #     77  DRHODR       Counter:       1   Parms: SM      LR      
 Computing Diagnostic #     64  RHOAnoma     Counter:       1   Parms: SMR     MR      
 Computing Diagnostic #    201  GM_Kwy       Counter:       1   Parms: VM      LR      
           Vector  Mate for  GM_Kwy       Diagnostic #    200  GM_Kwx   not enabled
 Computing Diagnostic #    202  GM_Kwz       Counter:       1   Parms: WM P    LR      
 Computing Diagnostic #    197  GM_Kvy       Counter:       1   Parms: VV P    MR      
           Vector  Mate for  GM_Kvy       Diagnostic #    196  GM_Kux   not enabled
 Computing Diagnostic #     26  THETA        Counter:       1   Parms: SMR     MR      
 Compute Stats, Diag. #     23  ETAN      vol(   0 ): 3.000E+11  Parms: SM      M1      
 Compute Stats, Diag. #     30  UVEL      vol(   0 ): 6.000E+14  Parms: UUR     MR      
 Compute Stats, Diag. #     31  VVEL      vol(   0 ): 5.800E+14  Parms: VVR     MR      
 Compute Stats, Diag. #     32  WVEL      vol(   0 ): 5.513E+14  Parms: WM      LR      
 Compute Stats, Diag. #     26  THETA     vol(   0 ): 6.000E+14  Parms: SMR     MR      
 Compute Stats, Diag. #     76  MXLDEPTH  vol(   0 ): 3.000E+11  Parms: SM      M1      
 Compute Stats, Diag. #    190  GM_hTrsL  vol(   0 ): 3.000E+11  Parms: SM P    M1      
 Compute Stats, Diag. #    191  GM_baseS  vol(   0 ): 3.000E+11  Parms: SM P    M1      
 Compute Stats, Diag. #    192  GM_rLamb  vol(   0 ): 3.000E+11  Parms: SM P    M1      
 Compute Stats, Diag. #    201  GM_Kwy    vol(   0 ): 5.513E+14  Parms: VM      LR      
 Compute Stats, Diag. #    202  GM_Kwz    vol(   0 ): 5.513E+14  Parms: WM P    LR      
 Compute Stats, Diag. #    197  GM_Kvy    vol(   0 ): 5.800E+14  Parms: VV P    MR      
 cg2d: Sum(rhs),rhsMax =  -9.36750677027476E-17  1.12179532802381E+00
(PID.TID 0000.0001)      cg2d_init_res =   3.82036266750449E-01
(PID.TID 0000.0001)      cg2d_iters(min,last) =      -1      15
(PID.TID 0000.0001)      cg2d_last_res =   3.68706705120342E-17
(PID.TID 0000.0001) // =======================================================
(PID.TID 0000.0001) // Begin MONITOR dynamic field statistics
(PID.TID 0000.0001) // =======================================================
(PID.TID 0000.0001) %MON time_tsnumber                =                     2
(PID.TID 0000.0001) %MON time_secondsf                =   7.2000000000000E+03
(PID.TID 0000.0001) %MON dynstat_eta_max              =   4.0653464668882E-01
(PID.TID 0000.0001) %MON dynstat_eta_min              =  -9.3748181549399E-02
(PID.TID 0000.0001) %MON dynstat_eta_mean             =  -3.8146972656250E-18
(PID.TID 0000.0001) %MON dynstat_eta_sd               =   1.5538281689000E-01
(PID.TID 0000.0001) %MON dynstat_eta_del2             =   6.3109117331917E-03
(PID.TID 0000.0001) %MON dynstat_uvel_max             =   1.2504703486724E-01
(PID.TID 0000.0001) %MON dynstat_uvel_min             =  -1.2504703486724E-01
(PID.TID 0000.0001) %MON dynstat_uvel_mean            =   0.0000000000000E+00
(PID.TID 0000.0001) %MON dynstat_uvel_sd              =   1.7900592575445E-02
(PID.TID 0000.0001) %MON dynstat_uvel_del2            =   4.9295699295700E-04
(PID.TID 0000.0001) %MON dynstat_vvel_max             =   7.9138627244895E-03
(PID.TID 0000.0001) %MON dynstat_vvel_min             =  -7.9138627244896E-03
(PID.TID 0000.0001) %MON dynstat_vvel_mean            =   6.3139816810345E-19
(PID.TID 0000.0001) %MON dynstat_vvel_sd              =   3.9677819373220E-03
(PID.TID 0000.0001) %MON dynstat_vvel_del2            =   7.0040568971731E-05
(PID.TID 0000.0001) %MON dynstat_wvel_max             =   4.4819183176008E-05
(PID.TID 0000.0001) %MON dynstat_wvel_min             =  -1.4155183407920E-05
(PID.TID 0000.0001) %MON dynstat_wvel_mean            =   3.2268954512754E-22
(PID.TID 0000.0001) %MON dynstat_wvel_sd              =   1.2733979769228E-05
(PID.TID 0000.0001) %MON dynstat_wvel_del2            =   2.8764048671121E-07
(PID.TID 0000.0001) %MON dynstat_theta_max            =   1.3324325125702E+01
(PID.TID 0000.0001) %MON dynstat_theta_min            =   6.2538304895478E+00
(PID.TID 0000.0001) %MON dynstat_theta_mean           =   8.1664669921294E+00
(PID.TID 0000.0001) %MON dynstat_theta_sd             =   1.4809664639484E+00
(PID.TID 0000.0001) %MON dynstat_theta_del2           =   7.1726074010694E-03
(PID.TID 0000.0001) %MON dynstat_salt_max             =   1.1996522134688E+01
(PID.TID 0000.0001) %MON dynstat_salt_min             =   1.0464510912602E+01
(PID.TID 0000.0001) %MON dynstat_salt_mean            =   1.1308858911169E+01
(PID.TID 0000.0001) %MON dynstat_salt_sd              =   5.1711306025318E-01
(PID.TID 0000.0001) %MON dynstat_salt_del2            =   5.5426413753428E-04
(PID.TID 0000.0001) %MON advcfl_uvel_max              =   4.5016932552208E-03
(PID.TID 0000.0001) %MON advcfl_vvel_max              =   2.8489905808162E-04
(PID.TID 0000.0001) %MON advcfl_wvel_max              =   1.2551081968106E-02
(PID.TID 0000.0001) %MON advcfl_W_hf_max              =   7.5706868972311E-03
(PID.TID 0000.0001) %MON pe_b_mean                    =   5.9212718021909E-05
(PID.TID 0000.0001) %MON ke_max                       =   7.8316608854894E-03
(PID.TID 0000.0001) %MON ke_mean                      =   1.6782486580207E-04
(PID.TID 0000.0001) %MON ke_vol                       =   6.0000000000000E+14
(PID.TID 0000.0001) // =======================================================
(PID.TID 0000.0001) // End MONITOR dynamic field statistics
(PID.TID 0000.0001) // =======================================================
 Compute Stats, Diag. #     23  ETAN      vol(   0 ): 3.000E+11  Parms: SM      M1      
 Compute Stats, Diag. #     30  UVEL      vol(   0 ): 6.000E+14  Parms: UUR     MR      
 Compute Stats, Diag. #     31  VVEL      vol(   0 ): 5.800E+14  Parms: VVR     MR      
 Compute Stats, Diag. #     32  WVEL      vol(   0 ): 5.513E+14  Parms: WM      LR      
 Compute Stats, Diag. #     26  THETA     vol(   0 ): 6.000E+14  Parms: SMR     MR      
 Compute Stats, Diag. #     76  MXLDEPTH  vol(   0 ): 3.000E+11  Parms: SM      M1      
 Compute Stats, Diag. #    190  GM_hTrsL  vol(   0 ): 3.000E+11  Parms: SM P    M1      
 Compute Stats, Diag. #    191  GM_baseS  vol(   0 ): 3.000E+11  Parms: SM P    M1      
 Compute Stats, Diag. #    192  GM_rLamb  vol(   0 ): 3.000E+11  Parms: SM P    M1      
 Compute Stats, Diag. #    201  GM_Kwy    vol(   0 ): 5.513E+14  Parms: VM      LR      
 Compute Stats, Diag. #    202  GM_Kwz    vol(   0 ): 5.513E+14  Parms: WM P    LR      
 Compute Stats, Diag. #    197  GM_Kvy    vol(   0 ): 5.800E+14  Parms: VV P    MR      
 cg2d: Sum(rhs),rhsMax =  -1.15879528195251E-15  1.07520684857436E+00
(PID.TID 0000.0001)      cg2d_init_res =   1.41799479570466E-01
(PID.TID 0000.0001)      cg2d_iters(min,last) =      -1      15
(PID.TID 0000.0001)      cg2d_last_res =   8.71637288391470E-17
(PID.TID 0000.0001) // =======================================================
(PID.TID 0000.0001) // Begin MONITOR dynamic field statistics
(PID.TID 0000.0001) // =======================================================
(PID.TID 0000.0001) %MON time_tsnumber                =                     3
(PID.TID 0000.0001) %MON time_secondsf                =   1.0800000000000E+04
(PID.TID 0000.0001) %MON dynstat_eta_max              =   4.1012816991403E-01
(PID.TID 0000.0001) %MON dynstat_eta_min              =  -1.0677113764439E-01
(PID.TID 0000.0001) %MON dynstat_eta_mean             =  -1.8310546875000E-16
(PID.TID 0000.0001) %MON dynstat_eta_sd               =   1.6135662211754E-01
(PID.TID 0000.0001) %MON dynstat_eta_del2             =   5.9339056630014E-03
(PID.TID 0000.0001) %MON dynstat_uvel_max             =   1.2787501688815E-01
(PID.TID 0000.0001) %MON dynstat_uvel_min             =  -1.2787501688815E-01
(PID.TID 0000.0001) %MON dynstat_uvel_mean            =   6.1035156250000E-19
(PID.TID 0000.0001) %MON dynstat_uvel_sd              =   1.8210501491014E-02
(PID.TID 0000.0001) %MON dynstat_uvel_del2            =   5.1665178694667E-04
(PID.TID 0000.0001) %MON dynstat_vvel_max             =   1.4232240656963E-02
(PID.TID 0000.0001) %MON dynstat_vvel_min             =  -1.4232240656963E-02
(PID.TID 0000.0001) %MON dynstat_vvel_mean            =   3.6831559806034E-19
(PID.TID 0000.0001) %MON dynstat_vvel_sd              =   2.0771996267234E-03
(PID.TID 0000.0001) %MON dynstat_vvel_del2            =   9.8807976940931E-05
(PID.TID 0000.0001) %MON dynstat_wvel_max             =   2.6707913764955E-05
(PID.TID 0000.0001) %MON dynstat_wvel_min             =  -2.2712318000489E-05
(PID.TID 0000.0001) %MON dynstat_wvel_mean            =   1.7739477611723E-22
(PID.TID 0000.0001) %MON dynstat_wvel_sd              =   9.0459113508295E-06
(PID.TID 0000.0001) %MON dynstat_wvel_del2            =   3.8165132157083E-07
(PID.TID 0000.0001) %MON dynstat_theta_max            =   1.3324320746026E+01
(PID.TID 0000.0001) %MON dynstat_theta_min            =   6.2538406036363E+00
(PID.TID 0000.0001) %MON dynstat_theta_mean           =   8.1664498277840E+00
(PID.TID 0000.0001) %MON dynstat_theta_sd             =   1.4809309700494E+00
(PID.TID 0000.0001) %MON dynstat_theta_del2           =   7.1693981507097E-03
(PID.TID 0000.0001) %MON dynstat_salt_max             =   1.1996521966429E+01
(PID.TID 0000.0001) %MON dynstat_salt_min             =   1.0464545159968E+01
(PID.TID 0000.0001) %MON dynstat_salt_mean            =   1.1308845576741E+01
(PID.TID 0000.0001) %MON dynstat_salt_sd              =   5.1710518975847E-01
(PID.TID 0000.0001) %MON dynstat_salt_del2            =   5.5434218146650E-04
(PID.TID 0000.0001) %MON advcfl_uvel_max              =   4.6035006079733E-03
(PID.TID 0000.0001) %MON advcfl_vvel_max              =   5.1236066365066E-04
(PID.TID 0000.0001) %MON advcfl_wvel_max              =   2.7277074324967E-03
(PID.TID 0000.0001) %MON advcfl_W_hf_max              =   2.7398721641538E-03
(PID.TID 0000.0001) %MON pe_b_mean                    =   6.3853190676647E-05
(PID.TID 0000.0001) %MON ke_max                       =   8.2338483493598E-03
(PID.TID 0000.0001) %MON ke_mean                      =   1.6789664878358E-04
(PID.TID 0000.0001) %MON ke_vol                       =   6.0000000000000E+14
(PID.TID 0000.0001) // =======================================================
(PID.TID 0000.0001) // End MONITOR dynamic field statistics
(PID.TID 0000.0001) // =======================================================
 Compute Stats, Diag. #     23  ETAN      vol(   0 ): 3.000E+11  Parms: SM      M1      
 Compute Stats, Diag. #     30  UVEL      vol(   0 ): 6.000E+14  Parms: UUR     MR      
 Compute Stats, Diag. #     31  VVEL      vol(   0 ): 5.800E+14  Parms: VVR     MR      
 Compute Stats, Diag. #     32  WVEL      vol(   0 ): 5.513E+14  Parms: WM      LR      
 Compute Stats, Diag. #     26  THETA     vol(   0 ): 6.000E+14  Parms: SMR     MR      
 Compute Stats, Diag. #     76  MXLDEPTH  vol(   0 ): 3.000E+11  Parms: SM      M1      
 Compute Stats, Diag. #    190  GM_hTrsL  vol(   0 ): 3.000E+11  Parms: SM P    M1      
 Compute Stats, Diag. #    191  GM_baseS  vol(   0 ): 3.000E+11  Parms: SM P    M1      
 Compute Stats, Diag. #    192  GM_rLamb  vol(   0 ): 3.000E+11  Parms: SM P    M1      
 Compute Stats, Diag. #    201  GM_Kwy    vol(   0 ): 5.513E+14  Parms: VM      LR      
 Compute Stats, Diag. #    202  GM_Kwz    vol(   0 ): 5.513E+14  Parms: WM P    LR      
 Compute Stats, Diag. #    197  GM_Kvy    vol(   0 ): 5.800E+14  Parms: VV P    MR      
 cg2d: Sum(rhs),rhsMax =   2.40779618465581E-15  1.03919117073500E+00
(PID.TID 0000.0001)      cg2d_init_res =   8.43429927712326E-02
(PID.TID 0000.0001)      cg2d_iters(min,last) =      -1      15
(PID.TID 0000.0001)      cg2d_last_res =   6.91300128771056E-17
(PID.TID 0000.0001) // =======================================================
(PID.TID 0000.0001) // Begin MONITOR dynamic field statistics
(PID.TID 0000.0001) // =======================================================
(PID.TID 0000.0001) %MON time_tsnumber                =                     4
(PID.TID 0000.0001) %MON time_secondsf                =   1.4400000000000E+04
(PID.TID 0000.0001) %MON dynstat_eta_max              =   3.8317610875508E-01
(PID.TID 0000.0001) %MON dynstat_eta_min              =  -9.5532621595798E-02
(PID.TID 0000.0001) %MON dynstat_eta_mean             =   3.1153361002604E-17
(PID.TID 0000.0001) %MON dynstat_eta_sd               =   1.4829345943690E-01
(PID.TID 0000.0001) %MON dynstat_eta_del2             =   5.8023559205426E-03
(PID.TID 0000.0001) %MON dynstat_uvel_max             =   1.3273489823508E-01
(PID.TID 0000.0001) %MON dynstat_uvel_min             =  -1.3273489823508E-01
(PID.TID 0000.0001) %MON dynstat_uvel_mean            =  -4.0690104166667E-19
(PID.TID 0000.0001) %MON dynstat_uvel_sd              =   1.8819944201237E-02
(PID.TID 0000.0001) %MON dynstat_uvel_del2            =   5.4513021373495E-04
(PID.TID 0000.0001) %MON dynstat_vvel_max             =   1.7331379929268E-02
(PID.TID 0000.0001) %MON dynstat_vvel_min             =  -1.7331379929268E-02
(PID.TID 0000.0001) %MON dynstat_vvel_mean            =   1.2101798221983E-18
(PID.TID 0000.0001) %MON dynstat_vvel_sd              =   2.2207264501331E-03
(PID.TID 0000.0001) %MON dynstat_vvel_del2            =   1.1679600222410E-04
(PID.TID 0000.0001) %MON dynstat_wvel_max             =   2.4260775661835E-05
(PID.TID 0000.0001) %MON dynstat_wvel_min             =  -3.4026499008840E-05
(PID.TID 0000.0001) %MON dynstat_wvel_mean            =  -1.1446186744707E-22
(PID.TID 0000.0001) %MON dynstat_wvel_sd              =   1.0564624818726E-05
(PID.TID 0000.0001) %MON dynstat_wvel_del2            =   4.7027956777412E-07
(PID.TID 0000.0001) %MON dynstat_theta_max            =   1.3324353709598E+01
(PID.TID 0000.0001) %MON dynstat_theta_min            =   6.2538420922582E+00
(PID.TID 0000.0001) %MON dynstat_theta_mean           =   8.1664636114150E+00
(PID.TID 0000.0001) %MON dynstat_theta_sd             =   1.4809574825676E+00
(PID.TID 0000.0001) %MON dynstat_theta_del2           =   7.1656712115003E-03
(PID.TID 0000.0001) %MON dynstat_salt_max             =   1.1996523246319E+01
(PID.TID 0000.0001) %MON dynstat_salt_min             =   1.0464580670582E+01
(PID.TID 0000.0001) %MON dynstat_salt_mean            =   1.1308847232267E+01
(PID.TID 0000.0001) %MON dynstat_salt_sd              =   5.1709891535956E-01
(PID.TID 0000.0001) %MON dynstat_salt_del2            =   5.5441196355666E-04
(PID.TID 0000.0001) %MON advcfl_uvel_max              =   4.7784563364627E-03
(PID.TID 0000.0001) %MON advcfl_vvel_max              =   6.2392967745366E-04
(PID.TID 0000.0001) %MON advcfl_wvel_max              =   3.7161734925990E-03
(PID.TID 0000.0001) %MON advcfl_W_hf_max              =   3.9503564573648E-03
(PID.TID 0000.0001) %MON pe_b_mean                    =   5.3932805149103E-05
(PID.TID 0000.0001) %MON ke_max                       =   8.8977535378789E-03
(PID.TID 0000.0001) %MON ke_mean                      =   1.7947876908589E-04
(PID.TID 0000.0001) %MON ke_vol                       =   6.0000000000000E+14
(PID.TID 0000.0001) // =======================================================
(PID.TID 0000.0001) // End MONITOR dynamic field statistics
(PID.TID 0000.0001) // =======================================================
 Compute Stats, Diag. #     23  ETAN      vol(   0 ): 3.000E+11  Parms: SM      M1      
 Compute Stats, Diag. #     30  UVEL      vol(   0 ): 6.000E+14  Parms: UUR     MR      
 Compute Stats, Diag. #     31  VVEL      vol(   0 ): 5.800E+14  Parms: VVR     MR      
 Compute Stats, Diag. #     32  WVEL      vol(   0 ): 5.513E+14  Parms: WM      LR      
 Compute Stats, Diag. #     26  THETA     vol(   0 ): 6.000E+14  Parms: SMR     MR      
 Compute Stats, Diag. #     76  MXLDEPTH  vol(   0 ): 3.000E+11  Parms: SM      M1      
 Compute Stats, Diag. #    190  GM_hTrsL  vol(   0 ): 3.000E+11  Parms: SM P    M1      
 Compute Stats, Diag. #    191  GM_baseS  vol(   0 ): 3.000E+11  Parms: SM P    M1      
 Compute Stats, Diag. #    192  GM_rLamb  vol(   0 ): 3.000E+11  Parms: SM P    M1      
 Compute Stats, Diag. #    201  GM_Kwy    vol(   0 ): 5.513E+14  Parms: VM      LR      
 Compute Stats, Diag. #    202  GM_Kwz    vol(   0 ): 5.513E+14  Parms: WM P    LR      
 Compute Stats, Diag. #    197  GM_Kvy    vol(   0 ): 5.800E+14  Parms: VV P    MR      
 cg2d: Sum(rhs),rhsMax =   1.52655665885959E-16  1.02285033557899E+00
(PID.TID 0000.0001)      cg2d_init_res =   7.28675102912141E-02
(PID.TID 0000.0001)      cg2d_iters(min,last) =      -1      15
(PID.TID 0000.0001)      cg2d_last_res =   7.59896174988623E-17
(PID.TID 0000.0001) // =======================================================
(PID.TID 0000.0001) // Begin MONITOR dynamic field statistics
(PID.TID 0000.0001) // =======================================================
(PID.TID 0000.0001) %MON time_tsnumber                =                     5
(PID.TID 0000.0001) %MON time_secondsf                =   1.8000000000000E+04
(PID.TID 0000.0001) %MON dynstat_eta_max              =   3.6056092622183E-01
(PID.TID 0000.0001) %MON dynstat_eta_min              =  -7.8067070472791E-02
(PID.TID 0000.0001) %MON dynstat_eta_mean             =   1.0712941487630E-16
(PID.TID 0000.0001) %MON dynstat_eta_sd               =   1.3624652251739E-01
(PID.TID 0000.0001) %MON dynstat_eta_del2             =   5.8015228827910E-03
(PID.TID 0000.0001) %MON dynstat_uvel_max             =   1.3771824232108E-01
(PID.TID 0000.0001) %MON dynstat_uvel_min             =  -1.3771824232108E-01
(PID.TID 0000.0001) %MON dynstat_uvel_mean            =   4.0690104166667E-19
(PID.TID 0000.0001) %MON dynstat_uvel_sd              =   1.9399391056754E-02
(PID.TID 0000.0001) %MON dynstat_uvel_del2            =   5.7464229829819E-04
(PID.TID 0000.0001) %MON dynstat_vvel_max             =   1.7637422831865E-02
(PID.TID 0000.0001) %MON dynstat_vvel_min             =  -1.7637422831865E-02
(PID.TID 0000.0001) %MON dynstat_vvel_mean            =   1.5784954202586E-18
(PID.TID 0000.0001) %MON dynstat_vvel_sd              =   2.3329413596606E-03
(PID.TID 0000.0001) %MON dynstat_vvel_del2            =   1.2526747229540E-04
(PID.TID 0000.0001) %MON dynstat_wvel_max             =   2.4082900528116E-05
(PID.TID 0000.0001) %MON dynstat_wvel_min             =  -3.6203355880728E-05
(PID.TID 0000.0001) %MON dynstat_wvel_mean            =   1.8415267235027E-22
(PID.TID 0000.0001) %MON dynstat_wvel_sd              =   1.1126307949542E-05
(PID.TID 0000.0001) %MON dynstat_wvel_del2            =   5.2401938751257E-07
(PID.TID 0000.0001) %MON dynstat_theta_max            =   1.3324384932304E+01
(PID.TID 0000.0001) %MON dynstat_theta_min            =   6.2538377715164E+00
(PID.TID 0000.0001) %MON dynstat_theta_mean           =   8.1664768455711E+00
(PID.TID 0000.0001) %MON dynstat_theta_sd             =   1.4809803240319E+00
(PID.TID 0000.0001) %MON dynstat_theta_del2           =   7.1613325870134E-03
(PID.TID 0000.0001) %MON dynstat_salt_max             =   1.1996524461229E+01
(PID.TID 0000.0001) %MON dynstat_salt_min             =   1.0464617353253E+01
(PID.TID 0000.0001) %MON dynstat_salt_mean            =   1.1308854757789E+01
(PID.TID 0000.0001) %MON dynstat_salt_sd              =   5.1709044249734E-01
(PID.TID 0000.0001) %MON dynstat_salt_del2            =   5.5447103230387E-04
(PID.TID 0000.0001) %MON advcfl_uvel_max              =   4.9578567235589E-03
(PID.TID 0000.0001) %MON advcfl_vvel_max              =   6.3494722194714E-04
(PID.TID 0000.0001) %MON advcfl_wvel_max              =   3.9469951260279E-03
(PID.TID 0000.0001) %MON advcfl_W_hf_max              =   4.1979513902402E-03
(PID.TID 0000.0001) %MON pe_b_mean                    =   4.5526039287545E-05
(PID.TID 0000.0001) %MON ke_max                       =   9.5728188314400E-03
(PID.TID 0000.0001) %MON ke_mean                      =   1.9079878412377E-04
(PID.TID 0000.0001) %MON ke_vol                       =   6.0000000000000E+14
(PID.TID 0000.0001) // =======================================================
(PID.TID 0000.0001) // End MONITOR dynamic field statistics
(PID.TID 0000.0001) // =======================================================
 Compute Stats, Diag. #     23  ETAN      vol(   0 ): 3.000E+11  Parms: SM      M1      
 Compute Stats, Diag. #     30  UVEL      vol(   0 ): 6.000E+14  Parms: UUR     MR      
 Compute Stats, Diag. #     31  VVEL      vol(   0 ): 5.800E+14  Parms: VVR     MR      
 Compute Stats, Diag. #     32  WVEL      vol(   0 ): 5.513E+14  Parms: WM      LR      
 Compute Stats, Diag. #     26  THETA     vol(   0 ): 6.000E+14  Parms: SMR     MR      
 Compute Stats, Diag. #     76  MXLDEPTH  vol(   0 ): 3.000E+11  Parms: SM      M1      
 Compute Stats, Diag. #    190  GM_hTrsL  vol(   0 ): 3.000E+11  Parms: SM P    M1      
 Compute Stats, Diag. #    191  GM_baseS  vol(   0 ): 3.000E+11  Parms: SM P    M1      
 Compute Stats, Diag. #    192  GM_rLamb  vol(   0 ): 3.000E+11  Parms: SM P    M1      
 Compute Stats, Diag. #    201  GM_Kwy    vol(   0 ): 5.513E+14  Parms: VM      LR      
 Compute Stats, Diag. #    202  GM_Kwz    vol(   0 ): 5.513E+14  Parms: WM P    LR      
 Compute Stats, Diag. #    197  GM_Kvy    vol(   0 ): 5.800E+14  Parms: VV P    MR      
 cg2d: Sum(rhs),rhsMax =  -8.30932544992891E-16  1.01689192443150E+00
(PID.TID 0000.0001)      cg2d_init_res =   3.28365626855995E-02
(PID.TID 0000.0001)      cg2d_iters(min,last) =      -1      15
(PID.TID 0000.0001)      cg2d_last_res =   1.72066833817095E-16
(PID.TID 0000.0001) // =======================================================
(PID.TID 0000.0001) // Begin MONITOR dynamic field statistics
(PID.TID 0000.0001) // =======================================================
(PID.TID 0000.0001) %MON time_tsnumber                =                     6
(PID.TID 0000.0001) %MON time_secondsf                =   2.1600000000000E+04
(PID.TID 0000.0001) %MON dynstat_eta_max              =   3.5184524891579E-01
(PID.TID 0000.0001) %MON dynstat_eta_min              =  -8.0093081219915E-02
(PID.TID 0000.0001) %MON dynstat_eta_mean             =   2.6861826578776E-16
(PID.TID 0000.0001) %MON dynstat_eta_sd               =   1.3186468442812E-01
(PID.TID 0000.0001) %MON dynstat_eta_del2             =   5.8029820392344E-03
(PID.TID 0000.0001) %MON dynstat_uvel_max             =   1.4212076733040E-01
(PID.TID 0000.0001) %MON dynstat_uvel_min             =  -1.4212076733040E-01
(PID.TID 0000.0001) %MON dynstat_uvel_mean            =   4.4759114583333E-18
(PID.TID 0000.0001) %MON dynstat_uvel_sd              =   1.9905412103087E-02
(PID.TID 0000.0001) %MON dynstat_uvel_del2            =   6.0322361178306E-04
(PID.TID 0000.0001) %MON dynstat_vvel_max             =   1.5855490654380E-02
(PID.TID 0000.0001) %MON dynstat_vvel_min             =  -1.5855490654380E-02
(PID.TID 0000.0001) %MON dynstat_vvel_mean            =   7.1032293911638E-19
(PID.TID 0000.0001) %MON dynstat_vvel_sd              =   1.8847504137134E-03
(PID.TID 0000.0001) %MON dynstat_vvel_del2            =   1.2443576194064E-04
(PID.TID 0000.0001) %MON dynstat_wvel_max             =   2.1734987164975E-05
(PID.TID 0000.0001) %MON dynstat_wvel_min             =  -3.3105009525147E-05
(PID.TID 0000.0001) %MON dynstat_wvel_mean            =  -8.6585545485793E-23
(PID.TID 0000.0001) %MON dynstat_wvel_sd              =   1.0102100566608E-05
(PID.TID 0000.0001) %MON dynstat_wvel_del2            =   5.4651180738072E-07
(PID.TID 0000.0001) %MON dynstat_theta_max            =   1.3324396764380E+01
(PID.TID 0000.0001) %MON dynstat_theta_min            =   6.2538339247735E+00
(PID.TID 0000.0001) %MON dynstat_theta_mean           =   8.1664832473586E+00
(PID.TID 0000.0001) %MON dynstat_theta_sd             =   1.4809892360146E+00
(PID.TID 0000.0001) %MON dynstat_theta_del2           =   7.1570807048217E-03
(PID.TID 0000.0001) %MON dynstat_salt_max             =   1.1996524929401E+01
(PID.TID 0000.0001) %MON dynstat_salt_min             =   1.0464653935318E+01
(PID.TID 0000.0001) %MON dynstat_salt_mean            =   1.1308859683650E+01
(PID.TID 0000.0001) %MON dynstat_salt_sd              =   5.1708130744388E-01
(PID.TID 0000.0001) %MON dynstat_salt_del2            =   5.5453061648648E-04
(PID.TID 0000.0001) %MON advcfl_uvel_max              =   5.1163476238943E-03
(PID.TID 0000.0001) %MON advcfl_vvel_max              =   5.7079766355770E-04
(PID.TID 0000.0001) %MON advcfl_wvel_max              =   3.3336927875020E-03
(PID.TID 0000.0001) %MON advcfl_W_hf_max              =   3.5857282777169E-03
(PID.TID 0000.0001) %MON pe_b_mean                    =   4.2644793485850E-05
(PID.TID 0000.0001) %MON ke_max                       =   1.0168594174243E-02
(PID.TID 0000.0001) %MON ke_mean                      =   1.9982965282249E-04
(PID.TID 0000.0001) %MON ke_vol                       =   6.0000000000000E+14
(PID.TID 0000.0001) // =======================================================
(PID.TID 0000.0001) // End MONITOR dynamic field statistics
(PID.TID 0000.0001) // =======================================================
 Compute Stats, Diag. #     23  ETAN      vol(   0 ): 3.000E+11  Parms: SM      M1      
 Compute Stats, Diag. #     30  UVEL      vol(   0 ): 6.000E+14  Parms: UUR     MR      
 Compute Stats, Diag. #     31  VVEL      vol(   0 ): 5.800E+14  Parms: VVR     MR      
 Compute Stats, Diag. #     32  WVEL      vol(   0 ): 5.513E+14  Parms: WM      LR      
 Compute Stats, Diag. #     26  THETA     vol(   0 ): 6.000E+14  Parms: SMR     MR      
 Compute Stats, Diag. #     76  MXLDEPTH  vol(   0 ): 3.000E+11  Parms: SM      M1      
 Compute Stats, Diag. #    190  GM_hTrsL  vol(   0 ): 3.000E+11  Parms: SM P    M1      
 Compute Stats, Diag. #    191  GM_baseS  vol(   0 ): 3.000E+11  Parms: SM P    M1      
 Compute Stats, Diag. #    192  GM_rLamb  vol(   0 ): 3.000E+11  Parms: SM P    M1      
 Compute Stats, Diag. #    201  GM_Kwy    vol(   0 ): 5.513E+14  Parms: VM      LR      
 Compute Stats, Diag. #    202  GM_Kwz    vol(   0 ): 5.513E+14  Parms: WM P    LR      
 Compute Stats, Diag. #    197  GM_Kvy    vol(   0 ): 5.800E+14  Parms: VV P    MR      
 cg2d: Sum(rhs),rhsMax =  -3.09127723419067E-15  1.01882151396242E+00
(PID.TID 0000.0001)      cg2d_init_res =   8.95910131177630E-03
(PID.TID 0000.0001)      cg2d_iters(min,last) =      -1      15
(PID.TID 0000.0001)      cg2d_last_res =   6.97425881814005E-17
(PID.TID 0000.0001) // =======================================================
(PID.TID 0000.0001) // Begin MONITOR dynamic field statistics
(PID.TID 0000.0001) // =======================================================
(PID.TID 0000.0001) %MON time_tsnumber                =                     7
(PID.TID 0000.0001) %MON time_secondsf                =   2.5200000000000E+04
(PID.TID 0000.0001) %MON dynstat_eta_max              =   3.5458034194848E-01
(PID.TID 0000.0001) %MON dynstat_eta_min              =  -7.9657736150512E-02
(PID.TID 0000.0001) %MON dynstat_eta_mean             =   7.3115030924479E-17
(PID.TID 0000.0001) %MON dynstat_eta_sd               =   1.3322059557204E-01
(PID.TID 0000.0001) %MON dynstat_eta_del2             =   5.8012407811238E-03
(PID.TID 0000.0001) %MON dynstat_uvel_max             =   1.4551064074135E-01
(PID.TID 0000.0001) %MON dynstat_uvel_min             =  -1.4551064074135E-01
(PID.TID 0000.0001) %MON dynstat_uvel_mean            =   2.4414062500000E-18
(PID.TID 0000.0001) %MON dynstat_uvel_sd              =   2.0277442990533E-02
(PID.TID 0000.0001) %MON dynstat_uvel_del2            =   6.2792781655829E-04
(PID.TID 0000.0001) %MON dynstat_vvel_max             =   1.2569550947188E-02
(PID.TID 0000.0001) %MON dynstat_vvel_min             =  -1.2569550947188E-02
(PID.TID 0000.0001) %MON dynstat_vvel_mean            =  -4.9130669955550E-18
(PID.TID 0000.0001) %MON dynstat_vvel_sd              =   1.4202403579499E-03
(PID.TID 0000.0001) %MON dynstat_vvel_del2            =   1.1619412872372E-04
(PID.TID 0000.0001) %MON dynstat_wvel_max             =   2.2506946018487E-05
(PID.TID 0000.0001) %MON dynstat_wvel_min             =  -2.7816557174064E-05
(PID.TID 0000.0001) %MON dynstat_wvel_mean            =   1.8795398898136E-22
(PID.TID 0000.0001) %MON dynstat_wvel_sd              =   8.4581929956821E-06
(PID.TID 0000.0001) %MON dynstat_wvel_del2            =   5.4279559165259E-07
(PID.TID 0000.0001) %MON dynstat_theta_max            =   1.3324374304583E+01
(PID.TID 0000.0001) %MON dynstat_theta_min            =   6.2538341065860E+00
(PID.TID 0000.0001) %MON dynstat_theta_mean           =   8.1664834220528E+00
(PID.TID 0000.0001) %MON dynstat_theta_sd             =   1.4809859660683E+00
(PID.TID 0000.0001) %MON dynstat_theta_del2           =   7.1532139043061E-03
(PID.TID 0000.0001) %MON dynstat_salt_max             =   1.1996524076156E+01
(PID.TID 0000.0001) %MON dynstat_salt_min             =   1.0464689852731E+01
(PID.TID 0000.0001) %MON dynstat_salt_mean            =   1.1308860059056E+01
(PID.TID 0000.0001) %MON dynstat_salt_sd              =   5.1707263501284E-01
(PID.TID 0000.0001) %MON dynstat_salt_del2            =   5.5459518304248E-04
(PID.TID 0000.0001) %MON advcfl_uvel_max              =   5.2383830666886E-03
(PID.TID 0000.0001) %MON advcfl_vvel_max              =   4.5250383409876E-04
(PID.TID 0000.0001) %MON advcfl_wvel_max              =   2.5697735057236E-03
(PID.TID 0000.0001) %MON advcfl_W_hf_max              =   2.8014138943396E-03
(PID.TID 0000.0001) %MON pe_b_mean                    =   4.3526300674908E-05
(PID.TID 0000.0001) %MON ke_max                       =   1.0628059396040E-02
(PID.TID 0000.0001) %MON ke_mean                      =   2.0656227040975E-04
(PID.TID 0000.0001) %MON ke_vol                       =   6.0000000000000E+14
(PID.TID 0000.0001) // =======================================================
(PID.TID 0000.0001) // End MONITOR dynamic field statistics
(PID.TID 0000.0001) // =======================================================
 Compute Stats, Diag. #     23  ETAN      vol(   0 ): 3.000E+11  Parms: SM      M1      
 Compute Stats, Diag. #     30  UVEL      vol(   0 ): 6.000E+14  Parms: UUR     MR      
 Compute Stats, Diag. #     31  VVEL      vol(   0 ): 5.800E+14  Parms: VVR     MR      
 Compute Stats, Diag. #     32  WVEL      vol(   0 ): 5.513E+14  Parms: WM      LR      
 Compute Stats, Diag. #     26  THETA     vol(   0 ): 6.000E+14  Parms: SMR     MR      
 Compute Stats, Diag. #     76  MXLDEPTH  vol(   0 ): 3.000E+11  Parms: SM      M1      
 Compute Stats, Diag. #    190  GM_hTrsL  vol(   0 ): 3.000E+11  Parms: SM P    M1      
 Compute Stats, Diag. #    191  GM_baseS  vol(   0 ): 3.000E+11  Parms: SM P    M1      
 Compute Stats, Diag. #    192  GM_rLamb  vol(   0 ): 3.000E+11  Parms: SM P    M1      
 Compute Stats, Diag. #    201  GM_Kwy    vol(   0 ): 5.513E+14  Parms: VM      LR      
 Compute Stats, Diag. #    202  GM_Kwz    vol(   0 ): 5.513E+14  Parms: WM P    LR      
 Compute Stats, Diag. #    197  GM_Kvy    vol(   0 ): 5.800E+14  Parms: VV P    MR      
 cg2d: Sum(rhs),rhsMax =  -6.24500451351651E-16  1.02365841217987E+00
(PID.TID 0000.0001)      cg2d_init_res =   2.02807474528428E-02
(PID.TID 0000.0001)      cg2d_iters(min,last) =      -1      15
(PID.TID 0000.0001)      cg2d_last_res =   7.70833434585713E-17
(PID.TID 0000.0001) // =======================================================
(PID.TID 0000.0001) // Begin MONITOR dynamic field statistics
(PID.TID 0000.0001) // =======================================================
(PID.TID 0000.0001) %MON time_tsnumber                =                     8
(PID.TID 0000.0001) %MON time_secondsf                =   2.8800000000000E+04
(PID.TID 0000.0001) %MON dynstat_eta_max              =   3.6084617568494E-01
(PID.TID 0000.0001) %MON dynstat_eta_min              =  -7.9381009794293E-02
(PID.TID 0000.0001) %MON dynstat_eta_mean             =   1.4654795328776E-16
(PID.TID 0000.0001) %MON dynstat_eta_sd               =   1.3635296429955E-01
(PID.TID 0000.0001) %MON dynstat_eta_del2             =   5.8018568314298E-03
(PID.TID 0000.0001) %MON dynstat_uvel_max             =   1.4764653539661E-01
(PID.TID 0000.0001) %MON dynstat_uvel_min             =  -1.4764653539661E-01
(PID.TID 0000.0001) %MON dynstat_uvel_mean            =   0.0000000000000E+00
(PID.TID 0000.0001) %MON dynstat_uvel_sd              =   2.0484886775217E-02
(PID.TID 0000.0001) %MON dynstat_uvel_del2            =   6.4613607641565E-04
(PID.TID 0000.0001) %MON dynstat_vvel_max             =   8.3430112446869E-03
(PID.TID 0000.0001) %MON dynstat_vvel_min             =  -8.3430112446868E-03
(PID.TID 0000.0001) %MON dynstat_vvel_mean            =  -1.2838429418103E-17
(PID.TID 0000.0001) %MON dynstat_vvel_sd              =   9.6647563313684E-04
(PID.TID 0000.0001) %MON dynstat_vvel_del2            =   1.0413206200431E-04
(PID.TID 0000.0001) %MON dynstat_wvel_max             =   2.0725427683712E-05
(PID.TID 0000.0001) %MON dynstat_wvel_min             =  -2.1840063017671E-05
(PID.TID 0000.0001) %MON dynstat_wvel_mean            =  -1.1066055081599E-22
(PID.TID 0000.0001) %MON dynstat_wvel_sd              =   6.5339917067495E-06
(PID.TID 0000.0001) %MON dynstat_wvel_del2            =   5.2002859338289E-07
(PID.TID 0000.0001) %MON dynstat_theta_max            =   1.3324307180544E+01
(PID.TID 0000.0001) %MON dynstat_theta_min            =   6.2538365717302E+00
(PID.TID 0000.0001) %MON dynstat_theta_mean           =   8.1664805664361E+00
(PID.TID 0000.0001) %MON dynstat_theta_sd             =   1.4809766470388E+00
(PID.TID 0000.0001) %MON dynstat_theta_del2           =   7.1499072879159E-03
(PID.TID 0000.0001) %MON dynstat_salt_max             =   1.1996521502476E+01
(PID.TID 0000.0001) %MON dynstat_salt_min             =   1.0464725322918E+01
(PID.TID 0000.0001) %MON dynstat_salt_mean            =   1.1308858169992E+01
(PID.TID 0000.0001) %MON dynstat_salt_sd              =   5.1706426115647E-01
(PID.TID 0000.0001) %MON dynstat_salt_del2            =   5.5466182811038E-04
(PID.TID 0000.0001) %MON advcfl_uvel_max              =   5.3152752742781E-03
(PID.TID 0000.0001) %MON advcfl_vvel_max              =   3.0034840480873E-04
(PID.TID 0000.0001) %MON advcfl_wvel_max              =   2.1720695091169E-03
(PID.TID 0000.0001) %MON advcfl_W_hf_max              =   2.3281072244774E-03
(PID.TID 0000.0001) %MON pe_b_mean                    =   4.5597200966704E-05
(PID.TID 0000.0001) %MON ke_max                       =   1.0917164358069E-02
(PID.TID 0000.0001) %MON ke_mean                      =   2.1026676275230E-04
(PID.TID 0000.0001) %MON ke_vol                       =   6.0000000000000E+14
(PID.TID 0000.0001) // =======================================================
(PID.TID 0000.0001) // End MONITOR dynamic field statistics
(PID.TID 0000.0001) // =======================================================
 Compute Stats, Diag. #     23  ETAN      vol(   0 ): 3.000E+11  Parms: SM      M1      
 Compute Stats, Diag. #     30  UVEL      vol(   0 ): 6.000E+14  Parms: UUR     MR      
 Compute Stats, Diag. #     31  VVEL      vol(   0 ): 5.800E+14  Parms: VVR     MR      
 Compute Stats, Diag. #     32  WVEL      vol(   0 ): 5.513E+14  Parms: WM      LR      
 Compute Stats, Diag. #     26  THETA     vol(   0 ): 6.000E+14  Parms: SMR     MR      
 Compute Stats, Diag. #     76  MXLDEPTH  vol(   0 ): 3.000E+11  Parms: SM      M1      
 Compute Stats, Diag. #    190  GM_hTrsL  vol(   0 ): 3.000E+11  Parms: SM P    M1      
 Compute Stats, Diag. #    191  GM_baseS  vol(   0 ): 3.000E+11  Parms: SM P    M1      
 Compute Stats, Diag. #    192  GM_rLamb  vol(   0 ): 3.000E+11  Parms: SM P    M1      
 Compute Stats, Diag. #    201  GM_Kwy    vol(   0 ): 5.513E+14  Parms: VM      LR      
 Compute Stats, Diag. #    202  GM_Kwz    vol(   0 ): 5.513E+14  Parms: WM P    LR      
 Compute Stats, Diag. #    197  GM_Kvy    vol(   0 ): 5.800E+14  Parms: VV P    MR      
 cg2d: Sum(rhs),rhsMax =  -1.46063716677247E-15  1.02689958060068E+00
(PID.TID 0000.0001)      cg2d_init_res =   1.19899438876912E-02
(PID.TID 0000.0001)      cg2d_iters(min,last) =      -1      15
(PID.TID 0000.0001)      cg2d_last_res =   8.36505579389645E-17
(PID.TID 0000.0001) // =======================================================
(PID.TID 0000.0001) // Begin MONITOR dynamic field statistics
(PID.TID 0000.0001) // =======================================================
(PID.TID 0000.0001) %MON time_tsnumber                =                     9
(PID.TID 0000.0001) %MON time_secondsf                =   3.2400000000000E+04
(PID.TID 0000.0001) %MON dynstat_eta_max              =   3.6460149647301E-01
(PID.TID 0000.0001) %MON dynstat_eta_min              =  -7.9336253781117E-02
(PID.TID 0000.0001) %MON dynstat_eta_mean             =   9.2506408691406E-17
(PID.TID 0000.0001) %MON dynstat_eta_sd               =   1.3825743290222E-01
(PID.TID 0000.0001) %MON dynstat_eta_del2             =   5.8029736714423E-03
(PID.TID 0000.0001) %MON dynstat_uvel_max             =   1.4845015432811E-01
(PID.TID 0000.0001) %MON dynstat_uvel_min             =  -1.4845015432811E-01
(PID.TID 0000.0001) %MON dynstat_uvel_mean            =  -1.0172526041667E-17
(PID.TID 0000.0001) %MON dynstat_uvel_sd              =   2.0522564828354E-02
(PID.TID 0000.0001) %MON dynstat_uvel_del2            =   6.5611893959226E-04
(PID.TID 0000.0001) %MON dynstat_vvel_max             =   3.8644183141890E-03
(PID.TID 0000.0001) %MON dynstat_vvel_min             =  -3.8644183141893E-03
(PID.TID 0000.0001) %MON dynstat_vvel_mean            =  -2.1756928542565E-17
(PID.TID 0000.0001) %MON dynstat_vvel_sd              =   6.1237492167293E-04
(PID.TID 0000.0001) %MON dynstat_vvel_del2            =   9.3105966411851E-05
(PID.TID 0000.0001) %MON dynstat_wvel_max             =   1.6945326847570E-05
(PID.TID 0000.0001) %MON dynstat_wvel_min             =  -1.5433740208915E-05
(PID.TID 0000.0001) %MON dynstat_wvel_mean            =   2.0273688699112E-23
(PID.TID 0000.0001) %MON dynstat_wvel_sd              =   5.0073607787115E-06
(PID.TID 0000.0001) %MON dynstat_wvel_del2            =   4.8727807501053E-07
(PID.TID 0000.0001) %MON dynstat_theta_max            =   1.3324190492867E+01
(PID.TID 0000.0001) %MON dynstat_theta_min            =   6.2538387929742E+00
(PID.TID 0000.0001) %MON dynstat_theta_mean           =   8.1664781014457E+00
(PID.TID 0000.0001) %MON dynstat_theta_sd             =   1.4809681013607E+00
(PID.TID 0000.0001) %MON dynstat_theta_del2           =   7.1472633277457E-03
(PID.TID 0000.0001) %MON dynstat_salt_max             =   1.1996517021154E+01
(PID.TID 0000.0001) %MON dynstat_salt_min             =   1.0464760820655E+01
(PID.TID 0000.0001) %MON dynstat_salt_mean            =   1.1308856562556E+01
(PID.TID 0000.0001) %MON dynstat_salt_sd              =   5.1705586300466E-01
(PID.TID 0000.0001) %MON dynstat_salt_del2            =   5.5472709318052E-04
(PID.TID 0000.0001) %MON advcfl_uvel_max              =   5.3442055558121E-03
(PID.TID 0000.0001) %MON advcfl_vvel_max              =   1.3911905931082E-04
(PID.TID 0000.0001) %MON advcfl_wvel_max              =   1.7881544188434E-03
(PID.TID 0000.0001) %MON advcfl_W_hf_max              =   1.9199576978309E-03
(PID.TID 0000.0001) %MON pe_b_mean                    =   4.6879826288524E-05
(PID.TID 0000.0001) %MON ke_max                       =   1.1023251725813E-02
(PID.TID 0000.0001) %MON ke_mean                      =   2.1076908503860E-04
(PID.TID 0000.0001) %MON ke_vol                       =   6.0000000000000E+14
(PID.TID 0000.0001) // =======================================================
(PID.TID 0000.0001) // End MONITOR dynamic field statistics
(PID.TID 0000.0001) // =======================================================
 Compute Stats, Diag. #     23  ETAN      vol(   0 ): 3.000E+11  Parms: SM      M1      
 Compute Stats, Diag. #     30  UVEL      vol(   0 ): 6.000E+14  Parms: UUR     MR      
 Compute Stats, Diag. #     31  VVEL      vol(   0 ): 5.800E+14  Parms: VVR     MR      
 Compute Stats, Diag. #     32  WVEL      vol(   0 ): 5.513E+14  Parms: WM      LR      
 Compute Stats, Diag. #     26  THETA     vol(   0 ): 6.000E+14  Parms: SMR     MR      
 Compute Stats, Diag. #     76  MXLDEPTH  vol(   0 ): 3.000E+11  Parms: SM      M1      
 Compute Stats, Diag. #    190  GM_hTrsL  vol(   0 ): 3.000E+11  Parms: SM P    M1      
 Compute Stats, Diag. #    191  GM_baseS  vol(   0 ): 3.000E+11  Parms: SM P    M1      
 Compute Stats, Diag. #    192  GM_rLamb  vol(   0 ): 3.000E+11  Parms: SM P    M1      
 Compute Stats, Diag. #    201  GM_Kwy    vol(   0 ): 5.513E+14  Parms: VM      LR      
 Compute Stats, Diag. #    202  GM_Kwz    vol(   0 ): 5.513E+14  Parms: WM P    LR      
 Compute Stats, Diag. #    197  GM_Kvy    vol(   0 ): 5.800E+14  Parms: VV P    MR      
 cg2d: Sum(rhs),rhsMax =  -1.61676227961038E-15  1.02754396538927E+00
(PID.TID 0000.0001)      cg2d_init_res =   2.25667808303019E-03
(PID.TID 0000.0001)      cg2d_iters(min,last) =      -1      15
(PID.TID 0000.0001)      cg2d_last_res =   1.05926120503123E-16
(PID.TID 0000.0001) // =======================================================
(PID.TID 0000.0001) // Begin MONITOR dynamic field statistics
(PID.TID 0000.0001) // =======================================================
(PID.TID 0000.0001) %MON time_tsnumber                =                    10
(PID.TID 0000.0001) %MON time_secondsf                =   3.6000000000000E+04
(PID.TID 0000.0001) %MON dynstat_eta_max              =   3.6473011347649E-01
(PID.TID 0000.0001) %MON dynstat_eta_min              =  -7.9362735603582E-02
(PID.TID 0000.0001) %MON dynstat_eta_mean             =  -4.9908955891927E-17
(PID.TID 0000.0001) %MON dynstat_eta_sd               =   1.3831166821216E-01
(PID.TID 0000.0001) %MON dynstat_eta_del2             =   5.8029021511024E-03
(PID.TID 0000.0001) %MON dynstat_uvel_max             =   1.4793701691572E-01
(PID.TID 0000.0001) %MON dynstat_uvel_min             =  -1.4793701691572E-01
(PID.TID 0000.0001) %MON dynstat_uvel_mean            =  -1.5869140625000E-17
(PID.TID 0000.0001) %MON dynstat_uvel_sd              =   2.0394501594622E-02
(PID.TID 0000.0001) %MON dynstat_uvel_del2            =   6.5716455770800E-04
(PID.TID 0000.0001) %MON dynstat_vvel_max             =   6.0933811489412E-03
(PID.TID 0000.0001) %MON dynstat_vvel_min             =  -6.0933811489417E-03
(PID.TID 0000.0001) %MON dynstat_vvel_mean            =  -1.8049314104278E-17
(PID.TID 0000.0001) %MON dynstat_vvel_sd              =   8.2363067055126E-04
(PID.TID 0000.0001) %MON dynstat_vvel_del2            =   8.7814385990060E-05
(PID.TID 0000.0001) %MON dynstat_wvel_max             =   1.3874107428868E-05
(PID.TID 0000.0001) %MON dynstat_wvel_min             =  -1.7331846249247E-05
(PID.TID 0000.0001) %MON dynstat_wvel_mean            =   3.4528626065676E-23
(PID.TID 0000.0001) %MON dynstat_wvel_sd              =   5.0571644682154E-06
(PID.TID 0000.0001) %MON dynstat_wvel_del2            =   4.5352541823370E-07
(PID.TID 0000.0001) %MON dynstat_theta_max            =   1.3324024198325E+01
(PID.TID 0000.0001) %MON dynstat_theta_min            =   6.2538399249669E+00
(PID.TID 0000.0001) %MON dynstat_theta_mean           =   8.1664774520735E+00
(PID.TID 0000.0001) %MON dynstat_theta_sd             =   1.4809631870762E+00
(PID.TID 0000.0001) %MON dynstat_theta_del2           =   7.1453173346595E-03
(PID.TID 0000.0001) %MON dynstat_salt_max             =   1.1996510632701E+01
(PID.TID 0000.0001) %MON dynstat_salt_min             =   1.0464796485502E+01
(PID.TID 0000.0001) %MON dynstat_salt_mean            =   1.1308856159888E+01
(PID.TID 0000.0001) %MON dynstat_salt_sd              =   5.1704736842669E-01
(PID.TID 0000.0001) %MON dynstat_salt_del2            =   5.5478989501084E-04
(PID.TID 0000.0001) %MON advcfl_uvel_max              =   5.3257326089659E-03
(PID.TID 0000.0001) %MON advcfl_vvel_max              =   2.1936172136190E-04
(PID.TID 0000.0001) %MON advcfl_wvel_max              =   1.6407629384405E-03
(PID.TID 0000.0001) %MON advcfl_W_hf_max              =   1.7803852609986E-03
(PID.TID 0000.0001) %MON pe_b_mean                    =   4.6916613324804E-05
(PID.TID 0000.0001) %MON ke_max                       =   1.0947657564712E-02
(PID.TID 0000.0001) %MON ke_mean                      =   2.0829572526256E-04
(PID.TID 0000.0001) %MON ke_vol                       =   6.0000000000000E+14
(PID.TID 0000.0001) // =======================================================
(PID.TID 0000.0001) // End MONITOR dynamic field statistics
(PID.TID 0000.0001) // =======================================================
 Compute Stats, Diag. #     23  ETAN      vol(   0 ): 3.000E+11  Parms: SM      M1      
 Compute Stats, Diag. #     30  UVEL      vol(   0 ): 6.000E+14  Parms: UUR     MR      
 Compute Stats, Diag. #     31  VVEL      vol(   0 ): 5.800E+14  Parms: VVR     MR      
 Compute Stats, Diag. #     32  WVEL      vol(   0 ): 5.513E+14  Parms: WM      LR      
 Compute Stats, Diag. #     26  THETA     vol(   0 ): 6.000E+14  Parms: SMR     MR      
 Compute Stats, Diag. #     76  MXLDEPTH  vol(   0 ): 3.000E+11  Parms: SM      M1      
 Compute Stats, Diag. #    190  GM_hTrsL  vol(   0 ): 3.000E+11  Parms: SM P    M1      
 Compute Stats, Diag. #    191  GM_baseS  vol(   0 ): 3.000E+11  Parms: SM P    M1      
 Compute Stats, Diag. #    192  GM_rLamb  vol(   0 ): 3.000E+11  Parms: SM P    M1      
 Compute Stats, Diag. #    201  GM_Kwy    vol(   0 ): 5.513E+14  Parms: VM      LR      
 Compute Stats, Diag. #    202  GM_Kwz    vol(   0 ): 5.513E+14  Parms: WM P    LR      
 Compute Stats, Diag. #    197  GM_Kvy    vol(   0 ): 5.800E+14  Parms: VV P    MR      
 cg2d: Sum(rhs),rhsMax =   5.86336534880161E-16  1.02707301859871E+00
(PID.TID 0000.0001)      cg2d_init_res =   5.40701103443461E-03
(PID.TID 0000.0001)      cg2d_iters(min,last) =      -1      15
(PID.TID 0000.0001)      cg2d_last_res =   1.00896727556504E-16
(PID.TID 0000.0001) // =======================================================
(PID.TID 0000.0001) // Begin MONITOR dynamic field statistics
(PID.TID 0000.0001) // =======================================================
(PID.TID 0000.0001) %MON time_tsnumber                =                    11
(PID.TID 0000.0001) %MON time_secondsf                =   3.9600000000000E+04
(PID.TID 0000.0001) %MON dynstat_eta_max              =   3.6319589863972E-01
(PID.TID 0000.0001) %MON dynstat_eta_min              =  -7.9377598681808E-02
(PID.TID 0000.0001) %MON dynstat_eta_mean             =  -4.1007995605469E-17
(PID.TID 0000.0001) %MON dynstat_eta_sd               =   1.3751186842183E-01
(PID.TID 0000.0001) %MON dynstat_eta_del2             =   5.8025086306910E-03
(PID.TID 0000.0001) %MON dynstat_uvel_max             =   1.4621389022108E-01
(PID.TID 0000.0001) %MON dynstat_uvel_min             =  -1.4621389022108E-01
(PID.TID 0000.0001) %MON dynstat_uvel_mean            =  -2.4007161458333E-17
(PID.TID 0000.0001) %MON dynstat_uvel_sd              =   2.0118219699413E-02
(PID.TID 0000.0001) %MON dynstat_uvel_del2            =   6.4961230283412E-04
(PID.TID 0000.0001) %MON dynstat_vvel_max             =   9.2131016557901E-03
(PID.TID 0000.0001) %MON dynstat_vvel_min             =  -9.2131016557906E-03
(PID.TID 0000.0001) %MON dynstat_vvel_mean            =  -6.9585339776401E-18
(PID.TID 0000.0001) %MON dynstat_vvel_sd              =   1.2728186803717E-03
(PID.TID 0000.0001) %MON dynstat_vvel_del2            =   8.9560750209575E-05
(PID.TID 0000.0001) %MON dynstat_wvel_max             =   1.4267078762595E-05
(PID.TID 0000.0001) %MON dynstat_wvel_min             =  -2.6752706732083E-05
(PID.TID 0000.0001) %MON dynstat_wvel_mean            =   5.4577931491426E-23
(PID.TID 0000.0001) %MON dynstat_wvel_sd              =   6.4272046703487E-06
(PID.TID 0000.0001) %MON dynstat_wvel_del2            =   4.2486095774948E-07
(PID.TID 0000.0001) %MON dynstat_theta_max            =   1.3323813094745E+01
(PID.TID 0000.0001) %MON dynstat_theta_min            =   6.2538403443490E+00
(PID.TID 0000.0001) %MON dynstat_theta_mean           =   8.1664780613305E+00
(PID.TID 0000.0001) %MON dynstat_theta_sd             =   1.4809607998337E+00
(PID.TID 0000.0001) %MON dynstat_theta_del2           =   7.1440206066223E-03
(PID.TID 0000.0001) %MON dynstat_salt_max             =   1.1996502524713E+01
(PID.TID 0000.0001) %MON dynstat_salt_min             =   1.0464832255820E+01
(PID.TID 0000.0001) %MON dynstat_salt_mean            =   1.1308856554909E+01
(PID.TID 0000.0001) %MON dynstat_salt_sd              =   5.1703882665049E-01
(PID.TID 0000.0001) %MON dynstat_salt_del2            =   5.5485091483379E-04
(PID.TID 0000.0001) %MON advcfl_uvel_max              =   5.2637000479587E-03
(PID.TID 0000.0001) %MON advcfl_vvel_max              =   3.3167165960846E-04
(PID.TID 0000.0001) %MON advcfl_wvel_max              =   2.5745004252579E-03
(PID.TID 0000.0001) %MON advcfl_W_hf_max              =   2.7867119657726E-03
(PID.TID 0000.0001) %MON pe_b_mean                    =   4.6375582979209E-05
(PID.TID 0000.0001) %MON ke_max                       =   1.0705394259786E-02
(PID.TID 0000.0001) %MON ke_mean                      =   2.0315441451026E-04
(PID.TID 0000.0001) %MON ke_vol                       =   6.0000000000000E+14
(PID.TID 0000.0001) // =======================================================
(PID.TID 0000.0001) // End MONITOR dynamic field statistics
(PID.TID 0000.0001) // =======================================================
 Compute Stats, Diag. #     23  ETAN      vol(   0 ): 3.000E+11  Parms: SM      M1      
 Compute Stats, Diag. #     30  UVEL      vol(   0 ): 6.000E+14  Parms: UUR     MR      
 Compute Stats, Diag. #     31  VVEL      vol(   0 ): 5.800E+14  Parms: VVR     MR      
 Compute Stats, Diag. #     32  WVEL      vol(   0 ): 5.513E+14  Parms: WM      LR      
 Compute Stats, Diag. #     26  THETA     vol(   0 ): 6.000E+14  Parms: SMR     MR      
 Compute Stats, Diag. #     76  MXLDEPTH  vol(   0 ): 3.000E+11  Parms: SM      M1      
 Compute Stats, Diag. #    190  GM_hTrsL  vol(   0 ): 3.000E+11  Parms: SM P    M1      
 Compute Stats, Diag. #    191  GM_baseS  vol(   0 ): 3.000E+11  Parms: SM P    M1      
 Compute Stats, Diag. #    192  GM_rLamb  vol(   0 ): 3.000E+11  Parms: SM P    M1      
 Compute Stats, Diag. #    201  GM_Kwy    vol(   0 ): 5.513E+14  Parms: VM      LR      
 Compute Stats, Diag. #    202  GM_Kwz    vol(   0 ): 5.513E+14  Parms: WM P    LR      
 Compute Stats, Diag. #    197  GM_Kvy    vol(   0 ): 5.800E+14  Parms: VV P    MR      
 cg2d: Sum(rhs),rhsMax =  -3.81639164714898E-16  1.02706114793984E+00
(PID.TID 0000.0001)      cg2d_init_res =   4.44175323724997E-03
(PID.TID 0000.0001)      cg2d_iters(min,last) =      -1      15
(PID.TID 0000.0001)      cg2d_last_res =   2.34682173065104E-16
(PID.TID 0000.0001) // =======================================================
(PID.TID 0000.0001) // Begin MONITOR dynamic field statistics
(PID.TID 0000.0001) // =======================================================
(PID.TID 0000.0001) %MON time_tsnumber                =                    12
(PID.TID 0000.0001) %MON time_secondsf                =   4.3200000000000E+04
(PID.TID 0000.0001) %MON dynstat_eta_max              =   3.6202164068427E-01
(PID.TID 0000.0001) %MON dynstat_eta_min              =  -7.9378978610350E-02
(PID.TID 0000.0001) %MON dynstat_eta_mean             =  -3.7638346354167E-16
(PID.TID 0000.0001) %MON dynstat_eta_sd               =   1.3689092182004E-01
(PID.TID 0000.0001) %MON dynstat_eta_del2             =   5.8031350429257E-03
(PID.TID 0000.0001) %MON dynstat_uvel_max             =   1.4351508623909E-01
(PID.TID 0000.0001) %MON dynstat_uvel_min             =  -1.4351508623909E-01
(PID.TID 0000.0001) %MON dynstat_uvel_mean            =  -2.0345052083333E-17
(PID.TID 0000.0001) %MON dynstat_uvel_sd              =   1.9729516699649E-02
(PID.TID 0000.0001) %MON dynstat_uvel_del2            =   6.3477677727440E-04
(PID.TID 0000.0001) %MON dynstat_vvel_max             =   1.1428846017560E-02
(PID.TID 0000.0001) %MON dynstat_vvel_min             =  -1.1428846017561E-02
(PID.TID 0000.0001) %MON dynstat_vvel_mean            =   9.7011697703394E-18
(PID.TID 0000.0001) %MON dynstat_vvel_sd              =   1.6295879787084E-03
(PID.TID 0000.0001) %MON dynstat_vvel_del2            =   9.5024341341174E-05
(PID.TID 0000.0001) %MON dynstat_wvel_max             =   2.1319622928827E-05
(PID.TID 0000.0001) %MON dynstat_wvel_min             =  -3.2923783344824E-05
(PID.TID 0000.0001) %MON dynstat_wvel_mean            =   1.0842991709844E-23
(PID.TID 0000.0001) %MON dynstat_wvel_sd              =   7.9015557938611E-06
(PID.TID 0000.0001) %MON dynstat_wvel_del2            =   4.0248236244212E-07
(PID.TID 0000.0001) %MON dynstat_theta_max            =   1.3323567012193E+01
(PID.TID 0000.0001) %MON dynstat_theta_min            =   6.2538406399641E+00
(PID.TID 0000.0001) %MON dynstat_theta_mean           =   8.1664788143001E+00
(PID.TID 0000.0001) %MON dynstat_theta_sd             =   1.4809587072002E+00
(PID.TID 0000.0001) %MON dynstat_theta_del2           =   7.1432493457566E-03
(PID.TID 0000.0001) %MON dynstat_salt_max             =   1.1996493079311E+01
(PID.TID 0000.0001) %MON dynstat_salt_min             =   1.0464868035165E+01
(PID.TID 0000.0001) %MON dynstat_salt_mean            =   1.1308857032287E+01
(PID.TID 0000.0001) %MON dynstat_salt_sd              =   5.1703028494293E-01
(PID.TID 0000.0001) %MON dynstat_salt_del2            =   5.5491129397209E-04
(PID.TID 0000.0001) %MON advcfl_uvel_max              =   5.1665431046071E-03
(PID.TID 0000.0001) %MON advcfl_vvel_max              =   4.1143845663218E-04
(PID.TID 0000.0001) %MON advcfl_wvel_max              =   3.1580589505775E-03
(PID.TID 0000.0001) %MON advcfl_W_hf_max              =   3.4212181433803E-03
(PID.TID 0000.0001) %MON pe_b_mean                    =   4.5957702779207E-05
(PID.TID 0000.0001) %MON ke_max                       =   1.0329285846001E-02
(PID.TID 0000.0001) %MON ke_mean                      =   1.9591043380803E-04
(PID.TID 0000.0001) %MON ke_vol                       =   6.0000000000000E+14
(PID.TID 0000.0001) // =======================================================
(PID.TID 0000.0001) // End MONITOR dynamic field statistics
(PID.TID 0000.0001) // =======================================================
 Compute Stats, Diag. #     23  ETAN      vol(   0 ): 3.000E+11  Parms: SM      M1      
 Compute Stats, Diag. #     30  UVEL      vol(   0 ): 6.000E+14  Parms: UUR     MR      
 Compute Stats, Diag. #     31  VVEL      vol(   0 ): 5.800E+14  Parms: VVR     MR      
 Compute Stats, Diag. #     32  WVEL      vol(   0 ): 5.513E+14  Parms: WM      LR      
 Compute Stats, Diag. #     26  THETA     vol(   0 ): 6.000E+14  Parms: SMR     MR      
 Compute Stats, Diag. #     76  MXLDEPTH  vol(   0 ): 3.000E+11  Parms: SM      M1      
 Compute Stats, Diag. #    190  GM_hTrsL  vol(   0 ): 3.000E+11  Parms: SM P    M1      
 Compute Stats, Diag. #    191  GM_baseS  vol(   0 ): 3.000E+11  Parms: SM P    M1      
 Compute Stats, Diag. #    192  GM_rLamb  vol(   0 ): 3.000E+11  Parms: SM P    M1      
 Compute Stats, Diag. #    201  GM_Kwy    vol(   0 ): 5.513E+14  Parms: VM      LR      
 Compute Stats, Diag. #    202  GM_Kwz    vol(   0 ): 5.513E+14  Parms: WM P    LR      
 Compute Stats, Diag. #    197  GM_Kvy    vol(   0 ): 5.800E+14  Parms: VV P    MR      
 cg2d: Sum(rhs),rhsMax =   4.42701431069281E-15  1.02796334561638E+00
(PID.TID 0000.0001)      cg2d_init_res =   2.31120736657832E-03
(PID.TID 0000.0001)      cg2d_iters(min,last) =      -1      15
(PID.TID 0000.0001)      cg2d_last_res =   3.23250763818955E-16
(PID.TID 0000.0001) // =======================================================
(PID.TID 0000.0001) // Begin MONITOR dynamic field statistics
(PID.TID 0000.0001) // =======================================================
(PID.TID 0000.0001) %MON time_tsnumber                =                    13
(PID.TID 0000.0001) %MON time_secondsf                =   4.6800000000000E+04
(PID.TID 0000.0001) %MON dynstat_eta_max              =   3.6186809348534E-01
(PID.TID 0000.0001) %MON dynstat_eta_min              =  -7.9379508317822E-02
(PID.TID 0000.0001) %MON dynstat_eta_mean             =  -6.6693623860677E-16
(PID.TID 0000.0001) %MON dynstat_eta_sd               =   1.3678128726115E-01
(PID.TID 0000.0001) %MON dynstat_eta_del2             =   5.8050599545278E-03
(PID.TID 0000.0001) %MON dynstat_uvel_max             =   1.4020683455552E-01
(PID.TID 0000.0001) %MON dynstat_uvel_min             =  -1.4020683455552E-01
(PID.TID 0000.0001) %MON dynstat_uvel_mean            =  -1.5462239583333E-17
(PID.TID 0000.0001) %MON dynstat_uvel_sd              =   1.9281135347878E-02
(PID.TID 0000.0001) %MON dynstat_uvel_del2            =   6.1475422789994E-04
(PID.TID 0000.0001) %MON dynstat_vvel_max             =   1.2458952060119E-02
(PID.TID 0000.0001) %MON dynstat_vvel_min             =  -1.2458952060119E-02
(PID.TID 0000.0001) %MON dynstat_vvel_mean            =   1.9355477957890E-17
(PID.TID 0000.0001) %MON dynstat_vvel_sd              =   1.8111448801110E-03
(PID.TID 0000.0001) %MON dynstat_vvel_del2            =   9.9422937546290E-05
(PID.TID 0000.0001) %MON dynstat_wvel_max             =   2.6214937119565E-05
(PID.TID 0000.0001) %MON dynstat_wvel_min             =  -3.5349224031859E-05
(PID.TID 0000.0001) %MON dynstat_wvel_mean            =   2.3882299695426E-22
(PID.TID 0000.0001) %MON dynstat_wvel_sd              =   8.8209543885687E-06
(PID.TID 0000.0001) %MON dynstat_wvel_del2            =   3.8322287128059E-07
(PID.TID 0000.0001) %MON dynstat_theta_max            =   1.3323300192375E+01
(PID.TID 0000.0001) %MON dynstat_theta_min            =   6.2538410917612E+00
(PID.TID 0000.0001) %MON dynstat_theta_mean           =   8.1664791122664E+00
(PID.TID 0000.0001) %MON dynstat_theta_sd             =   1.4809557069504E+00
(PID.TID 0000.0001) %MON dynstat_theta_del2           =   7.1428236955836E-03
(PID.TID 0000.0001) %MON dynstat_salt_max             =   1.1996482938289E+01
(PID.TID 0000.0001) %MON dynstat_salt_min             =   1.0464903777679E+01
(PID.TID 0000.0001) %MON dynstat_salt_mean            =   1.1308857221608E+01
(PID.TID 0000.0001) %MON dynstat_salt_sd              =   5.1702176109840E-01
(PID.TID 0000.0001) %MON dynstat_salt_del2            =   5.5497190418647E-04
(PID.TID 0000.0001) %MON advcfl_uvel_max              =   5.0474460439988E-03
(PID.TID 0000.0001) %MON advcfl_vvel_max              =   4.4852227416428E-04
(PID.TID 0000.0001) %MON advcfl_wvel_max              =   3.3815852957785E-03
(PID.TID 0000.0001) %MON advcfl_W_hf_max              =   3.6672216182856E-03
(PID.TID 0000.0001) %MON pe_b_mean                    =   4.5884118136165E-05
(PID.TID 0000.0001) %MON ke_max                       =   9.8701110481530E-03
(PID.TID 0000.0001) %MON ke_mean                      =   1.8746654227703E-04
(PID.TID 0000.0001) %MON ke_vol                       =   6.0000000000000E+14
(PID.TID 0000.0001) // =======================================================
(PID.TID 0000.0001) // End MONITOR dynamic field statistics
(PID.TID 0000.0001) // =======================================================
 Compute Stats, Diag. #     23  ETAN      vol(   0 ): 3.000E+11  Parms: SM      M1      
 Compute Stats, Diag. #     30  UVEL      vol(   0 ): 6.000E+14  Parms: UUR     MR      
 Compute Stats, Diag. #     31  VVEL      vol(   0 ): 5.800E+14  Parms: VVR     MR      
 Compute Stats, Diag. #     32  WVEL      vol(   0 ): 5.513E+14  Parms: WM      LR      
 Compute Stats, Diag. #     26  THETA     vol(   0 ): 6.000E+14  Parms: SMR     MR      
 Compute Stats, Diag. #     76  MXLDEPTH  vol(   0 ): 3.000E+11  Parms: SM      M1      
 Compute Stats, Diag. #    190  GM_hTrsL  vol(   0 ): 3.000E+11  Parms: SM P    M1      
 Compute Stats, Diag. #    191  GM_baseS  vol(   0 ): 3.000E+11  Parms: SM P    M1      
 Compute Stats, Diag. #    192  GM_rLamb  vol(   0 ): 3.000E+11  Parms: SM P    M1      
 Compute Stats, Diag. #    201  GM_Kwy    vol(   0 ): 5.513E+14  Parms: VM      LR      
 Compute Stats, Diag. #    202  GM_Kwz    vol(   0 ): 5.513E+14  Parms: WM P    LR      
 Compute Stats, Diag. #    197  GM_Kvy    vol(   0 ): 5.800E+14  Parms: VV P    MR      
 cg2d: Sum(rhs),rhsMax =   7.57380269611474E-15  1.02934904795273E+00
(PID.TID 0000.0001)      cg2d_init_res =   2.38619488990973E-03
(PID.TID 0000.0001)      cg2d_iters(min,last) =      -1      15
(PID.TID 0000.0001)      cg2d_last_res =   1.97359763689804E-16
(PID.TID 0000.0001) // =======================================================
(PID.TID 0000.0001) // Begin MONITOR dynamic field statistics
(PID.TID 0000.0001) // =======================================================
(PID.TID 0000.0001) %MON time_tsnumber                =                    14
(PID.TID 0000.0001) %MON time_secondsf                =   5.0400000000000E+04
(PID.TID 0000.0001) %MON dynstat_eta_max              =   3.6233604662395E-01
(PID.TID 0000.0001) %MON dynstat_eta_min              =  -7.9381625108914E-02
(PID.TID 0000.0001) %MON dynstat_eta_mean             =  -5.0576527913411E-16
(PID.TID 0000.0001) %MON dynstat_eta_sd               =   1.3698412925063E-01
(PID.TID 0000.0001) %MON dynstat_eta_del2             =   5.8076521066721E-03
(PID.TID 0000.0001) %MON dynstat_uvel_max             =   1.3673945847749E-01
(PID.TID 0000.0001) %MON dynstat_uvel_min             =  -1.3673945847749E-01
(PID.TID 0000.0001) %MON dynstat_uvel_mean            =  -5.6966145833333E-18
(PID.TID 0000.0001) %MON dynstat_uvel_sd              =   1.8835014922288E-02
(PID.TID 0000.0001) %MON dynstat_uvel_del2            =   5.9213233041388E-04
(PID.TID 0000.0001) %MON dynstat_vvel_max             =   1.2166864618815E-02
(PID.TID 0000.0001) %MON dynstat_vvel_min             =  -1.2166864618816E-02
(PID.TID 0000.0001) %MON dynstat_vvel_mean            =   1.7930721414500E-17
(PID.TID 0000.0001) %MON dynstat_vvel_sd              =   1.7924910130754E-03
(PID.TID 0000.0001) %MON dynstat_vvel_del2            =   9.9423800790175E-05
(PID.TID 0000.0001) %MON dynstat_wvel_max             =   2.8293765458675E-05
(PID.TID 0000.0001) %MON dynstat_wvel_min             =  -3.3908982549361E-05
(PID.TID 0000.0001) %MON dynstat_wvel_mean            =   1.5442848813777E-22
(PID.TID 0000.0001) %MON dynstat_wvel_sd              =   8.9363463684748E-06
(PID.TID 0000.0001) %MON dynstat_wvel_del2            =   3.6275226153553E-07
(PID.TID 0000.0001) %MON dynstat_theta_max            =   1.3323029632091E+01
(PID.TID 0000.0001) %MON dynstat_theta_min            =   6.2538416608582E+00
(PID.TID 0000.0001) %MON dynstat_theta_mean           =   8.1664789992766E+00
(PID.TID 0000.0001) %MON dynstat_theta_sd             =   1.4809519382690E+00
(PID.TID 0000.0001) %MON dynstat_theta_del2           =   7.1425396172805E-03
(PID.TID 0000.0001) %MON dynstat_salt_max             =   1.1996473713504E+01
(PID.TID 0000.0001) %MON dynstat_salt_min             =   1.0464939489718E+01
(PID.TID 0000.0001) %MON dynstat_salt_mean            =   1.1308857153259E+01
(PID.TID 0000.0001) %MON dynstat_salt_sd              =   5.1701325197992E-01
(PID.TID 0000.0001) %MON dynstat_salt_del2            =   5.5503328709326E-04
(PID.TID 0000.0001) %MON advcfl_uvel_max              =   4.9226205051898E-03
(PID.TID 0000.0001) %MON advcfl_vvel_max              =   4.3800712627737E-04
(PID.TID 0000.0001) %MON advcfl_wvel_max              =   3.2606016918738E-03
(PID.TID 0000.0001) %MON advcfl_W_hf_max              =   3.5370084448816E-03
(PID.TID 0000.0001) %MON pe_b_mean                    =   4.6020308212225E-05
(PID.TID 0000.0001) %MON ke_max                       =   9.3900068922649E-03
(PID.TID 0000.0001) %MON ke_mean                      =   1.7893185517685E-04
(PID.TID 0000.0001) %MON ke_vol                       =   6.0000000000000E+14
(PID.TID 0000.0001) // =======================================================
(PID.TID 0000.0001) // End MONITOR dynamic field statistics
(PID.TID 0000.0001) // =======================================================
 Compute Stats, Diag. #     23  ETAN      vol(   0 ): 3.000E+11  Parms: SM      M1      
 Compute Stats, Diag. #     30  UVEL      vol(   0 ): 6.000E+14  Parms: UUR     MR      
 Compute Stats, Diag. #     31  VVEL      vol(   0 ): 5.800E+14  Parms: VVR     MR      
 Compute Stats, Diag. #     32  WVEL      vol(   0 ): 5.513E+14  Parms: WM      LR      
 Compute Stats, Diag. #     26  THETA     vol(   0 ): 6.000E+14  Parms: SMR     MR      
 Compute Stats, Diag. #     76  MXLDEPTH  vol(   0 ): 3.000E+11  Parms: SM      M1      
 Compute Stats, Diag. #    190  GM_hTrsL  vol(   0 ): 3.000E+11  Parms: SM P    M1      
 Compute Stats, Diag. #    191  GM_baseS  vol(   0 ): 3.000E+11  Parms: SM P    M1      
 Compute Stats, Diag. #    192  GM_rLamb  vol(   0 ): 3.000E+11  Parms: SM P    M1      
 Compute Stats, Diag. #    201  GM_Kwy    vol(   0 ): 5.513E+14  Parms: VM      LR      
 Compute Stats, Diag. #    202  GM_Kwz    vol(   0 ): 5.513E+14  Parms: WM P    LR      
 Compute Stats, Diag. #    197  GM_Kvy    vol(   0 ): 5.800E+14  Parms: VV P    MR      
 cg2d: Sum(rhs),rhsMax =   5.29437604868122E-15  1.03061769301520E+00
(PID.TID 0000.0001)      cg2d_init_res =   2.21206734651193E-03
(PID.TID 0000.0001)      cg2d_iters(min,last) =      -1      15
(PID.TID 0000.0001)      cg2d_last_res =   2.65156015330536E-16
(PID.TID 0000.0001) // =======================================================
(PID.TID 0000.0001) // Begin MONITOR dynamic field statistics
(PID.TID 0000.0001) // =======================================================
(PID.TID 0000.0001) %MON time_tsnumber                =                    15
(PID.TID 0000.0001) %MON time_secondsf                =   5.4000000000000E+04
(PID.TID 0000.0001) %MON dynstat_eta_max              =   3.6282307789400E-01
(PID.TID 0000.0001) %MON dynstat_eta_min              =  -7.9384436136780E-02
(PID.TID 0000.0001) %MON dynstat_eta_mean             =  -5.9636433919271E-16
(PID.TID 0000.0001) %MON dynstat_eta_sd               =   1.3720050169632E-01
(PID.TID 0000.0001) %MON dynstat_eta_del2             =   5.8101070253000E-03
(PID.TID 0000.0001) %MON dynstat_uvel_max             =   1.3357235045043E-01
(PID.TID 0000.0001) %MON dynstat_uvel_min             =  -1.3357235045043E-01
(PID.TID 0000.0001) %MON dynstat_uvel_mean            =  -4.0690104166667E-18
(PID.TID 0000.0001) %MON dynstat_uvel_sd              =   1.8450651318837E-02
(PID.TID 0000.0001) %MON dynstat_uvel_del2            =   5.6964773147313E-04
(PID.TID 0000.0001) %MON dynstat_vvel_max             =   1.0581018721508E-02
(PID.TID 0000.0001) %MON dynstat_vvel_min             =  -1.0581018721509E-02
(PID.TID 0000.0001) %MON dynstat_vvel_mean            =   7.8974098994814E-18
(PID.TID 0000.0001) %MON dynstat_vvel_sd              =   1.5839848397001E-03
(PID.TID 0000.0001) %MON dynstat_vvel_del2            =   9.3858689087199E-05
(PID.TID 0000.0001) %MON dynstat_wvel_max             =   2.7404079622043E-05
(PID.TID 0000.0001) %MON dynstat_wvel_min             =  -2.8783534411686E-05
(PID.TID 0000.0001) %MON dynstat_wvel_mean            =   3.3899032998653E-22
(PID.TID 0000.0001) %MON dynstat_wvel_sd              =   8.2307260513091E-06
(PID.TID 0000.0001) %MON dynstat_wvel_del2            =   3.3932238689328E-07
(PID.TID 0000.0001) %MON dynstat_theta_max            =   1.3322772976691E+01
(PID.TID 0000.0001) %MON dynstat_theta_min            =   6.2538421990211E+00
(PID.TID 0000.0001) %MON dynstat_theta_mean           =   8.1664787738950E+00
(PID.TID 0000.0001) %MON dynstat_theta_sd             =   1.4809479171198E+00
(PID.TID 0000.0001) %MON dynstat_theta_del2           =   7.1421675795094E-03
(PID.TID 0000.0001) %MON dynstat_salt_max             =   1.1996465066627E+01
(PID.TID 0000.0001) %MON dynstat_salt_min             =   1.0464975195547E+01
(PID.TID 0000.0001) %MON dynstat_salt_mean            =   1.1308857014084E+01
(PID.TID 0000.0001) %MON dynstat_salt_sd              =   5.1700474732258E-01
(PID.TID 0000.0001) %MON dynstat_salt_del2            =   5.5509568700614E-04
(PID.TID 0000.0001) %MON advcfl_uvel_max              =   4.8086046162155E-03
(PID.TID 0000.0001) %MON advcfl_vvel_max              =   3.8091667397431E-04
(PID.TID 0000.0001) %MON advcfl_wvel_max              =   2.8138553650771E-03
(PID.TID 0000.0001) %MON advcfl_W_hf_max              =   3.0502320185301E-03
(PID.TID 0000.0001) %MON pe_b_mean                    =   4.6165805225181E-05
(PID.TID 0000.0001) %MON ke_max                       =   8.9521486973634E-03
(PID.TID 0000.0001) %MON ke_mean                      =   1.7142595423131E-04
(PID.TID 0000.0001) %MON ke_vol                       =   6.0000000000000E+14
(PID.TID 0000.0001) // =======================================================
(PID.TID 0000.0001) // End MONITOR dynamic field statistics
(PID.TID 0000.0001) // =======================================================
 Compute Stats, Diag. #     23  ETAN      vol(   0 ): 3.000E+11  Parms: SM      M1      
 Compute Stats, Diag. #     30  UVEL      vol(   0 ): 6.000E+14  Parms: UUR     MR      
 Compute Stats, Diag. #     31  VVEL      vol(   0 ): 5.800E+14  Parms: VVR     MR      
 Compute Stats, Diag. #     32  WVEL      vol(   0 ): 5.513E+14  Parms: WM      LR      
 Compute Stats, Diag. #     26  THETA     vol(   0 ): 6.000E+14  Parms: SMR     MR      
 Compute Stats, Diag. #     76  MXLDEPTH  vol(   0 ): 3.000E+11  Parms: SM      M1      
 Compute Stats, Diag. #    190  GM_hTrsL  vol(   0 ): 3.000E+11  Parms: SM P    M1      
 Compute Stats, Diag. #    191  GM_baseS  vol(   0 ): 3.000E+11  Parms: SM P    M1      
 Compute Stats, Diag. #    192  GM_rLamb  vol(   0 ): 3.000E+11  Parms: SM P    M1      
 Compute Stats, Diag. #    201  GM_Kwy    vol(   0 ): 5.513E+14  Parms: VM      LR      
 Compute Stats, Diag. #    202  GM_Kwz    vol(   0 ): 5.513E+14  Parms: WM P    LR      
 Compute Stats, Diag. #    197  GM_Kvy    vol(   0 ): 5.800E+14  Parms: VV P    MR      
 cg2d: Sum(rhs),rhsMax =   5.89459037136919E-15  1.03144061350768E+00
(PID.TID 0000.0001)      cg2d_init_res =   1.51308004821422E-03
(PID.TID 0000.0001)      cg2d_iters(min,last) =      -1      15
(PID.TID 0000.0001)      cg2d_last_res =   1.16120414899687E-16
(PID.TID 0000.0001) // =======================================================
(PID.TID 0000.0001) // Begin MONITOR dynamic field statistics
(PID.TID 0000.0001) // =======================================================
(PID.TID 0000.0001) %MON time_tsnumber                =                    16
(PID.TID 0000.0001) %MON time_secondsf                =   5.7600000000000E+04
(PID.TID 0000.0001) %MON dynstat_eta_max              =   3.6303875926753E-01
(PID.TID 0000.0001) %MON dynstat_eta_min              =  -7.9388141418280E-02
(PID.TID 0000.0001) %MON dynstat_eta_mean             =  -7.7597300211589E-16
(PID.TID 0000.0001) %MON dynstat_eta_sd               =   1.3728729720489E-01
(PID.TID 0000.0001) %MON dynstat_eta_del2             =   5.8118931893208E-03
(PID.TID 0000.0001) %MON dynstat_uvel_max             =   1.3110280190352E-01
(PID.TID 0000.0001) %MON dynstat_uvel_min             =  -1.3110280190352E-01
(PID.TID 0000.0001) %MON dynstat_uvel_mean            =   2.4414062500000E-18
(PID.TID 0000.0001) %MON dynstat_uvel_sd              =   1.8174820092707E-02
(PID.TID 0000.0001) %MON dynstat_uvel_del2            =   5.4984661262642E-04
(PID.TID 0000.0001) %MON dynstat_vvel_max             =   7.8842488982089E-03
(PID.TID 0000.0001) %MON dynstat_vvel_min             =  -7.8842488982092E-03
(PID.TID 0000.0001) %MON dynstat_vvel_mean            =  -8.0075757256870E-19
(PID.TID 0000.0001) %MON dynstat_vvel_sd              =   1.2335255528305E-03
(PID.TID 0000.0001) %MON dynstat_vvel_del2            =   8.3726331003603E-05
(PID.TID 0000.0001) %MON dynstat_wvel_max             =   2.3842573080096E-05
(PID.TID 0000.0001) %MON dynstat_wvel_min             =  -2.0499454225387E-05
(PID.TID 0000.0001) %MON dynstat_wvel_mean            =  -6.4859965017864E-23
(PID.TID 0000.0001) %MON dynstat_wvel_sd              =   6.8834029745736E-06
(PID.TID 0000.0001) %MON dynstat_wvel_del2            =   3.1631862763121E-07
(PID.TID 0000.0001) %MON dynstat_theta_max            =   1.3322545963439E+01
(PID.TID 0000.0001) %MON dynstat_theta_min            =   6.2538426207622E+00
(PID.TID 0000.0001) %MON dynstat_theta_mean           =   8.1664786445232E+00
(PID.TID 0000.0001) %MON dynstat_theta_sd             =   1.4809440910570E+00
(PID.TID 0000.0001) %MON dynstat_theta_del2           =   7.1415134785134E-03
(PID.TID 0000.0001) %MON dynstat_salt_max             =   1.1996457363709E+01
(PID.TID 0000.0001) %MON dynstat_salt_min             =   1.0465010909166E+01
(PID.TID 0000.0001) %MON dynstat_salt_mean            =   1.1308856934334E+01
(PID.TID 0000.0001) %MON dynstat_salt_sd              =   5.1699624003949E-01
(PID.TID 0000.0001) %MON dynstat_salt_del2            =   5.5515937220477E-04
(PID.TID 0000.0001) %MON advcfl_uvel_max              =   4.7197008685267E-03
(PID.TID 0000.0001) %MON advcfl_vvel_max              =   2.8383296033553E-04
(PID.TID 0000.0001) %MON advcfl_wvel_max              =   2.3077458201071E-03
(PID.TID 0000.0001) %MON advcfl_W_hf_max              =   2.5032700155196E-03
(PID.TID 0000.0001) %MON pe_b_mean                    =   4.6224234340800E-05
(PID.TID 0000.0001) %MON ke_max                       =   8.6109147778784E-03
(PID.TID 0000.0001) %MON ke_mean                      =   1.6589747559106E-04
(PID.TID 0000.0001) %MON ke_vol                       =   6.0000000000000E+14
(PID.TID 0000.0001) // =======================================================
(PID.TID 0000.0001) // End MONITOR dynamic field statistics
(PID.TID 0000.0001) // =======================================================
 Compute Stats, Diag. #     23  ETAN      vol(   0 ): 3.000E+11  Parms: SM      M1      
 Compute Stats, Diag. #     30  UVEL      vol(   0 ): 6.000E+14  Parms: UUR     MR      
 Compute Stats, Diag. #     31  VVEL      vol(   0 ): 5.800E+14  Parms: VVR     MR      
 Compute Stats, Diag. #     32  WVEL      vol(   0 ): 5.513E+14  Parms: WM      LR      
 Compute Stats, Diag. #     26  THETA     vol(   0 ): 6.000E+14  Parms: SMR     MR      
 Compute Stats, Diag. #     76  MXLDEPTH  vol(   0 ): 3.000E+11  Parms: SM      M1      
 Compute Stats, Diag. #    190  GM_hTrsL  vol(   0 ): 3.000E+11  Parms: SM P    M1      
 Compute Stats, Diag. #    191  GM_baseS  vol(   0 ): 3.000E+11  Parms: SM P    M1      
 Compute Stats, Diag. #    192  GM_rLamb  vol(   0 ): 3.000E+11  Parms: SM P    M1      
 Compute Stats, Diag. #    201  GM_Kwy    vol(   0 ): 5.513E+14  Parms: VM      LR      
 Compute Stats, Diag. #    202  GM_Kwz    vol(   0 ): 5.513E+14  Parms: WM P    LR      
 Compute Stats, Diag. #    197  GM_Kvy    vol(   0 ): 5.800E+14  Parms: VV P    MR      
 cg2d: Sum(rhs),rhsMax =   9.57220414044002E-15  1.03177518280321E+00
(PID.TID 0000.0001)      cg2d_init_res =   1.01188892468237E-03
(PID.TID 0000.0001)      cg2d_iters(min,last) =      -1      15
(PID.TID 0000.0001)      cg2d_last_res =   1.81840989583252E-16
(PID.TID 0000.0001) // =======================================================
(PID.TID 0000.0001) // Begin MONITOR dynamic field statistics
(PID.TID 0000.0001) // =======================================================
(PID.TID 0000.0001) %MON time_tsnumber                =                    17
(PID.TID 0000.0001) %MON time_secondsf                =   6.1200000000000E+04
(PID.TID 0000.0001) %MON dynstat_eta_max              =   3.6302155768422E-01
(PID.TID 0000.0001) %MON dynstat_eta_min              =  -7.9393335167984E-02
(PID.TID 0000.0001) %MON dynstat_eta_mean             =  -7.9409281412760E-16
(PID.TID 0000.0001) %MON dynstat_eta_sd               =   1.3726651515120E-01
(PID.TID 0000.0001) %MON dynstat_eta_del2             =   5.8128017297604E-03
(PID.TID 0000.0001) %MON dynstat_uvel_max             =   1.2961481390238E-01
(PID.TID 0000.0001) %MON dynstat_uvel_min             =  -1.2961481390238E-01
(PID.TID 0000.0001) %MON dynstat_uvel_mean            =  -2.0345052083333E-18
(PID.TID 0000.0001) %MON dynstat_uvel_sd              =   1.8036097679568E-02
(PID.TID 0000.0001) %MON dynstat_uvel_del2            =   5.3480738904258E-04
(PID.TID 0000.0001) %MON dynstat_vvel_max             =   5.7328975536745E-03
(PID.TID 0000.0001) %MON dynstat_vvel_min             =  -5.7328975536743E-03
(PID.TID 0000.0001) %MON dynstat_vvel_mean            =  -7.7126355006777E-18
(PID.TID 0000.0001) %MON dynstat_vvel_sd              =   8.4539048267727E-04
(PID.TID 0000.0001) %MON dynstat_vvel_del2            =   7.2297880837525E-05
(PID.TID 0000.0001) %MON dynstat_wvel_max             =   1.8191076313529E-05
(PID.TID 0000.0001) %MON dynstat_wvel_min             =  -1.2457760514718E-05
(PID.TID 0000.0001) %MON dynstat_wvel_mean            =   2.7585943607516E-23
(PID.TID 0000.0001) %MON dynstat_wvel_sd              =   5.3177839891504E-06
(PID.TID 0000.0001) %MON dynstat_wvel_del2            =   3.0216904682542E-07
(PID.TID 0000.0001) %MON dynstat_theta_max            =   1.3322360914721E+01
(PID.TID 0000.0001) %MON dynstat_theta_min            =   6.2538429437684E+00
(PID.TID 0000.0001) %MON dynstat_theta_mean           =   8.1664786394298E+00
(PID.TID 0000.0001) %MON dynstat_theta_sd             =   1.4809405181282E+00
(PID.TID 0000.0001) %MON dynstat_theta_del2           =   7.1404242728535E-03
(PID.TID 0000.0001) %MON dynstat_salt_max             =   1.1996450996936E+01
(PID.TID 0000.0001) %MON dynstat_salt_min             =   1.0465046627699E+01
(PID.TID 0000.0001) %MON dynstat_salt_mean            =   1.1308856931611E+01
(PID.TID 0000.0001) %MON dynstat_salt_sd              =   5.1698772911350E-01
(PID.TID 0000.0001) %MON dynstat_salt_del2            =   5.5522455882861E-04
(PID.TID 0000.0001) %MON advcfl_uvel_max              =   4.6661333004858E-03
(PID.TID 0000.0001) %MON advcfl_vvel_max              =   2.0638431193228E-04
(PID.TID 0000.0001) %MON advcfl_wvel_max              =   1.8092915516033E-03
(PID.TID 0000.0001) %MON advcfl_W_hf_max              =   1.9606609776934E-03
(PID.TID 0000.0001) %MON pe_b_mean                    =   4.6210240885751E-05
(PID.TID 0000.0001) %MON ke_max                       =   8.4049367720677E-03
(PID.TID 0000.0001) %MON ke_mean                      =   1.6299584086976E-04
(PID.TID 0000.0001) %MON ke_vol                       =   6.0000000000000E+14
(PID.TID 0000.0001) // =======================================================
(PID.TID 0000.0001) // End MONITOR dynamic field statistics
(PID.TID 0000.0001) // =======================================================
 Compute Stats, Diag. #     23  ETAN      vol(   0 ): 3.000E+11  Parms: SM      M1      
 Compute Stats, Diag. #     30  UVEL      vol(   0 ): 6.000E+14  Parms: UUR     MR      
 Compute Stats, Diag. #     31  VVEL      vol(   0 ): 5.800E+14  Parms: VVR     MR      
 Compute Stats, Diag. #     32  WVEL      vol(   0 ): 5.513E+14  Parms: WM      LR      
 Compute Stats, Diag. #     26  THETA     vol(   0 ): 6.000E+14  Parms: SMR     MR      
 Compute Stats, Diag. #     76  MXLDEPTH  vol(   0 ): 3.000E+11  Parms: SM      M1      
 Compute Stats, Diag. #    190  GM_hTrsL  vol(   0 ): 3.000E+11  Parms: SM P    M1      
 Compute Stats, Diag. #    191  GM_baseS  vol(   0 ): 3.000E+11  Parms: SM P    M1      
 Compute Stats, Diag. #    192  GM_rLamb  vol(   0 ): 3.000E+11  Parms: SM P    M1      
 Compute Stats, Diag. #    201  GM_Kwy    vol(   0 ): 5.513E+14  Parms: VM      LR      
 Compute Stats, Diag. #    202  GM_Kwz    vol(   0 ): 5.513E+14  Parms: WM P    LR      
 Compute Stats, Diag. #    197  GM_Kvy    vol(   0 ): 5.800E+14  Parms: VV P    MR      
 cg2d: Sum(rhs),rhsMax =   7.51135265097957E-15  1.03170442339634E+00
(PID.TID 0000.0001)      cg2d_init_res =   8.19455933129569E-04
(PID.TID 0000.0001)      cg2d_iters(min,last) =      -1      15
(PID.TID 0000.0001)      cg2d_last_res =   7.51668301213039E-17
(PID.TID 0000.0001) // =======================================================
(PID.TID 0000.0001) // Begin MONITOR dynamic field statistics
(PID.TID 0000.0001) // =======================================================
(PID.TID 0000.0001) %MON time_tsnumber                =                    18
(PID.TID 0000.0001) %MON time_secondsf                =   6.4800000000000E+04
(PID.TID 0000.0001) %MON dynstat_eta_max              =   3.6292682908543E-01
(PID.TID 0000.0001) %MON dynstat_eta_min              =  -7.9400158031439E-02
(PID.TID 0000.0001) %MON dynstat_eta_mean             =  -4.4314066569010E-16
(PID.TID 0000.0001) %MON dynstat_eta_sd               =   1.3721828560867E-01
(PID.TID 0000.0001) %MON dynstat_eta_del2             =   5.8128033588630E-03
(PID.TID 0000.0001) %MON dynstat_uvel_max             =   1.2925005084605E-01
(PID.TID 0000.0001) %MON dynstat_uvel_min             =  -1.2925005084605E-01
(PID.TID 0000.0001) %MON dynstat_uvel_mean            =  -6.1035156250000E-18
(PID.TID 0000.0001) %MON dynstat_uvel_sd              =   1.8044051184063E-02
(PID.TID 0000.0001) %MON dynstat_uvel_del2            =   5.2595242104412E-04
(PID.TID 0000.0001) %MON dynstat_vvel_max             =   5.8000720095520E-03
(PID.TID 0000.0001) %MON dynstat_vvel_min             =  -5.8000720095519E-03
(PID.TID 0000.0001) %MON dynstat_vvel_mean            =  -7.0962412603970E-18
(PID.TID 0000.0001) %MON dynstat_vvel_sd              =   6.6115408340267E-04
(PID.TID 0000.0001) %MON dynstat_vvel_del2            =   6.5088855263844E-05
(PID.TID 0000.0001) %MON dynstat_wvel_max             =   1.1209380363698E-05
(PID.TID 0000.0001) %MON dynstat_wvel_min             =  -1.3927064942945E-05
(PID.TID 0000.0001) %MON dynstat_wvel_mean            =  -2.4602965973402E-23
(PID.TID 0000.0001) %MON dynstat_wvel_sd              =   4.3535980311970E-06
(PID.TID 0000.0001) %MON dynstat_wvel_del2            =   3.0613480206970E-07
(PID.TID 0000.0001) %MON dynstat_theta_max            =   1.3322225293546E+01
(PID.TID 0000.0001) %MON dynstat_theta_min            =   6.2538432402456E+00
(PID.TID 0000.0001) %MON dynstat_theta_mean           =   8.1664786886055E+00
(PID.TID 0000.0001) %MON dynstat_theta_sd             =   1.4809370592481E+00
(PID.TID 0000.0001) %MON dynstat_theta_del2           =   7.1388092802159E-03
(PID.TID 0000.0001) %MON dynstat_salt_max             =   1.1996446204246E+01
(PID.TID 0000.0001) %MON dynstat_salt_min             =   1.0465082339353E+01
(PID.TID 0000.0001) %MON dynstat_salt_mean            =   1.1308856961909E+01
(PID.TID 0000.0001) %MON dynstat_salt_sd              =   5.1697921696410E-01
(PID.TID 0000.0001) %MON dynstat_salt_del2            =   5.5529134783275E-04
(PID.TID 0000.0001) %MON advcfl_uvel_max              =   4.6530018304579E-03
(PID.TID 0000.0001) %MON advcfl_vvel_max              =   2.0880259234387E-04
(PID.TID 0000.0001) %MON advcfl_wvel_max              =   1.2874217540284E-03
(PID.TID 0000.0001) %MON advcfl_W_hf_max              =   1.3996113349449E-03
(PID.TID 0000.0001) %MON pe_b_mean                    =   4.6177774012954E-05
(PID.TID 0000.0001) %MON ke_max                       =   8.3533322592652E-03
(PID.TID 0000.0001) %MON ke_mean                      =   1.6300516851551E-04
(PID.TID 0000.0001) %MON ke_vol                       =   6.0000000000000E+14
(PID.TID 0000.0001) // =======================================================
(PID.TID 0000.0001) // End MONITOR dynamic field statistics
(PID.TID 0000.0001) // =======================================================
 Compute Stats, Diag. #     23  ETAN      vol(   0 ): 3.000E+11  Parms: SM      M1      
 Compute Stats, Diag. #     30  UVEL      vol(   0 ): 6.000E+14  Parms: UUR     MR      
 Compute Stats, Diag. #     31  VVEL      vol(   0 ): 5.800E+14  Parms: VVR     MR      
 Compute Stats, Diag. #     32  WVEL      vol(   0 ): 5.513E+14  Parms: WM      LR      
 Compute Stats, Diag. #     26  THETA     vol(   0 ): 6.000E+14  Parms: SMR     MR      
 Compute Stats, Diag. #     76  MXLDEPTH  vol(   0 ): 3.000E+11  Parms: SM      M1      
 Compute Stats, Diag. #    190  GM_hTrsL  vol(   0 ): 3.000E+11  Parms: SM P    M1      
 Compute Stats, Diag. #    191  GM_baseS  vol(   0 ): 3.000E+11  Parms: SM P    M1      
 Compute Stats, Diag. #    192  GM_rLamb  vol(   0 ): 3.000E+11  Parms: SM P    M1      
 Compute Stats, Diag. #    201  GM_Kwy    vol(   0 ): 5.513E+14  Parms: VM      LR      
 Compute Stats, Diag. #    202  GM_Kwz    vol(   0 ): 5.513E+14  Parms: WM P    LR      
 Compute Stats, Diag. #    197  GM_Kvy    vol(   0 ): 5.800E+14  Parms: VV P    MR      
 cg2d: Sum(rhs),rhsMax =   5.29784549563317E-15  1.03130000887268E+00
(PID.TID 0000.0001)      cg2d_init_res =   1.01661576071983E-03
(PID.TID 0000.0001)      cg2d_iters(min,last) =      -1      15
(PID.TID 0000.0001)      cg2d_last_res =   1.16104507111716E-16
(PID.TID 0000.0001) // =======================================================
(PID.TID 0000.0001) // Begin MONITOR dynamic field statistics
(PID.TID 0000.0001) // =======================================================
(PID.TID 0000.0001) %MON time_tsnumber                =                    19
(PID.TID 0000.0001) %MON time_secondsf                =   6.8400000000000E+04
(PID.TID 0000.0001) %MON dynstat_eta_max              =   3.6285677257005E-01
(PID.TID 0000.0001) %MON dynstat_eta_min              =  -7.9408352184529E-02
(PID.TID 0000.0001) %MON dynstat_eta_mean             =  -4.3582916259766E-16
(PID.TID 0000.0001) %MON dynstat_eta_sd               =   1.3719465411677E-01
(PID.TID 0000.0001) %MON dynstat_eta_del2             =   5.8119365687076E-03
(PID.TID 0000.0001) %MON dynstat_uvel_max             =   1.2999836262239E-01
(PID.TID 0000.0001) %MON dynstat_uvel_min             =  -1.2999836262239E-01
(PID.TID 0000.0001) %MON dynstat_uvel_mean            =  -8.1380208333333E-18
(PID.TID 0000.0001) %MON dynstat_uvel_sd              =   1.8191098797991E-02
(PID.TID 0000.0001) %MON dynstat_uvel_del2            =   5.2395843809478E-04
(PID.TID 0000.0001) %MON dynstat_vvel_max             =   5.3556495314448E-03
(PID.TID 0000.0001) %MON dynstat_vvel_min             =  -5.3556495314450E-03
(PID.TID 0000.0001) %MON dynstat_vvel_mean            =  -2.7626752853394E-18
(PID.TID 0000.0001) %MON dynstat_vvel_sd              =   8.7670359992940E-04
(PID.TID 0000.0001) %MON dynstat_vvel_del2            =   6.7035507714216E-05
(PID.TID 0000.0001) %MON dynstat_wvel_max             =   1.3567465574062E-05
(PID.TID 0000.0001) %MON dynstat_wvel_min             =  -1.7843590511252E-05
(PID.TID 0000.0001) %MON dynstat_wvel_mean            =   1.4334131463044E-23
(PID.TID 0000.0001) %MON dynstat_wvel_sd              =   4.8047277999391E-06
(PID.TID 0000.0001) %MON dynstat_wvel_del2            =   3.3048356338196E-07
(PID.TID 0000.0001) %MON dynstat_theta_max            =   1.3322141015339E+01
(PID.TID 0000.0001) %MON dynstat_theta_min            =   6.2538435780500E+00
(PID.TID 0000.0001) %MON dynstat_theta_mean           =   8.1664787257509E+00
(PID.TID 0000.0001) %MON dynstat_theta_sd             =   1.4809335822043E+00
(PID.TID 0000.0001) %MON dynstat_theta_del2           =   7.1366497033886E-03
(PID.TID 0000.0001) %MON dynstat_salt_max             =   1.1996443047364E+01
(PID.TID 0000.0001) %MON dynstat_salt_min             =   1.0465118033043E+01
(PID.TID 0000.0001) %MON dynstat_salt_mean            =   1.1308856983614E+01
(PID.TID 0000.0001) %MON dynstat_salt_sd              =   5.1697070590410E-01
(PID.TID 0000.0001) %MON dynstat_salt_del2            =   5.5535965755110E-04
(PID.TID 0000.0001) %MON advcfl_uvel_max              =   4.6799410544059E-03
(PID.TID 0000.0001) %MON advcfl_vvel_max              =   1.9280338313202E-04
(PID.TID 0000.0001) %MON advcfl_wvel_max              =   1.6698061986828E-03
(PID.TID 0000.0001) %MON advcfl_W_hf_max              =   1.8144236265662E-03
(PID.TID 0000.0001) %MON pe_b_mean                    =   4.6161870072432E-05
(PID.TID 0000.0001) %MON ke_max                       =   8.4545778341521E-03
(PID.TID 0000.0001) %MON ke_mean                      =   1.6582953218684E-04
(PID.TID 0000.0001) %MON ke_vol                       =   6.0000000000000E+14
(PID.TID 0000.0001) // =======================================================
(PID.TID 0000.0001) // End MONITOR dynamic field statistics
(PID.TID 0000.0001) // =======================================================
 Compute Stats, Diag. #     23  ETAN      vol(   0 ): 3.000E+11  Parms: SM      M1      
 Compute Stats, Diag. #     30  UVEL      vol(   0 ): 6.000E+14  Parms: UUR     MR      
 Compute Stats, Diag. #     31  VVEL      vol(   0 ): 5.800E+14  Parms: VVR     MR      
 Compute Stats, Diag. #     32  WVEL      vol(   0 ): 5.513E+14  Parms: WM      LR      
 Compute Stats, Diag. #     26  THETA     vol(   0 ): 6.000E+14  Parms: SMR     MR      
 Compute Stats, Diag. #     76  MXLDEPTH  vol(   0 ): 3.000E+11  Parms: SM      M1      
 Compute Stats, Diag. #    190  GM_hTrsL  vol(   0 ): 3.000E+11  Parms: SM P    M1      
 Compute Stats, Diag. #    191  GM_baseS  vol(   0 ): 3.000E+11  Parms: SM P    M1      
 Compute Stats, Diag. #    192  GM_rLamb  vol(   0 ): 3.000E+11  Parms: SM P    M1      
 Compute Stats, Diag. #    201  GM_Kwy    vol(   0 ): 5.513E+14  Parms: VM      LR      
 Compute Stats, Diag. #    202  GM_Kwz    vol(   0 ): 5.513E+14  Parms: WM P    LR      
 Compute Stats, Diag. #    197  GM_Kvy    vol(   0 ): 5.800E+14  Parms: VV P    MR      
 cg2d: Sum(rhs),rhsMax =   5.04457586814056E-15  1.03059293005703E+00
(PID.TID 0000.0001)      cg2d_init_res =   1.49988429161509E-03
(PID.TID 0000.0001)      cg2d_iters(min,last) =      -1      15
(PID.TID 0000.0001)      cg2d_last_res =   8.26661630932229E-17
(PID.TID 0000.0001) // =======================================================
(PID.TID 0000.0001) // Begin MONITOR dynamic field statistics
(PID.TID 0000.0001) // =======================================================
(PID.TID 0000.0001) %MON time_tsnumber                =                    20
(PID.TID 0000.0001) %MON time_secondsf                =   7.2000000000000E+04
(PID.TID 0000.0001) %MON dynstat_eta_max              =   3.6282330108843E-01
(PID.TID 0000.0001) %MON dynstat_eta_min              =  -7.9417474271875E-02
(PID.TID 0000.0001) %MON dynstat_eta_mean             =  -3.0549367268880E-16
(PID.TID 0000.0001) %MON dynstat_eta_sd               =   1.3720080334212E-01
(PID.TID 0000.0001) %MON dynstat_eta_del2             =   5.8102830943428E-03
(PID.TID 0000.0001) %MON dynstat_uvel_max             =   1.3170566515740E-01
(PID.TID 0000.0001) %MON dynstat_uvel_min             =  -1.3170566515740E-01
(PID.TID 0000.0001) %MON dynstat_uvel_mean            =  -1.0579427083333E-17
(PID.TID 0000.0001) %MON dynstat_uvel_sd              =   1.8455045697511E-02
(PID.TID 0000.0001) %MON dynstat_uvel_del2            =   5.2873910198728E-04
(PID.TID 0000.0001) %MON dynstat_vvel_max             =   6.9034435952443E-03
(PID.TID 0000.0001) %MON dynstat_vvel_min             =  -6.9034435952444E-03
(PID.TID 0000.0001) %MON dynstat_vvel_mean            =   3.0581293434932E-18
(PID.TID 0000.0001) %MON dynstat_vvel_sd              =   1.2254206018603E-03
(PID.TID 0000.0001) %MON dynstat_vvel_del2            =   7.7000736539776E-05
(PID.TID 0000.0001) %MON dynstat_wvel_max             =   2.3444032092503E-05
(PID.TID 0000.0001) %MON dynstat_wvel_min             =  -2.0225793736058E-05
(PID.TID 0000.0001) %MON dynstat_wvel_mean            =   1.5688680488270E-23
(PID.TID 0000.0001) %MON dynstat_wvel_sd              =   6.1739589928717E-06
(PID.TID 0000.0001) %MON dynstat_wvel_del2            =   3.6771907480208E-07
(PID.TID 0000.0001) %MON dynstat_theta_max            =   1.3322104370264E+01
(PID.TID 0000.0001) %MON dynstat_theta_min            =   6.2538439941009E+00
(PID.TID 0000.0001) %MON dynstat_theta_mean           =   8.1664787305361E+00
(PID.TID 0000.0001) %MON dynstat_theta_sd             =   1.4809300460240E+00
(PID.TID 0000.0001) %MON dynstat_theta_del2           =   7.1339984360641E-03
(PID.TID 0000.0001) %MON dynstat_salt_max             =   1.1996441409375E+01
(PID.TID 0000.0001) %MON dynstat_salt_min             =   1.0465153702740E+01
(PID.TID 0000.0001) %MON dynstat_salt_mean            =   1.1308856984147E+01
(PID.TID 0000.0001) %MON dynstat_salt_sd              =   5.1696219660681E-01
(PID.TID 0000.0001) %MON dynstat_salt_del2            =   5.5542921629451E-04
(PID.TID 0000.0001) %MON advcfl_uvel_max              =   4.7414039456663E-03
(PID.TID 0000.0001) %MON advcfl_vvel_max              =   2.4852396942880E-04
(PID.TID 0000.0001) %MON advcfl_wvel_max              =   1.9671356865090E-03
(PID.TID 0000.0001) %MON advcfl_W_hf_max              =   2.1469219217943E-03
(PID.TID 0000.0001) %MON pe_b_mean                    =   4.6166008223515E-05
(PID.TID 0000.0001) %MON ke_max                       =   8.6875823485621E-03
(PID.TID 0000.0001) %MON ke_mean                      =   1.7102015608015E-04
(PID.TID 0000.0001) %MON ke_vol                       =   6.0000000000000E+14
(PID.TID 0000.0001) // =======================================================
(PID.TID 0000.0001) // End MONITOR dynamic field statistics
(PID.TID 0000.0001) // =======================================================
 Compute Stats, Diag. #     23  ETAN      vol(   0 ): 3.000E+11  Parms: SM      M1      
 Compute Stats, Diag. #     30  UVEL      vol(   0 ): 6.000E+14  Parms: UUR     MR      
 Compute Stats, Diag. #     31  VVEL      vol(   0 ): 5.800E+14  Parms: VVR     MR      
 Compute Stats, Diag. #     32  WVEL      vol(   0 ): 5.513E+14  Parms: WM      LR      
 Compute Stats, Diag. #     26  THETA     vol(   0 ): 6.000E+14  Parms: SMR     MR      
 Compute Stats, Diag. #     76  MXLDEPTH  vol(   0 ): 3.000E+11  Parms: SM      M1      
 Compute Stats, Diag. #    190  GM_hTrsL  vol(   0 ): 3.000E+11  Parms: SM P    M1      
 Compute Stats, Diag. #    191  GM_baseS  vol(   0 ): 3.000E+11  Parms: SM P    M1      
 Compute Stats, Diag. #    192  GM_rLamb  vol(   0 ): 3.000E+11  Parms: SM P    M1      
 Compute Stats, Diag. #    201  GM_Kwy    vol(   0 ): 5.513E+14  Parms: VM      LR      
 Compute Stats, Diag. #    202  GM_Kwz    vol(   0 ): 5.513E+14  Parms: WM P    LR      
 Compute Stats, Diag. #    197  GM_Kvy    vol(   0 ): 5.800E+14  Parms: VV P    MR      
 cg2d: Sum(rhs),rhsMax =   3.25434124093249E-15  1.02960879865666E+00
(PID.TID 0000.0001)      cg2d_init_res =   1.99143254657074E-03
(PID.TID 0000.0001)      cg2d_iters(min,last) =      -1      15
(PID.TID 0000.0001)      cg2d_last_res =   9.20656949241296E-17
(PID.TID 0000.0001) // =======================================================
(PID.TID 0000.0001) // Begin MONITOR dynamic field statistics
(PID.TID 0000.0001) // =======================================================
(PID.TID 0000.0001) %MON time_tsnumber                =                    21
(PID.TID 0000.0001) %MON time_secondsf                =   7.5600000000000E+04
(PID.TID 0000.0001) %MON dynstat_eta_max              =   3.6279416223148E-01
(PID.TID 0000.0001) %MON dynstat_eta_min              =  -7.9426955990989E-02
(PID.TID 0000.0001) %MON dynstat_eta_mean             =  -4.7175089518229E-16
(PID.TID 0000.0001) %MON dynstat_eta_sd               =   1.3721847396914E-01
(PID.TID 0000.0001) %MON dynstat_eta_del2             =   5.8079907067406E-03
(PID.TID 0000.0001) %MON dynstat_uvel_max             =   1.3409800875445E-01
(PID.TID 0000.0001) %MON dynstat_uvel_min             =  -1.3409800875445E-01
(PID.TID 0000.0001) %MON dynstat_uvel_mean            =  -8.9518229166667E-18
(PID.TID 0000.0001) %MON dynstat_uvel_sd              =   1.8801584074579E-02
(PID.TID 0000.0001) %MON dynstat_uvel_del2            =   5.3947683530782E-04
(PID.TID 0000.0001) %MON dynstat_vvel_max             =   9.5857995502321E-03
(PID.TID 0000.0001) %MON dynstat_vvel_min             =  -9.5857995502320E-03
(PID.TID 0000.0001) %MON dynstat_vvel_mean            =   5.6673740518504E-18
(PID.TID 0000.0001) %MON dynstat_vvel_sd              =   1.5029388041675E-03
(PID.TID 0000.0001) %MON dynstat_vvel_del2            =   8.9347450747384E-05
(PID.TID 0000.0001) %MON dynstat_wvel_max             =   3.0727318001248E-05
(PID.TID 0000.0001) %MON dynstat_wvel_min             =  -2.0794052399590E-05
(PID.TID 0000.0001) %MON dynstat_wvel_mean            =   3.5109382773203E-24
(PID.TID 0000.0001) %MON dynstat_wvel_sd              =   7.5348793623949E-06
(PID.TID 0000.0001) %MON dynstat_wvel_del2            =   4.0614675197618E-07
(PID.TID 0000.0001) %MON dynstat_theta_max            =   1.3322106574613E+01
(PID.TID 0000.0001) %MON dynstat_theta_min            =   6.2538444977422E+00
(PID.TID 0000.0001) %MON dynstat_theta_mean           =   8.1664787162195E+00
(PID.TID 0000.0001) %MON dynstat_theta_sd             =   1.4809264762526E+00
(PID.TID 0000.0001) %MON dynstat_theta_del2           =   7.1309704571012E-03
(PID.TID 0000.0001) %MON dynstat_salt_max             =   1.1996441012270E+01
(PID.TID 0000.0001) %MON dynstat_salt_min             =   1.0465189346924E+01
(PID.TID 0000.0001) %MON dynstat_salt_mean            =   1.1308856972161E+01
(PID.TID 0000.0001) %MON dynstat_salt_sd              =   5.1695368853687E-01
(PID.TID 0000.0001) %MON dynstat_salt_del2            =   5.5549960783566E-04
(PID.TID 0000.0001) %MON advcfl_uvel_max              =   4.8275283151603E-03
(PID.TID 0000.0001) %MON advcfl_vvel_max              =   3.4508878380835E-04
(PID.TID 0000.0001) %MON advcfl_wvel_max              =   2.6898000584823E-03
(PID.TID 0000.0001) %MON advcfl_W_hf_max              =   2.9299718788144E-03
(PID.TID 0000.0001) %MON pe_b_mean                    =   4.6177900790123E-05
(PID.TID 0000.0001) %MON ke_max                       =   9.0148375415644E-03
(PID.TID 0000.0001) %MON ke_mean                      =   1.7784154729712E-04
(PID.TID 0000.0001) %MON ke_vol                       =   6.0000000000000E+14
(PID.TID 0000.0001) // =======================================================
(PID.TID 0000.0001) // End MONITOR dynamic field statistics
(PID.TID 0000.0001) // =======================================================
 Compute Stats, Diag. #     23  ETAN      vol(   0 ): 3.000E+11  Parms: SM      M1      
 Compute Stats, Diag. #     30  UVEL      vol(   0 ): 6.000E+14  Parms: UUR     MR      
 Compute Stats, Diag. #     31  VVEL      vol(   0 ): 5.800E+14  Parms: VVR     MR      
 Compute Stats, Diag. #     32  WVEL      vol(   0 ): 5.513E+14  Parms: WM      LR      
 Compute Stats, Diag. #     26  THETA     vol(   0 ): 6.000E+14  Parms: SMR     MR      
 Compute Stats, Diag. #     76  MXLDEPTH  vol(   0 ): 3.000E+11  Parms: SM      M1      
 Compute Stats, Diag. #    190  GM_hTrsL  vol(   0 ): 3.000E+11  Parms: SM P    M1      
 Compute Stats, Diag. #    191  GM_baseS  vol(   0 ): 3.000E+11  Parms: SM P    M1      
 Compute Stats, Diag. #    192  GM_rLamb  vol(   0 ): 3.000E+11  Parms: SM P    M1      
 Compute Stats, Diag. #    201  GM_Kwy    vol(   0 ): 5.513E+14  Parms: VM      LR      
 Compute Stats, Diag. #    202  GM_Kwz    vol(   0 ): 5.513E+14  Parms: WM P    LR      
 Compute Stats, Diag. #    197  GM_Kvy    vol(   0 ): 5.800E+14  Parms: VV P    MR      
 cg2d: Sum(rhs),rhsMax =   5.39152056333592E-15  1.02840482212759E+00
(PID.TID 0000.0001)      cg2d_init_res =   2.37304786658100E-03
(PID.TID 0000.0001)      cg2d_iters(min,last) =      -1      15
(PID.TID 0000.0001)      cg2d_last_res =   2.76313784011593E-16
(PID.TID 0000.0001) // =======================================================
(PID.TID 0000.0001) // Begin MONITOR dynamic field statistics
(PID.TID 0000.0001) // =======================================================
(PID.TID 0000.0001) %MON time_tsnumber                =                    22
(PID.TID 0000.0001) %MON time_secondsf                =   7.9200000000000E+04
(PID.TID 0000.0001) %MON dynstat_eta_max              =   3.6274429872174E-01
(PID.TID 0000.0001) %MON dynstat_eta_min              =  -7.9436109654705E-02
(PID.TID 0000.0001) %MON dynstat_eta_mean             =  -2.4032592773438E-16
(PID.TID 0000.0001) %MON dynstat_eta_sd               =   1.3723209716847E-01
(PID.TID 0000.0001) %MON dynstat_eta_del2             =   5.8052867323519E-03
(PID.TID 0000.0001) %MON dynstat_uvel_max             =   1.3681978812730E-01
(PID.TID 0000.0001) %MON dynstat_uvel_min             =  -1.3681978812730E-01
(PID.TID 0000.0001) %MON dynstat_uvel_mean            =  -2.0345052083333E-18
(PID.TID 0000.0001) %MON dynstat_uvel_sd              =   1.9187287376103E-02
(PID.TID 0000.0001) %MON dynstat_uvel_del2            =   5.5470440724478E-04
(PID.TID 0000.0001) %MON dynstat_vvel_max             =   1.1217598173301E-02
(PID.TID 0000.0001) %MON dynstat_vvel_min             =  -1.1217598173301E-02
(PID.TID 0000.0001) %MON dynstat_vvel_mean            =   2.2746365645836E-18
(PID.TID 0000.0001) %MON dynstat_vvel_sd              =   1.6372909468463E-03
(PID.TID 0000.0001) %MON dynstat_vvel_del2            =   9.9248359342403E-05
(PID.TID 0000.0001) %MON dynstat_wvel_max             =   3.4684461978412E-05
(PID.TID 0000.0001) %MON dynstat_wvel_min             =  -1.9480457895188E-05
(PID.TID 0000.0001) %MON dynstat_wvel_mean            =   5.3799189542697E-23
(PID.TID 0000.0001) %MON dynstat_wvel_sd              =   8.4018872426612E-06
(PID.TID 0000.0001) %MON dynstat_wvel_del2            =   4.3555791734686E-07
(PID.TID 0000.0001) %MON dynstat_theta_max            =   1.3322134885953E+01
(PID.TID 0000.0001) %MON dynstat_theta_min            =   6.2538450836967E+00
(PID.TID 0000.0001) %MON dynstat_theta_mean           =   8.1664787015369E+00
(PID.TID 0000.0001) %MON dynstat_theta_sd             =   1.4809229090599E+00
(PID.TID 0000.0001) %MON dynstat_theta_del2           =   7.1277254159315E-03
(PID.TID 0000.0001) %MON dynstat_salt_max             =   1.1996441452526E+01
(PID.TID 0000.0001) %MON dynstat_salt_min             =   1.0465224966461E+01
(PID.TID 0000.0001) %MON dynstat_salt_mean            =   1.1308856959811E+01
(PID.TID 0000.0001) %MON dynstat_salt_sd              =   5.1694518096208E-01
(PID.TID 0000.0001) %MON dynstat_salt_del2            =   5.5557033982095E-04
(PID.TID 0000.0001) %MON advcfl_uvel_max              =   4.9255123725827E-03
(PID.TID 0000.0001) %MON advcfl_vvel_max              =   4.0383353423884E-04
(PID.TID 0000.0001) %MON advcfl_wvel_max              =   3.1180573250061E-03
(PID.TID 0000.0001) %MON advcfl_W_hf_max              =   3.3926320220578E-03
(PID.TID 0000.0001) %MON pe_b_mean                    =   4.6187070429709E-05
(PID.TID 0000.0001) %MON ke_max                       =   9.3875046738916E-03
(PID.TID 0000.0001) %MON ke_mean                      =   1.8537168055481E-04
(PID.TID 0000.0001) %MON ke_vol                       =   6.0000000000000E+14
(PID.TID 0000.0001) // =======================================================
(PID.TID 0000.0001) // End MONITOR dynamic field statistics
(PID.TID 0000.0001) // =======================================================
 Compute Stats, Diag. #     23  ETAN      vol(   0 ): 3.000E+11  Parms: SM      M1      
 Compute Stats, Diag. #     30  UVEL      vol(   0 ): 6.000E+14  Parms: UUR     MR      
 Compute Stats, Diag. #     31  VVEL      vol(   0 ): 5.800E+14  Parms: VVR     MR      
 Compute Stats, Diag. #     32  WVEL      vol(   0 ): 5.513E+14  Parms: WM      LR      
 Compute Stats, Diag. #     26  THETA     vol(   0 ): 6.000E+14  Parms: SMR     MR      
 Compute Stats, Diag. #     76  MXLDEPTH  vol(   0 ): 3.000E+11  Parms: SM      M1      
 Compute Stats, Diag. #    190  GM_hTrsL  vol(   0 ): 3.000E+11  Parms: SM P    M1      
 Compute Stats, Diag. #    191  GM_baseS  vol(   0 ): 3.000E+11  Parms: SM P    M1      
 Compute Stats, Diag. #    192  GM_rLamb  vol(   0 ): 3.000E+11  Parms: SM P    M1      
 Compute Stats, Diag. #    201  GM_Kwy    vol(   0 ): 5.513E+14  Parms: VM      LR      
 Compute Stats, Diag. #    202  GM_Kwz    vol(   0 ): 5.513E+14  Parms: WM P    LR      
 Compute Stats, Diag. #    197  GM_Kvy    vol(   0 ): 5.800E+14  Parms: VV P    MR      
 cg2d: Sum(rhs),rhsMax =   3.31679128606766E-15  1.02707764663083E+00
(PID.TID 0000.0001)      cg2d_init_res =   2.59774528905910E-03
(PID.TID 0000.0001)      cg2d_iters(min,last) =      -1      15
(PID.TID 0000.0001)      cg2d_last_res =   3.00866028321978E-16
(PID.TID 0000.0001) // =======================================================
(PID.TID 0000.0001) // Begin MONITOR dynamic field statistics
(PID.TID 0000.0001) // =======================================================
(PID.TID 0000.0001) %MON time_tsnumber                =                    23
(PID.TID 0000.0001) %MON time_secondsf                =   8.2800000000000E+04
(PID.TID 0000.0001) %MON dynstat_eta_max              =   3.6267433620362E-01
(PID.TID 0000.0001) %MON dynstat_eta_min              =  -7.9444170813703E-02
(PID.TID 0000.0001) %MON dynstat_eta_mean             =  -1.8469492594401E-16
(PID.TID 0000.0001) %MON dynstat_eta_sd               =   1.3723845109868E-01
(PID.TID 0000.0001) %MON dynstat_eta_del2             =   5.8024576837513E-03
(PID.TID 0000.0001) %MON dynstat_uvel_max             =   1.3948183988997E-01
(PID.TID 0000.0001) %MON dynstat_uvel_min             =  -1.3948183988997E-01
(PID.TID 0000.0001) %MON dynstat_uvel_mean            =  -1.2207031250000E-18
(PID.TID 0000.0001) %MON dynstat_uvel_sd              =   1.9563877570749E-02
(PID.TID 0000.0001) %MON dynstat_uvel_del2            =   5.7245370888355E-04
(PID.TID 0000.0001) %MON dynstat_vvel_max             =   1.1661091442688E-02
(PID.TID 0000.0001) %MON dynstat_vvel_min             =  -1.1661091442688E-02
(PID.TID 0000.0001) %MON dynstat_vvel_mean            =  -8.9335030522840E-19
(PID.TID 0000.0001) %MON dynstat_vvel_sd              =   1.6096751319432E-03
(PID.TID 0000.0001) %MON dynstat_vvel_del2            =   1.0401528973329E-04
(PID.TID 0000.0001) %MON dynstat_wvel_max             =   3.4980753505904E-05
(PID.TID 0000.0001) %MON dynstat_wvel_min             =  -1.6427819294470E-05
(PID.TID 0000.0001) %MON dynstat_wvel_mean            =  -4.3451160935858E-23
(PID.TID 0000.0001) %MON dynstat_wvel_sd              =   8.5867174123893E-06
(PID.TID 0000.0001) %MON dynstat_wvel_del2            =   4.4935983701583E-07
(PID.TID 0000.0001) %MON dynstat_theta_max            =   1.3322174142387E+01
(PID.TID 0000.0001) %MON dynstat_theta_min            =   6.2538457402437E+00
(PID.TID 0000.0001) %MON dynstat_theta_mean           =   8.1664786946132E+00
(PID.TID 0000.0001) %MON dynstat_theta_sd             =   1.4809193595440E+00
(PID.TID 0000.0001) %MON dynstat_theta_del2           =   7.1244450672504E-03
(PID.TID 0000.0001) %MON dynstat_salt_max             =   1.1996442250306E+01
(PID.TID 0000.0001) %MON dynstat_salt_min             =   1.0465260563270E+01
(PID.TID 0000.0001) %MON dynstat_salt_mean            =   1.1308856952584E+01
(PID.TID 0000.0001) %MON dynstat_salt_sd              =   5.1693667353774E-01
(PID.TID 0000.0001) %MON dynstat_salt_del2            =   5.5564091264809E-04
(PID.TID 0000.0001) %MON advcfl_uvel_max              =   5.0213462360390E-03
(PID.TID 0000.0001) %MON advcfl_vvel_max              =   4.1979929193678E-04
(PID.TID 0000.0001) %MON advcfl_wvel_max              =   3.2167156908625E-03
(PID.TID 0000.0001) %MON advcfl_W_hf_max              =   3.4967586629893E-03
(PID.TID 0000.0001) %MON pe_b_mean                    =   4.6191347508061E-05
(PID.TID 0000.0001) %MON ke_max                       =   9.7519734559423E-03
(PID.TID 0000.0001) %MON ke_mean                      =   1.9262499558299E-04
(PID.TID 0000.0001) %MON ke_vol                       =   6.0000000000000E+14
(PID.TID 0000.0001) // =======================================================
(PID.TID 0000.0001) // End MONITOR dynamic field statistics
(PID.TID 0000.0001) // =======================================================
 Compute Stats, Diag. #     23  ETAN      vol(   0 ): 3.000E+11  Parms: SM      M1      
 Compute Stats, Diag. #     30  UVEL      vol(   0 ): 6.000E+14  Parms: UUR     MR      
 Compute Stats, Diag. #     31  VVEL      vol(   0 ): 5.800E+14  Parms: VVR     MR      
 Compute Stats, Diag. #     32  WVEL      vol(   0 ): 5.513E+14  Parms: WM      LR      
 Compute Stats, Diag. #     26  THETA     vol(   0 ): 6.000E+14  Parms: SMR     MR      
 Compute Stats, Diag. #     76  MXLDEPTH  vol(   0 ): 3.000E+11  Parms: SM      M1      
 Compute Stats, Diag. #    190  GM_hTrsL  vol(   0 ): 3.000E+11  Parms: SM P    M1      
 Compute Stats, Diag. #    191  GM_baseS  vol(   0 ): 3.000E+11  Parms: SM P    M1      
 Compute Stats, Diag. #    192  GM_rLamb  vol(   0 ): 3.000E+11  Parms: SM P    M1      
 Compute Stats, Diag. #    201  GM_Kwy    vol(   0 ): 5.513E+14  Parms: VM      LR      
 Compute Stats, Diag. #    202  GM_Kwz    vol(   0 ): 5.513E+14  Parms: WM P    LR      
 Compute Stats, Diag. #    197  GM_Kvy    vol(   0 ): 5.800E+14  Parms: VV P    MR      
 cg2d: Sum(rhs),rhsMax =   1.78329573330416E-15  1.02574659552846E+00
(PID.TID 0000.0001)      cg2d_init_res =   2.64019460539604E-03
(PID.TID 0000.0001)      cg2d_iters(min,last) =      -1      15
(PID.TID 0000.0001)      cg2d_last_res =   1.85363859599151E-16
(PID.TID 0000.0001) // =======================================================
(PID.TID 0000.0001) // Begin MONITOR dynamic field statistics
(PID.TID 0000.0001) // =======================================================
(PID.TID 0000.0001) %MON time_tsnumber                =                    24
(PID.TID 0000.0001) %MON time_secondsf                =   8.6400000000000E+04
(PID.TID 0000.0001) %MON dynstat_eta_max              =   3.6260143353642E-01
(PID.TID 0000.0001) %MON dynstat_eta_min              =  -7.9450389484199E-02
(PID.TID 0000.0001) %MON dynstat_eta_mean             =  -1.4273325602214E-16
(PID.TID 0000.0001) %MON dynstat_eta_sd               =   1.3724244082946E-01
(PID.TID 0000.0001) %MON dynstat_eta_del2             =   5.7998038447615E-03
(PID.TID 0000.0001) %MON dynstat_uvel_max             =   1.4171315896004E-01
(PID.TID 0000.0001) %MON dynstat_uvel_min             =  -1.4171315896004E-01
(PID.TID 0000.0001) %MON dynstat_uvel_mean            =  -4.8828125000000E-18
(PID.TID 0000.0001) %MON dynstat_uvel_sd              =   1.9883879831232E-02
(PID.TID 0000.0001) %MON dynstat_uvel_del2            =   5.9047760118664E-04
(PID.TID 0000.0001) %MON dynstat_vvel_max             =   1.0914399636770E-02
(PID.TID 0000.0001) %MON dynstat_vvel_min             =  -1.0914399636771E-02
(PID.TID 0000.0001) %MON dynstat_vvel_mean            =  -1.4656114167181E-17
(PID.TID 0000.0001) %MON dynstat_vvel_sd              =   1.4363857563965E-03
(PID.TID 0000.0001) %MON dynstat_vvel_del2            =   1.0273521485469E-04
(PID.TID 0000.0001) %MON dynstat_wvel_max             =   3.1773928923340E-05
(PID.TID 0000.0001) %MON dynstat_wvel_min             =  -1.6175572373229E-05
(PID.TID 0000.0001) %MON dynstat_wvel_mean            =   1.9893557036004E-22
(PID.TID 0000.0001) %MON dynstat_wvel_sd              =   8.0837673359496E-06
(PID.TID 0000.0001) %MON dynstat_wvel_del2            =   4.4491806256530E-07
(PID.TID 0000.0001) %MON dynstat_theta_max            =   1.3322208528219E+01
(PID.TID 0000.0001) %MON dynstat_theta_min            =   6.2538464505918E+00
(PID.TID 0000.0001) %MON dynstat_theta_mean           =   8.1664786930788E+00
(PID.TID 0000.0001) %MON dynstat_theta_sd             =   1.4809158223716E+00
(PID.TID 0000.0001) %MON dynstat_theta_del2           =   7.1213088204991E-03
(PID.TID 0000.0001) %MON dynstat_salt_max             =   1.1996443243174E+01
(PID.TID 0000.0001) %MON dynstat_salt_min             =   1.0465296140097E+01
(PID.TID 0000.0001) %MON dynstat_salt_mean            =   1.1308856949320E+01
(PID.TID 0000.0001) %MON dynstat_salt_sd              =   5.1692816631124E-01
(PID.TID 0000.0001) %MON dynstat_salt_del2            =   5.5571088134941E-04
(PID.TID 0000.0001) %MON advcfl_uvel_max              =   5.1016737225616E-03
(PID.TID 0000.0001) %MON advcfl_vvel_max              =   3.9291838692374E-04
(PID.TID 0000.0001) %MON advcfl_wvel_max              =   2.9879016363994E-03
(PID.TID 0000.0001) %MON advcfl_W_hf_max              =   3.2448539896721E-03
(PID.TID 0000.0001) %MON pe_b_mean                    =   4.6194033252739E-05
(PID.TID 0000.0001) %MON ke_max                       =   1.0057068523686E-02
(PID.TID 0000.0001) %MON ke_mean                      =   1.9868155385801E-04
(PID.TID 0000.0001) %MON ke_vol                       =   6.0000000000000E+14
(PID.TID 0000.0001) // =======================================================
(PID.TID 0000.0001) // End MONITOR dynamic field statistics
(PID.TID 0000.0001) // =======================================================
 Compute Stats, Diag. #     23  ETAN      vol(   0 ): 3.000E+11  Parms: SM      M1      
 Compute Stats, Diag. #     30  UVEL      vol(   0 ): 6.000E+14  Parms: UUR     MR      
 Compute Stats, Diag. #     31  VVEL      vol(   0 ): 5.800E+14  Parms: VVR     MR      
 Compute Stats, Diag. #     32  WVEL      vol(   0 ): 5.513E+14  Parms: WM      LR      
 Compute Stats, Diag. #     26  THETA     vol(   0 ): 6.000E+14  Parms: SMR     MR      
 Compute Stats, Diag. #     76  MXLDEPTH  vol(   0 ): 3.000E+11  Parms: SM      M1      
 Compute Stats, Diag. #    190  GM_hTrsL  vol(   0 ): 3.000E+11  Parms: SM P    M1      
 Compute Stats, Diag. #    191  GM_baseS  vol(   0 ): 3.000E+11  Parms: SM P    M1      
 Compute Stats, Diag. #    192  GM_rLamb  vol(   0 ): 3.000E+11  Parms: SM P    M1      
 Compute Stats, Diag. #    201  GM_Kwy    vol(   0 ): 5.513E+14  Parms: VM      LR      
 Compute Stats, Diag. #    202  GM_Kwz    vol(   0 ): 5.513E+14  Parms: WM P    LR      
 Compute Stats, Diag. #    197  GM_Kvy    vol(   0 ): 5.800E+14  Parms: VV P    MR      
 cg2d: Sum(rhs),rhsMax =   1.71390679426509E-15  1.02453006374679E+00
(PID.TID 0000.0001)      cg2d_init_res =   2.49719596514072E-03
(PID.TID 0000.0001)      cg2d_iters(min,last) =      -1      15
(PID.TID 0000.0001)      cg2d_last_res =   2.07287635529790E-16
(PID.TID 0000.0001) // =======================================================
(PID.TID 0000.0001) // Begin MONITOR dynamic field statistics
(PID.TID 0000.0001) // =======================================================
(PID.TID 0000.0001) %MON time_tsnumber                =                    25
(PID.TID 0000.0001) %MON time_secondsf                =   9.0000000000000E+04
(PID.TID 0000.0001) %MON dynstat_eta_max              =   3.6254345365845E-01
(PID.TID 0000.0001) %MON dynstat_eta_min              =  -7.9454151851277E-02
(PID.TID 0000.0001) %MON dynstat_eta_mean             =  -4.4218699137370E-16
(PID.TID 0000.0001) %MON dynstat_eta_sd               =   1.3724952278494E-01
(PID.TID 0000.0001) %MON dynstat_eta_del2             =   5.7975902884531E-03
(PID.TID 0000.0001) %MON dynstat_uvel_max             =   1.4320918906173E-01
(PID.TID 0000.0001) %MON dynstat_uvel_min             =  -1.4320918906173E-01
(PID.TID 0000.0001) %MON dynstat_uvel_mean            =  -1.5055338541667E-17
(PID.TID 0000.0001) %MON dynstat_uvel_sd              =   2.0106929236510E-02
(PID.TID 0000.0001) %MON dynstat_uvel_del2            =   6.0652238970158E-04
(PID.TID 0000.0001) %MON dynstat_vvel_max             =   9.1068802963012E-03
(PID.TID 0000.0001) %MON dynstat_vvel_min             =  -9.1068802963014E-03
(PID.TID 0000.0001) %MON dynstat_vvel_mean            =  -1.9211707444027E-17
(PID.TID 0000.0001) %MON dynstat_vvel_sd              =   1.1683546716097E-03
(PID.TID 0000.0001) %MON dynstat_vvel_del2            =   9.5964356269159E-05
(PID.TID 0000.0001) %MON dynstat_wvel_max             =   2.5541818046336E-05
(PID.TID 0000.0001) %MON dynstat_wvel_min             =  -1.4169502544147E-05
(PID.TID 0000.0001) %MON dynstat_wvel_mean            =   3.6429284381218E-24
(PID.TID 0000.0001) %MON dynstat_wvel_sd              =   7.0399151718547E-06
(PID.TID 0000.0001) %MON dynstat_wvel_del2            =   4.2347966708007E-07
(PID.TID 0000.0001) %MON dynstat_theta_max            =   1.3322223344778E+01
(PID.TID 0000.0001) %MON dynstat_theta_min            =   6.2538471920607E+00
(PID.TID 0000.0001) %MON dynstat_theta_mean           =   8.1664786913162E+00
(PID.TID 0000.0001) %MON dynstat_theta_sd             =   1.4809122864196E+00
(PID.TID 0000.0001) %MON dynstat_theta_del2           =   7.1184707465234E-03
(PID.TID 0000.0001) %MON dynstat_salt_max             =   1.1996444230357E+01
(PID.TID 0000.0001) %MON dynstat_salt_min             =   1.0465331700648E+01
(PID.TID 0000.0001) %MON dynstat_salt_mean            =   1.1308856946726E+01
(PID.TID 0000.0001) %MON dynstat_salt_sd              =   5.1691965947042E-01
(PID.TID 0000.0001) %MON dynstat_salt_del2            =   5.5577991016452E-04
(PID.TID 0000.0001) %MON advcfl_uvel_max              =   5.1555308062224E-03
(PID.TID 0000.0001) %MON advcfl_vvel_max              =   3.2784769066685E-04
(PID.TID 0000.0001) %MON advcfl_wvel_max              =   2.4692615743660E-03
(PID.TID 0000.0001) %MON advcfl_W_hf_max              =   2.6781127359434E-03
(PID.TID 0000.0001) %MON pe_b_mean                    =   4.6198800765264E-05
(PID.TID 0000.0001) %MON ke_max                       =   1.0260881183524E-02
(PID.TID 0000.0001) %MON ke_mean                      =   2.0280407710304E-04
(PID.TID 0000.0001) %MON ke_vol                       =   6.0000000000000E+14
(PID.TID 0000.0001) // =======================================================
(PID.TID 0000.0001) // End MONITOR dynamic field statistics
(PID.TID 0000.0001) // =======================================================
 Computing Diagnostic #     23  ETAN         Counter:       1   Parms: SM      M1      
 Computing Diagnostic #     24  ETANSQ       Counter:       1   Parms: SM P    M1      
 Computing Diagnostic #     25  DETADT2      Counter:       1   Parms: SM      M1      
 Computing Diagnostic #     73  PHIBOT       Counter:       1   Parms: SM      M1      
 Computing Diagnostic #     74  PHIBOTSQ     Counter:       1   Parms: SM P    M1      
 Computing Diagnostic #     76  MXLDEPTH     Counter:       1   Parms: SM      M1      
 Computing Diagnostic #    190  GM_hTrsL     Counter:       1   Parms: SM P    M1      
 Computing Diagnostic #    191  GM_baseS     Counter:       1   Parms: SM P    M1      
 Computing Diagnostic #    192  GM_rLamb     Counter:       1   Parms: SM P    M1      
 Compute Stats, Diag. #     23  ETAN      vol(   0 ): 3.000E+11  Parms: SM      M1      
 Compute Stats, Diag. #     30  UVEL      vol(   0 ): 6.000E+14  Parms: UUR     MR      
 Compute Stats, Diag. #     31  VVEL      vol(   0 ): 5.800E+14  Parms: VVR     MR      
 Compute Stats, Diag. #     32  WVEL      vol(   0 ): 5.513E+14  Parms: WM      LR      
 Compute Stats, Diag. #     26  THETA     vol(   0 ): 6.000E+14  Parms: SMR     MR      
 Compute Stats, Diag. #     76  MXLDEPTH  vol(   0 ): 3.000E+11  Parms: SM      M1      
 Compute Stats, Diag. #    190  GM_hTrsL  vol(   0 ): 3.000E+11  Parms: SM P    M1      
 Compute Stats, Diag. #    191  GM_baseS  vol(   0 ): 3.000E+11  Parms: SM P    M1      
 Compute Stats, Diag. #    192  GM_rLamb  vol(   0 ): 3.000E+11  Parms: SM P    M1      
 Compute Stats, Diag. #    201  GM_Kwy    vol(   0 ): 5.513E+14  Parms: VM      LR      
 Compute Stats, Diag. #    202  GM_Kwz    vol(   0 ): 5.513E+14  Parms: WM P    LR      
 Compute Stats, Diag. #    197  GM_Kvy    vol(   0 ): 5.800E+14  Parms: VV P    MR      
(PID.TID 0000.0001) DIAGSTATS_CLOSE_IO: close file: dynStDiag.0000000000.txt , unit=     9
(PID.TID 0000.0001) %CHECKPOINT        25 ckptA
(PID.TID 0000.0001)   Seconds in section "ALL                    [THE_MODEL_MAIN]":
(PID.TID 0000.0001)           User time:   1.5527640529908240
(PID.TID 0000.0001)         System time:  8.99900018703192472E-003
(PID.TID 0000.0001)     Wall clock time:   1.5681591033935547
(PID.TID 0000.0001)          No. starts:           1
(PID.TID 0000.0001)           No. stops:           1
(PID.TID 0000.0001)   Seconds in section "INITIALISE_FIXED       [THE_MODEL_MAIN]":
(PID.TID 0000.0001)           User time:  2.89949984289705753E-002
(PID.TID 0000.0001)         System time:  1.00000004749745131E-003
(PID.TID 0000.0001)     Wall clock time:  3.05650234222412109E-002
(PID.TID 0000.0001)          No. starts:           1
(PID.TID 0000.0001)           No. stops:           1
(PID.TID 0000.0001)   Seconds in section "THE_MAIN_LOOP          [THE_MODEL_MAIN]":
(PID.TID 0000.0001)           User time:   1.5237690545618534
(PID.TID 0000.0001)         System time:  7.99900013953447342E-003
(PID.TID 0000.0001)     Wall clock time:   1.5375587940216064
(PID.TID 0000.0001)          No. starts:           1
(PID.TID 0000.0001)           No. stops:           1
(PID.TID 0000.0001)   Seconds in section "INITIALISE_VARIA    [THE_MAIN_LOOP]":
(PID.TID 0000.0001)           User time:  1.49980001151561737E-002
(PID.TID 0000.0001)         System time:  9.99999931082129478E-004
(PID.TID 0000.0001)     Wall clock time:  1.55920982360839844E-002
(PID.TID 0000.0001)          No. starts:           1
(PID.TID 0000.0001)           No. stops:           1
(PID.TID 0000.0001)   Seconds in section "MAIN LOOP           [THE_MAIN_LOOP]":
(PID.TID 0000.0001)           User time:   1.5087710544466972
(PID.TID 0000.0001)         System time:  6.99900020845234394E-003
(PID.TID 0000.0001)     Wall clock time:   1.5219399929046631
(PID.TID 0000.0001)          No. starts:           1
(PID.TID 0000.0001)           No. stops:           1
(PID.TID 0000.0001)   Seconds in section "MAIN_DO_LOOP        [THE_MAIN_LOOP]":
(PID.TID 0000.0001)           User time:   1.5087710544466972
(PID.TID 0000.0001)         System time:  6.99900020845234394E-003
(PID.TID 0000.0001)     Wall clock time:   1.5217208862304688
(PID.TID 0000.0001)          No. starts:          25
(PID.TID 0000.0001)           No. stops:          25
(PID.TID 0000.0001)   Seconds in section "FORWARD_STEP        [MAIN_DO_LOOP]":
(PID.TID 0000.0001)           User time:   1.5087710544466972
(PID.TID 0000.0001)         System time:  6.99900020845234394E-003
(PID.TID 0000.0001)     Wall clock time:   1.5212917327880859
(PID.TID 0000.0001)          No. starts:          25
(PID.TID 0000.0001)           No. stops:          25
(PID.TID 0000.0001)   Seconds in section "DO_STATEVARS_DIAGS  [FORWARD_STEP]":
(PID.TID 0000.0001)           User time:  1.59982591867446899E-002
(PID.TID 0000.0001)         System time:  9.99999931082129478E-004
(PID.TID 0000.0001)     Wall clock time:  1.40347480773925781E-002
(PID.TID 0000.0001)          No. starts:          50
(PID.TID 0000.0001)           No. stops:          50
(PID.TID 0000.0001)   Seconds in section "LOAD_FIELDS_DRIVER  [FORWARD_STEP]":
(PID.TID 0000.0001)           User time:  1.00000202655792236E-003
(PID.TID 0000.0001)         System time:   0.0000000000000000
(PID.TID 0000.0001)     Wall clock time:  6.55651092529296875E-004
(PID.TID 0000.0001)          No. starts:          25
(PID.TID 0000.0001)           No. stops:          25
(PID.TID 0000.0001)   Seconds in section "EXTERNAL_FLDS_LOAD [LOAD_FLDS_DRIVER]":
(PID.TID 0000.0001)           User time:  1.00000202655792236E-003
(PID.TID 0000.0001)         System time:   0.0000000000000000
(PID.TID 0000.0001)     Wall clock time:  2.21967697143554688E-004
(PID.TID 0000.0001)          No. starts:          25
(PID.TID 0000.0001)           No. stops:          25
(PID.TID 0000.0001)   Seconds in section "DO_ATMOSPHERIC_PHYS [FORWARD_STEP]":
(PID.TID 0000.0001)           User time:   0.0000000000000000
(PID.TID 0000.0001)         System time:   0.0000000000000000
(PID.TID 0000.0001)     Wall clock time:  2.17437744140625000E-004
(PID.TID 0000.0001)          No. starts:          25
(PID.TID 0000.0001)           No. stops:          25
(PID.TID 0000.0001)   Seconds in section "DO_OCEANIC_PHYS     [FORWARD_STEP]":
(PID.TID 0000.0001)           User time:  0.23796199634671211
(PID.TID 0000.0001)         System time:   0.0000000000000000
(PID.TID 0000.0001)     Wall clock time:  0.24288916587829590
(PID.TID 0000.0001)          No. starts:          25
(PID.TID 0000.0001)           No. stops:          25
(PID.TID 0000.0001)   Seconds in section "THERMODYNAMICS      [FORWARD_STEP]":
(PID.TID 0000.0001)           User time:  0.47792789712548256
(PID.TID 0000.0001)         System time:   0.0000000000000000
(PID.TID 0000.0001)     Wall clock time:  0.48038792610168457
(PID.TID 0000.0001)          No. starts:          25
(PID.TID 0000.0001)           No. stops:          25
(PID.TID 0000.0001)   Seconds in section "DYNAMICS            [FORWARD_STEP]":
(PID.TID 0000.0001)           User time:  0.52491999417543411
(PID.TID 0000.0001)         System time:   0.0000000000000000
(PID.TID 0000.0001)     Wall clock time:  0.52346134185791016
(PID.TID 0000.0001)          No. starts:          25
(PID.TID 0000.0001)           No. stops:          25
(PID.TID 0000.0001)   Seconds in section "SOLVE_FOR_PRESSURE  [FORWARD_STEP]":
(PID.TID 0000.0001)           User time:  2.09962278604507446E-002
(PID.TID 0000.0001)         System time:   0.0000000000000000
(PID.TID 0000.0001)     Wall clock time:  2.20577716827392578E-002
(PID.TID 0000.0001)          No. starts:          25
(PID.TID 0000.0001)           No. stops:          25
(PID.TID 0000.0001)   Seconds in section "MOM_CORRECTION_STEP [FORWARD_STEP]":
(PID.TID 0000.0001)           User time:  2.09961533546447754E-002
(PID.TID 0000.0001)         System time:   0.0000000000000000
(PID.TID 0000.0001)     Wall clock time:  2.08775997161865234E-002
(PID.TID 0000.0001)          No. starts:          25
(PID.TID 0000.0001)           No. stops:          25
(PID.TID 0000.0001)   Seconds in section "INTEGR_CONTINUITY   [FORWARD_STEP]":
(PID.TID 0000.0001)           User time:  6.99883699417114258E-003
(PID.TID 0000.0001)         System time:   0.0000000000000000
(PID.TID 0000.0001)     Wall clock time:  7.22622871398925781E-003
(PID.TID 0000.0001)          No. starts:          25
(PID.TID 0000.0001)           No. stops:          25
(PID.TID 0000.0001)   Seconds in section "TRC_CORRECTION_STEP [FORWARD_STEP]":
(PID.TID 0000.0001)           User time:  4.99950125813484192E-002
(PID.TID 0000.0001)         System time:   0.0000000000000000
(PID.TID 0000.0001)     Wall clock time:  4.85894680023193359E-002
(PID.TID 0000.0001)          No. starts:          25
(PID.TID 0000.0001)           No. stops:          25
(PID.TID 0000.0001)   Seconds in section "BLOCKING_EXCHANGES  [FORWARD_STEP]":
(PID.TID 0000.0001)           User time:  5.99887296557426453E-002
(PID.TID 0000.0001)         System time:   0.0000000000000000
(PID.TID 0000.0001)     Wall clock time:  6.24570846557617188E-002
(PID.TID 0000.0001)          No. starts:          25
(PID.TID 0000.0001)           No. stops:          25
(PID.TID 0000.0001)   Seconds in section "MONITOR             [FORWARD_STEP]":
(PID.TID 0000.0001)           User time:  4.39942032098770142E-002
(PID.TID 0000.0001)         System time:   0.0000000000000000
(PID.TID 0000.0001)     Wall clock time:  4.34703826904296875E-002
(PID.TID 0000.0001)          No. starts:          25
(PID.TID 0000.0001)           No. stops:          25
(PID.TID 0000.0001)   Seconds in section "DO_THE_MODEL_IO     [FORWARD_STEP]":
(PID.TID 0000.0001)           User time:  4.69936951994895935E-002
(PID.TID 0000.0001)         System time:  4.99900011345744133E-003
(PID.TID 0000.0001)     Wall clock time:  4.99794483184814453E-002
(PID.TID 0000.0001)          No. starts:          25
(PID.TID 0000.0001)           No. stops:          25
(PID.TID 0000.0001)   Seconds in section "DO_WRITE_PICKUP     [FORWARD_STEP]":
(PID.TID 0000.0001)           User time:   0.0000000000000000
(PID.TID 0000.0001)         System time:  1.00000016391277313E-003
(PID.TID 0000.0001)     Wall clock time:  1.34611129760742188E-003
(PID.TID 0000.0001)          No. starts:          25
(PID.TID 0000.0001)           No. stops:          25
(PID.TID 0000.0001) // ======================================================
(PID.TID 0000.0001) // Tile <-> Tile communication statistics
(PID.TID 0000.0001) // ======================================================
(PID.TID 0000.0001) // o Tile number: 000001
(PID.TID 0000.0001) //         No. X exchanges =              0
(PID.TID 0000.0001) //            Max. X spins =              0
(PID.TID 0000.0001) //            Min. X spins =     1000000000
(PID.TID 0000.0001) //          Total. X spins =              0
(PID.TID 0000.0001) //            Avg. X spins =       0.00E+00
(PID.TID 0000.0001) //         No. Y exchanges =              0
(PID.TID 0000.0001) //            Max. Y spins =              0
(PID.TID 0000.0001) //            Min. Y spins =     1000000000
(PID.TID 0000.0001) //          Total. Y spins =              0
(PID.TID 0000.0001) //            Avg. Y spins =       0.00E+00
(PID.TID 0000.0001) // o Tile number: 000002
(PID.TID 0000.0001) //         No. X exchanges =              0
(PID.TID 0000.0001) //            Max. X spins =              0
(PID.TID 0000.0001) //            Min. X spins =     1000000000
(PID.TID 0000.0001) //          Total. X spins =              0
(PID.TID 0000.0001) //            Avg. X spins =       0.00E+00
(PID.TID 0000.0001) //         No. Y exchanges =              0
(PID.TID 0000.0001) //            Max. Y spins =              0
(PID.TID 0000.0001) //            Min. Y spins =     1000000000
(PID.TID 0000.0001) //          Total. Y spins =              0
(PID.TID 0000.0001) //            Avg. Y spins =       0.00E+00
(PID.TID 0000.0001) // o Thread number: 000001
(PID.TID 0000.0001) //            No. barriers =          50764
(PID.TID 0000.0001) //      Max. barrier spins =              1
(PID.TID 0000.0001) //      Min. barrier spins =              1
(PID.TID 0000.0001) //     Total barrier spins =          50764
(PID.TID 0000.0001) //      Avg. barrier spins =       1.00E+00
PROGRAM MAIN: Execution ended Normally
