(PID.TID 0000.0001) 
(PID.TID 0000.0001) // ======================================================
(PID.TID 0000.0001) //                      MITgcm UV
(PID.TID 0000.0001) //                      =========
(PID.TID 0000.0001) // ======================================================
(PID.TID 0000.0001) // execution environment starting up...
(PID.TID 0000.0001) 
(PID.TID 0000.0001) // MITgcmUV version:  checkpoint68j
(PID.TID 0000.0001) // Build user:        jm_c
(PID.TID 0000.0001) // Build host:        villon
(PID.TID 0000.0001) // Build date:        Thu Oct  6 17:23:06 EDT 2022
(PID.TID 0000.0001) 
(PID.TID 0000.0001) // =======================================================
(PID.TID 0000.0001) // Execution Environment parameter file "eedata"
(PID.TID 0000.0001) // =======================================================
(PID.TID 0000.0001) ># Example "eedata" file
(PID.TID 0000.0001) ># Lines beginning "#" are comments
(PID.TID 0000.0001) >#  nTx      :: No. threads per process in X
(PID.TID 0000.0001) >#  nTy      :: No. threads per process in Y
(PID.TID 0000.0001) ># debugMode :: print debug msg (sequence of S/R calls)
(PID.TID 0000.0001) > &EEPARMS
(PID.TID 0000.0001) ># debugMode=.TRUE.,
(PID.TID 0000.0001) > /
(PID.TID 0000.0001) ># Note: Some systems use & as the namelist terminator (as shown here).
(PID.TID 0000.0001) >#       Other systems use a / character.
(PID.TID 0000.0001) 
(PID.TID 0000.0001) // =======================================================
(PID.TID 0000.0001) // Computational Grid Specification ( see files "SIZE.h" )
(PID.TID 0000.0001) //                                  ( and "eedata"       )
(PID.TID 0000.0001) // =======================================================
(PID.TID 0000.0001)      nPx =    1 ; /* No. processes in X */
(PID.TID 0000.0001)      nPy =    1 ; /* No. processes in Y */
(PID.TID 0000.0001)      nSx =    1 ; /* No. tiles in X per process */
(PID.TID 0000.0001)      nSy =    2 ; /* No. tiles in Y per process */
(PID.TID 0000.0001)      sNx =    1 ; /* Tile size in X */
(PID.TID 0000.0001)      sNy =   16 ; /* Tile size in Y */
(PID.TID 0000.0001)      OLx =    3 ; /* Tile overlap distance in X */
(PID.TID 0000.0001)      OLy =    3 ; /* Tile overlap distance in Y */
(PID.TID 0000.0001)      nTx =    1 ; /* No. threads in X per process */
(PID.TID 0000.0001)      nTy =    1 ; /* No. threads in Y per process */
(PID.TID 0000.0001)       Nr =   25 ; /* No. levels in the vertical   */
(PID.TID 0000.0001)       Nx =    1 ; /* Total domain size in X ( = nPx*nSx*sNx ) */
(PID.TID 0000.0001)       Ny =   32 ; /* Total domain size in Y ( = nPy*nSy*sNy ) */
(PID.TID 0000.0001)   nTiles =    2 ; /* Total no. tiles per process ( = nSx*nSy ) */
(PID.TID 0000.0001)   nProcs =    1 ; /* Total no. processes ( = nPx*nPy ) */
(PID.TID 0000.0001) nThreads =    1 ; /* Total no. threads per process ( = nTx*nTy ) */
(PID.TID 0000.0001) usingMPI =    F ; /* Flag used to control whether MPI is in use */
(PID.TID 0000.0001)                   /*  note: To execute a program with MPI calls */
(PID.TID 0000.0001)                   /*  it must be launched appropriately e.g     */
(PID.TID 0000.0001)                   /*  "mpirun -np 64 ......"                    */
(PID.TID 0000.0001) useCoupler=   F ; /* Flag used to control communications with   */
(PID.TID 0000.0001)                   /*  other model components, through a coupler */
(PID.TID 0000.0001) useNest2W_parent =    F ;/* Control 2-W Nesting comm */
(PID.TID 0000.0001) useNest2W_child  =    F ;/* Control 2-W Nesting comm */
(PID.TID 0000.0001) debugMode =    F ; /* print debug msg. (sequence of S/R calls)  */
(PID.TID 0000.0001) printMapIncludesZeros=    F ; /* print zeros in Std.Output maps */
(PID.TID 0000.0001) maxLengthPrt1D=   65 /* maxLength of 1D array printed to StdOut */
(PID.TID 0000.0001) 
(PID.TID 0000.0001) // ======================================================
(PID.TID 0000.0001) // Mapping of tiles to threads
(PID.TID 0000.0001) // ======================================================
(PID.TID 0000.0001) // -o- Thread   1, tiles (   1:   1,   1:   2)
(PID.TID 0000.0001) 
(PID.TID 0000.0001) // ======================================================
(PID.TID 0000.0001) // Tile <-> Tile connectvity table
(PID.TID 0000.0001) // ======================================================
(PID.TID 0000.0001) // Tile number: 000001 (process no. = 000000)
(PID.TID 0000.0001) //        WEST: Tile = 000001, Process = 000000, Comm = put
(PID.TID 0000.0001) //                bi = 000001, bj = 000001
(PID.TID 0000.0001) //        EAST: Tile = 000001, Process = 000000, Comm = put
(PID.TID 0000.0001) //                bi = 000001, bj = 000001
(PID.TID 0000.0001) //       SOUTH: Tile = 000002, Process = 000000, Comm = put
(PID.TID 0000.0001) //                bi = 000001, bj = 000002
(PID.TID 0000.0001) //       NORTH: Tile = 000002, Process = 000000, Comm = put
(PID.TID 0000.0001) //                bi = 000001, bj = 000002
(PID.TID 0000.0001) // Tile number: 000002 (process no. = 000000)
(PID.TID 0000.0001) //        WEST: Tile = 000002, Process = 000000, Comm = put
(PID.TID 0000.0001) //                bi = 000001, bj = 000002
(PID.TID 0000.0001) //        EAST: Tile = 000002, Process = 000000, Comm = put
(PID.TID 0000.0001) //                bi = 000001, bj = 000002
(PID.TID 0000.0001) //       SOUTH: Tile = 000001, Process = 000000, Comm = put
(PID.TID 0000.0001) //                bi = 000001, bj = 000001
(PID.TID 0000.0001) //       NORTH: Tile = 000001, Process = 000000, Comm = put
(PID.TID 0000.0001) //                bi = 000001, bj = 000001
(PID.TID 0000.0001) 
(PID.TID 0000.0001)  INI_PARMS: opening model parameter file "data"
(PID.TID 0000.0001)  OPEN_COPY_DATA_FILE: opening file data
(PID.TID 0000.0001) // =======================================================
(PID.TID 0000.0001) // Parameter file "data"
(PID.TID 0000.0001) // =======================================================
(PID.TID 0000.0001) ># ====================
(PID.TID 0000.0001) ># | Model parameters |
(PID.TID 0000.0001) ># ====================
(PID.TID 0000.0001) >#
(PID.TID 0000.0001) ># Continuous equation parameters
(PID.TID 0000.0001) > &PARM01
(PID.TID 0000.0001) > tRef= 25*17.5,
(PID.TID 0000.0001) > viscAr=2.E-4,
(PID.TID 0000.0001) > viscAh=3.E+2,
(PID.TID 0000.0001) > no_slip_sides=.FALSE.,
(PID.TID 0000.0001) > no_slip_bottom=.FALSE.,
(PID.TID 0000.0001) > diffKrT=3.E-5,
(PID.TID 0000.0001) > diffKrS=3.E-5,
(PID.TID 0000.0001) > diffKhT=0.E3,
(PID.TID 0000.0001) > diffKhS=0.E3,
(PID.TID 0000.0001) >#ivdc_kappa=1.,
(PID.TID 0000.0001) > beta=0.E-11,
(PID.TID 0000.0001) > f0  =1.E-4,
(PID.TID 0000.0001) > selectCoriScheme=1,
(PID.TID 0000.0001) > gravity= 10.,
(PID.TID 0000.0001) > buoyancyRelation='OCEANIC',
(PID.TID 0000.0001) > eosType='LINEAR',
(PID.TID 0000.0001) > tAlpha=2.E-4,
(PID.TID 0000.0001) > sBeta =0.E-4,
(PID.TID 0000.0001) > rhoConst=1000.,
(PID.TID 0000.0001) > rhoNil=1000.,
(PID.TID 0000.0001) > rigidLid=.FALSE.,
(PID.TID 0000.0001) > implicitFreeSurface=.TRUE.,
(PID.TID 0000.0001) > exactConserv=.TRUE.,
(PID.TID 0000.0001) > implicitDiffusion=.TRUE.,
(PID.TID 0000.0001) > staggerTimeStep=.TRUE.
(PID.TID 0000.0001) > tempAdvScheme=20,
(PID.TID 0000.0001) > saltAdvScheme=20,
(PID.TID 0000.0001) >#momStepping=.FALSE.,
(PID.TID 0000.0001) > readBinaryPrec=64,
(PID.TID 0000.0001) > writeBinaryPrec=64,
(PID.TID 0000.0001) > globalFiles=.TRUE.,
(PID.TID 0000.0001) > debugLevel=2,
(PID.TID 0000.0001) > plotLevel=0,
(PID.TID 0000.0001) > /
(PID.TID 0000.0001) >
(PID.TID 0000.0001) ># Elliptic solver parameters
(PID.TID 0000.0001) > &PARM02
(PID.TID 0000.0001) > cg2dMaxIters=1000,
(PID.TID 0000.0001) > cg2dTargetResidual=1.E-13,
(PID.TID 0000.0001) > /
(PID.TID 0000.0001) >
(PID.TID 0000.0001) ># Time stepping parameters
(PID.TID 0000.0001) > &PARM03
(PID.TID 0000.0001) > startTime=0.,
(PID.TID 0000.0001) > deltaT=1800.,
(PID.TID 0000.0001) > abEps=0.1,
(PID.TID 0000.0001) > momDissip_In_AB=.FALSE.,
(PID.TID 0000.0001) > pChkptFreq=0.,
(PID.TID 0000.0001) > chkptFreq =0.,
(PID.TID 0000.0001) > dumpFreq=864000.,
(PID.TID 0000.0001) > monitorSelect=1,
(PID.TID 0000.0001) >#- very short run:
(PID.TID 0000.0001) > nTimeSteps=20,
(PID.TID 0000.0001) > monitorFreq=1.,
(PID.TID 0000.0001) >#- longer run:
(PID.TID 0000.0001) >#nTimeSteps=4321,
(PID.TID 0000.0001) >#monitorFreq=86400.,
(PID.TID 0000.0001) > /
(PID.TID 0000.0001) >
(PID.TID 0000.0001) ># Gridding parameters
(PID.TID 0000.0001) > &PARM04
(PID.TID 0000.0001) > usingCartesianGrid=.TRUE.,
(PID.TID 0000.0001) >#delR= 50., 50., 55., 60., 65., 70., 80., 95.,
(PID.TID 0000.0001) >#      120., 155., 200., 260., 320., 400., 480., 10*1.,
(PID.TID 0000.0001) > delRc= 25., 50., 52.5, 57.5, 62.5, 67.5, 75., 87.5,
(PID.TID 0000.0001) >      107.5, 137.5, 177.5, 230., 290., 360., 440., 480., 10*400.,
(PID.TID 0000.0001) > delX=1*10.E3,
(PID.TID 0000.0001) >#delY=32*10.E3,
(PID.TID 0000.0001) > delYfile='dy.bin',
(PID.TID 0000.0001) > /
(PID.TID 0000.0001) >
(PID.TID 0000.0001) ># Input datasets
(PID.TID 0000.0001) > &PARM05
(PID.TID 0000.0001) > bathyFile      ='bathy_inZ.bin',
(PID.TID 0000.0001) > hydrogThetaFile='Tini_+10l.bin',
(PID.TID 0000.0001) > hydrogSaltFile ='Sini_Ydir.bin',
(PID.TID 0000.0001) >#hydrogSaltFile ='Sini_Patch.bin',
(PID.TID 0000.0001) > /
(PID.TID 0000.0001) 
(PID.TID 0000.0001)  INI_PARMS ; starts to read PARM01
(PID.TID 0000.0001)  INI_PARMS ; read PARM01 : OK
(PID.TID 0000.0001)  INI_PARMS ; starts to read PARM02
(PID.TID 0000.0001)  INI_PARMS ; read PARM02 : OK
(PID.TID 0000.0001)  INI_PARMS ; starts to read PARM03
(PID.TID 0000.0001)  INI_PARMS ; read PARM03 : OK
(PID.TID 0000.0001)  INI_PARMS ; starts to read PARM04
(PID.TID 0000.0001)  INI_PARMS ; read PARM04 : OK
(PID.TID 0000.0001)  INI_PARMS ; starts to read PARM05
(PID.TID 0000.0001)  INI_PARMS ; read PARM05 : OK
(PID.TID 0000.0001)  INI_PARMS: finished reading file "data"
(PID.TID 0000.0001)  PACKAGES_BOOT: opening data.pkg
(PID.TID 0000.0001)  OPEN_COPY_DATA_FILE: opening file data.pkg
(PID.TID 0000.0001) // =======================================================
(PID.TID 0000.0001) // Parameter file "data.pkg"
(PID.TID 0000.0001) // =======================================================
(PID.TID 0000.0001) ># Packages (lines beginning "#" are comments)
(PID.TID 0000.0001) > &PACKAGES
(PID.TID 0000.0001) >  useGMRedi=.TRUE.,
(PID.TID 0000.0001) ># useDiagnostics=.TRUE.,
(PID.TID 0000.0001) > /
(PID.TID 0000.0001) 
(PID.TID 0000.0001)  PACKAGES_BOOT: finished reading data.pkg
(PID.TID 0000.0001)  PACKAGES_BOOT: On/Off package Summary
 --------  pkgs with a standard "usePKG" On/Off switch in "data.pkg":  --------
 pkg/gmredi               compiled   and   used ( useGMRedi                = T )
 pkg/diagnostics          compiled but not used ( useDiagnostics           = F )
 -------- pkgs without standard "usePKG" On/Off switch in "data.pkg":  --------
 pkg/generic_advdiff      compiled   and   used ( useGAD                   = T )
 pkg/mom_common           compiled   and   used ( momStepping              = T )
 pkg/mom_vecinv           compiled but not used ( +vectorInvariantMomentum = F )
 pkg/mom_fluxform         compiled   and   used ( & not vectorInvariantMom = T )
 pkg/monitor              compiled   and   used ( monitorFreq > 0.         = T )
 pkg/debug                compiled but not used ( debugMode                = F )
 pkg/rw                   compiled   and   used
 pkg/mdsio                compiled   and   used
(PID.TID 0000.0001)  PACKAGES_BOOT: End of package Summary
(PID.TID 0000.0001) 
(PID.TID 0000.0001)  GM_READPARMS: opening data.gmredi
(PID.TID 0000.0001)  OPEN_COPY_DATA_FILE: opening file data.gmredi
(PID.TID 0000.0001) // =======================================================
(PID.TID 0000.0001) // Parameter file "data.gmredi"
(PID.TID 0000.0001) // =======================================================
(PID.TID 0000.0001) ># GM-Redi parameters
(PID.TID 0000.0001) > &GM_PARM01
(PID.TID 0000.0001) ># GM_AdvForm=.TRUE.,
(PID.TID 0000.0001) >  GM_background_K=1000.,
(PID.TID 0000.0001) ># GM_isopycK    = 0.,
(PID.TID 0000.0001) ># GM_taper_scheme='orig',
(PID.TID 0000.0001) ># GM_taper_scheme='linear',
(PID.TID 0000.0001) >  GM_maxSlope    =1.E-02,
(PID.TID 0000.0001) > /
(PID.TID 0000.0001) 
(PID.TID 0000.0001)  GM_READPARMS: finished reading data.gmredi
(PID.TID 0000.0001) SET_PARMS: done
(PID.TID 0000.0001)  MDS_READVEC_LOC: open file: dy.bin
(PID.TID 0000.0001) S/R LOAD_GRID_SPACING: delY loaded from file: dy.bin
(PID.TID 0000.0001) Enter INI_VERTICAL_GRID: setInterFDr=    F ; setCenterDr=    T
(PID.TID 0000.0001) %MON XC_max                       =   5.0000000000000E+03
(PID.TID 0000.0001) %MON XC_min                       =   5.0000000000000E+03
(PID.TID 0000.0001) %MON XC_mean                      =   5.0000000000000E+03
(PID.TID 0000.0001) %MON XC_sd                        =   0.0000000000000E+00
(PID.TID 0000.0001) %MON XG_max                       =   0.0000000000000E+00
(PID.TID 0000.0001) %MON XG_min                       =   0.0000000000000E+00
(PID.TID 0000.0001) %MON XG_mean                      =   0.0000000000000E+00
(PID.TID 0000.0001) %MON XG_sd                        =   0.0000000000000E+00
(PID.TID 0000.0001) %MON DXC_max                      =   1.0000000000000E+04
(PID.TID 0000.0001) %MON DXC_min                      =   1.0000000000000E+04
(PID.TID 0000.0001) %MON DXC_mean                     =   1.0000000000000E+04
(PID.TID 0000.0001) %MON DXC_sd                       =   0.0000000000000E+00
(PID.TID 0000.0001) %MON DXF_max                      =   1.0000000000000E+04
(PID.TID 0000.0001) %MON DXF_min                      =   1.0000000000000E+04
(PID.TID 0000.0001) %MON DXF_mean                     =   1.0000000000000E+04
(PID.TID 0000.0001) %MON DXF_sd                       =   0.0000000000000E+00
(PID.TID 0000.0001) %MON DXG_max                      =   1.0000000000000E+04
(PID.TID 0000.0001) %MON DXG_min                      =   1.0000000000000E+04
(PID.TID 0000.0001) %MON DXG_mean                     =   1.0000000000000E+04
(PID.TID 0000.0001) %MON DXG_sd                       =   0.0000000000000E+00
(PID.TID 0000.0001) %MON DXV_max                      =   1.0000000000000E+04
(PID.TID 0000.0001) %MON DXV_min                      =   1.0000000000000E+04
(PID.TID 0000.0001) %MON DXV_mean                     =   1.0000000000000E+04
(PID.TID 0000.0001) %MON DXV_sd                       =   0.0000000000000E+00
(PID.TID 0000.0001) %MON YC_max                       =   3.1561290774894E+05
(PID.TID 0000.0001) %MON YC_min                       =   5.6092274511694E+03
(PID.TID 0000.0001) %MON YC_mean                      =   1.6001915336715E+05
(PID.TID 0000.0001) %MON YC_sd                        =   8.8599616236208E+04
(PID.TID 0000.0001) %MON YG_max                       =   3.1000000000000E+05
(PID.TID 0000.0001) %MON YG_min                       =  -1.8189894035459E-12
(PID.TID 0000.0001) %MON YG_mean                      =   1.5500000000000E+05
(PID.TID 0000.0001) %MON YG_sd                        =   8.8567978698292E+04
(PID.TID 0000.0001) %MON DYC_max                      =   1.1222135200113E+04
(PID.TID 0000.0001) %MON DYC_min                      =   7.9032603032250E+03
(PID.TID 0000.0001) %MON DYC_mean                     =   1.0038306734309E+04
(PID.TID 0000.0001) %MON DYC_sd                       =   1.1846105766688E+03
(PID.TID 0000.0001) %MON DYF_max                      =   1.1225815497888E+04
(PID.TID 0000.0001) %MON DYF_min                      =   7.8626243792479E+03
(PID.TID 0000.0001) %MON DYF_mean                     =   1.0038306734309E+04
(PID.TID 0000.0001) %MON DYF_sd                       =   1.1918760120598E+03
(PID.TID 0000.0001) %MON DYG_max                      =   1.1225815497888E+04
(PID.TID 0000.0001) %MON DYG_min                      =   7.8626243792479E+03
(PID.TID 0000.0001) %MON DYG_mean                     =   1.0038306734309E+04
(PID.TID 0000.0001) %MON DYG_sd                       =   1.1918760120598E+03
(PID.TID 0000.0001) %MON DYU_max                      =   1.1222135200113E+04
(PID.TID 0000.0001) %MON DYU_min                      =   7.9032603032250E+03
(PID.TID 0000.0001) %MON DYU_mean                     =   1.0038306734309E+04
(PID.TID 0000.0001) %MON DYU_sd                       =   1.1846105766688E+03
(PID.TID 0000.0001) %MON RA_max                       =   1.1225815497888E+08
(PID.TID 0000.0001) %MON RA_min                       =   7.8626243792479E+07
(PID.TID 0000.0001) %MON RA_mean                      =   1.0038306734309E+08
(PID.TID 0000.0001) %MON RA_sd                        =   1.1918760120598E+07
(PID.TID 0000.0001) %MON RAW_max                      =   1.1225815497888E+08
(PID.TID 0000.0001) %MON RAW_min                      =   7.8626243792479E+07
(PID.TID 0000.0001) %MON RAW_mean                     =   1.0038306734309E+08
(PID.TID 0000.0001) %MON RAW_sd                       =   1.1918760120598E+07
(PID.TID 0000.0001) %MON RAS_max                      =   1.1222135200113E+08
(PID.TID 0000.0001) %MON RAS_min                      =   7.9032603032250E+07
(PID.TID 0000.0001) %MON RAS_mean                     =   1.0038306734309E+08
(PID.TID 0000.0001) %MON RAS_sd                       =   1.1846105766688E+07
(PID.TID 0000.0001) %MON RAZ_max                      =   1.1222135200113E+08
(PID.TID 0000.0001) %MON RAZ_min                      =   7.9032603032250E+07
(PID.TID 0000.0001) %MON RAZ_mean                     =   1.0038306734309E+08
(PID.TID 0000.0001) %MON RAZ_sd                       =   1.1846105766688E+07
(PID.TID 0000.0001) %MON AngleCS_max                  =   1.0000000000000E+00
(PID.TID 0000.0001) %MON AngleCS_min                  =   1.0000000000000E+00
(PID.TID 0000.0001) %MON AngleCS_mean                 =   1.0000000000000E+00
(PID.TID 0000.0001) %MON AngleCS_sd                   =   0.0000000000000E+00
(PID.TID 0000.0001) %MON AngleSN_max                  =   0.0000000000000E+00
(PID.TID 0000.0001) %MON AngleSN_min                  =   0.0000000000000E+00
(PID.TID 0000.0001) %MON AngleSN_mean                 =   0.0000000000000E+00
(PID.TID 0000.0001) %MON AngleSN_sd                   =   0.0000000000000E+00
(PID.TID 0000.0001)  MDS_READ_FIELD: opening global file: bathy_inZ.bin
(PID.TID 0000.0001) GAD_INIT_FIXED: GAD_OlMinSize=  1  0  1
(PID.TID 0000.0001) 
(PID.TID 0000.0001) // ===================================
(PID.TID 0000.0001) // GAD parameters :
(PID.TID 0000.0001) // ===================================
(PID.TID 0000.0001) tempAdvScheme =   /* Temp. Horiz.Advection scheme selector */
(PID.TID 0000.0001)                      20
(PID.TID 0000.0001)     ;
(PID.TID 0000.0001) tempVertAdvScheme =   /* Temp. Vert. Advection scheme selector */
(PID.TID 0000.0001)                      20
(PID.TID 0000.0001)     ;
(PID.TID 0000.0001) tempMultiDimAdvec =   /* use Muti-Dim Advec method for Temp */
(PID.TID 0000.0001)                   T
(PID.TID 0000.0001)     ;
(PID.TID 0000.0001) tempSOM_Advection = /* use 2nd Order Moment Advection for Temp */
(PID.TID 0000.0001)                   F
(PID.TID 0000.0001)     ;
(PID.TID 0000.0001) AdamsBashforthGt = /* apply Adams-Bashforth extrapolation on Gt */
(PID.TID 0000.0001)                   F
(PID.TID 0000.0001)     ;
(PID.TID 0000.0001) AdamsBashforth_T = /* apply Adams-Bashforth extrapolation on Temp */
(PID.TID 0000.0001)                   F
(PID.TID 0000.0001)     ;
(PID.TID 0000.0001) saltAdvScheme =   /* Salt. Horiz.advection scheme selector */
(PID.TID 0000.0001)                      20
(PID.TID 0000.0001)     ;
(PID.TID 0000.0001) saltVertAdvScheme =   /* Salt. Vert. Advection scheme selector */
(PID.TID 0000.0001)                      20
(PID.TID 0000.0001)     ;
(PID.TID 0000.0001) saltMultiDimAdvec =   /* use Muti-Dim Advec method for Salt */
(PID.TID 0000.0001)                   T
(PID.TID 0000.0001)     ;
(PID.TID 0000.0001) saltSOM_Advection = /* use 2nd Order Moment Advection for Salt */
(PID.TID 0000.0001)                   F
(PID.TID 0000.0001)     ;
(PID.TID 0000.0001) AdamsBashforthGs = /* apply Adams-Bashforth extrapolation on Gs */
(PID.TID 0000.0001)                   F
(PID.TID 0000.0001)     ;
(PID.TID 0000.0001) AdamsBashforth_S = /* apply Adams-Bashforth extrapolation on Salt */
(PID.TID 0000.0001)                   F
(PID.TID 0000.0001)     ;
(PID.TID 0000.0001) // ===================================
(PID.TID 0000.0001) %MON fCori_max                    =   1.0000000000000E-04
(PID.TID 0000.0001) %MON fCori_min                    =   1.0000000000000E-04
(PID.TID 0000.0001) %MON fCori_mean                   =   1.0000000000000E-04
(PID.TID 0000.0001) %MON fCori_sd                     =   2.7105054312138E-20
(PID.TID 0000.0001) %MON fCoriG_max                   =   1.0000000000000E-04
(PID.TID 0000.0001) %MON fCoriG_min                   =   1.0000000000000E-04
(PID.TID 0000.0001) %MON fCoriG_mean                  =   1.0000000000000E-04
(PID.TID 0000.0001) %MON fCoriG_sd                    =   2.7105054312138E-20
(PID.TID 0000.0001) %MON fCoriCos_max                 =   0.0000000000000E+00
(PID.TID 0000.0001) %MON fCoriCos_min                 =   0.0000000000000E+00
(PID.TID 0000.0001) %MON fCoriCos_mean                =   0.0000000000000E+00
(PID.TID 0000.0001) %MON fCoriCos_sd                  =   0.0000000000000E+00
(PID.TID 0000.0001) INI_CG2D: CG2D normalisation factor =  3.2127074403353543E-04
(PID.TID 0000.0001) 
(PID.TID 0000.0001) // =======================================================
(PID.TID 0000.0001) // Model configuration
(PID.TID 0000.0001) // =======================================================
(PID.TID 0000.0001) //
(PID.TID 0000.0001) // "Physical" paramters ( PARM01 in namelist )
(PID.TID 0000.0001) //
(PID.TID 0000.0001) buoyancyRelation = /* Type of relation to get Buoyancy */
(PID.TID 0000.0001)               'OCEANIC'
(PID.TID 0000.0001)     ;
(PID.TID 0000.0001) fluidIsAir   =  /* fluid major constituent is Air */
(PID.TID 0000.0001)                   F
(PID.TID 0000.0001)     ;
(PID.TID 0000.0001) fluidIsWater =  /* fluid major constituent is Water */
(PID.TID 0000.0001)                   T
(PID.TID 0000.0001)     ;
(PID.TID 0000.0001) usingPCoords =  /* use p (or p*) vertical coordinate */
(PID.TID 0000.0001)                   F
(PID.TID 0000.0001)     ;
(PID.TID 0000.0001) usingZCoords =  /* use z (or z*) vertical coordinate */
(PID.TID 0000.0001)                   T
(PID.TID 0000.0001)     ;
(PID.TID 0000.0001) tRef =   /* Reference temperature profile ( oC or K ) */
(PID.TID 0000.0001)    25 @  1.750000000000000E+01              /* K =  1: 25 */
(PID.TID 0000.0001)     ;
(PID.TID 0000.0001) sRef =   /* Reference salinity profile ( g/kg ) */
(PID.TID 0000.0001)    25 @  3.000000000000000E+01              /* K =  1: 25 */
(PID.TID 0000.0001)     ;
(PID.TID 0000.0001) useStrainTensionVisc= /* Use StrainTension Form of Viscous Operator */
(PID.TID 0000.0001)                   F
(PID.TID 0000.0001)     ;
(PID.TID 0000.0001) useVariableVisc = /* Use variable horizontal viscosity */
(PID.TID 0000.0001)                   F
(PID.TID 0000.0001)     ;
(PID.TID 0000.0001) useHarmonicVisc = /* Use harmonic horizontal viscosity */
(PID.TID 0000.0001)                   T
(PID.TID 0000.0001)     ;
(PID.TID 0000.0001) useBiharmonicVisc= /* Use biharmonic horiz.  viscosity */
(PID.TID 0000.0001)                   F
(PID.TID 0000.0001)     ;
(PID.TID 0000.0001) useSmag3D = /* Use isotropic 3-D Smagorinsky viscosity */
(PID.TID 0000.0001)                   F
(PID.TID 0000.0001)     ;
(PID.TID 0000.0001) viscAh  =   /* Lateral harmonic viscosity ( m^2/s ) */
(PID.TID 0000.0001)                 3.000000000000000E+02
(PID.TID 0000.0001)     ;
(PID.TID 0000.0001) viscA4  =   /* Lateral biharmonic viscosity ( m^4/s ) */
(PID.TID 0000.0001)                 0.000000000000000E+00
(PID.TID 0000.0001)     ;
(PID.TID 0000.0001) no_slip_sides =  /* Viscous BCs: No-slip sides */
(PID.TID 0000.0001)                   F
(PID.TID 0000.0001)     ;
(PID.TID 0000.0001) sideDragFactor = /* side-drag scaling factor (non-dim) */
(PID.TID 0000.0001)                 2.000000000000000E+00
(PID.TID 0000.0001)     ;
(PID.TID 0000.0001) viscArNr = /* vertical profile of vertical viscosity ( m^2/s )*/
(PID.TID 0000.0001)    25 @  2.000000000000000E-04              /* K =  1: 25 */
(PID.TID 0000.0001)     ;
(PID.TID 0000.0001) no_slip_bottom =  /* Viscous BCs: No-slip bottom */
(PID.TID 0000.0001)                   F
(PID.TID 0000.0001)     ;
(PID.TID 0000.0001) bottomVisc_pCell = /* Partial-cell in bottom Visc. BC */
(PID.TID 0000.0001)                   F
(PID.TID 0000.0001)     ;
(PID.TID 0000.0001) bottomDragLinear = /* linear bottom-drag coefficient ( m/s ) */
(PID.TID 0000.0001)                 0.000000000000000E+00
(PID.TID 0000.0001)     ;
(PID.TID 0000.0001) bottomDragQuadratic = /* quadratic bottom-drag coefficient (-) */
(PID.TID 0000.0001)                 0.000000000000000E+00
(PID.TID 0000.0001)     ;
(PID.TID 0000.0001) selectBotDragQuadr = /* select quadratic bottom drag options */
(PID.TID 0000.0001)                      -1
(PID.TID 0000.0001)     ;
(PID.TID 0000.0001) diffKhT =   /* Laplacian diffusion of heat laterally ( m^2/s ) */
(PID.TID 0000.0001)                 0.000000000000000E+00
(PID.TID 0000.0001)     ;
(PID.TID 0000.0001) diffK4T =   /* Biharmonic diffusion of heat laterally ( m^4/s ) */
(PID.TID 0000.0001)                 0.000000000000000E+00
(PID.TID 0000.0001)     ;
(PID.TID 0000.0001) diffKhS =   /* Laplacian diffusion of salt laterally ( m^2/s ) */
(PID.TID 0000.0001)                 0.000000000000000E+00
(PID.TID 0000.0001)     ;
(PID.TID 0000.0001) diffK4S =   /* Biharmonic diffusion of salt laterally ( m^4/s ) */
(PID.TID 0000.0001)                 0.000000000000000E+00
(PID.TID 0000.0001)     ;
(PID.TID 0000.0001) diffKrNrT = /* vertical profile of vertical diffusion of Temp ( m^2/s )*/
(PID.TID 0000.0001)    25 @  3.000000000000000E-05              /* K =  1: 25 */
(PID.TID 0000.0001)     ;
(PID.TID 0000.0001) diffKrNrS = /* vertical profile of vertical diffusion of Salt ( m^2/s )*/
(PID.TID 0000.0001)    25 @  3.000000000000000E-05              /* K =  1: 25 */
(PID.TID 0000.0001)     ;
(PID.TID 0000.0001) diffKrBL79surf = /* Surface diffusion for Bryan and Lewis 79 ( m^2/s ) */
(PID.TID 0000.0001)                 0.000000000000000E+00
(PID.TID 0000.0001)     ;
(PID.TID 0000.0001) diffKrBL79deep = /* Deep diffusion for Bryan and Lewis 1979 ( m^2/s ) */
(PID.TID 0000.0001)                 0.000000000000000E+00
(PID.TID 0000.0001)     ;
(PID.TID 0000.0001) diffKrBL79scl = /* Depth scale for Bryan and Lewis 1979 ( m ) */
(PID.TID 0000.0001)                 2.000000000000000E+02
(PID.TID 0000.0001)     ;
(PID.TID 0000.0001) diffKrBL79Ho = /* Turning depth for Bryan and Lewis 1979 ( m ) */
(PID.TID 0000.0001)                -2.000000000000000E+03
(PID.TID 0000.0001)     ;
(PID.TID 0000.0001) ivdc_kappa = /* Implicit Vertical Diffusivity for Convection ( m^2/s) */
(PID.TID 0000.0001)                 0.000000000000000E+00
(PID.TID 0000.0001)     ;
(PID.TID 0000.0001) hMixCriteria=  /* Criteria for mixed-layer diagnostic */
(PID.TID 0000.0001)                -8.000000000000000E-01
(PID.TID 0000.0001)     ;
(PID.TID 0000.0001) dRhoSmall =  /* Parameter for mixed-layer diagnostic */
(PID.TID 0000.0001)                 1.000000000000000E-06
(PID.TID 0000.0001)     ;
(PID.TID 0000.0001) hMixSmooth=  /* Smoothing parameter for mixed-layer diagnostic */
(PID.TID 0000.0001)                 0.000000000000000E+00
(PID.TID 0000.0001)     ;
(PID.TID 0000.0001) eosType =  /* Type of Equation of State */
(PID.TID 0000.0001)               'LINEAR'
(PID.TID 0000.0001)     ;
(PID.TID 0000.0001) tAlpha = /* Linear EOS thermal expansion coefficient ( 1/oC ) */
(PID.TID 0000.0001)                 2.000000000000000E-04
(PID.TID 0000.0001)     ;
(PID.TID 0000.0001) sBeta  = /* Linear EOS haline contraction coefficient ( 1/(g/kg) ) */
(PID.TID 0000.0001)                 0.000000000000000E+00
(PID.TID 0000.0001)     ;
(PID.TID 0000.0001) rhoNil    = /* Reference density for Linear EOS ( kg/m^3 ) */
(PID.TID 0000.0001)                 1.000000000000000E+03
(PID.TID 0000.0001)     ;
(PID.TID 0000.0001) selectP_inEOS_Zc = /* select pressure to use in EOS (0,1,2,3) */
(PID.TID 0000.0001)                       0
(PID.TID 0000.0001)     0= -g*rhoConst*z ; 1= pRef (from tRef,sRef); 2= Hyd P ; 3= Hyd+NH P
(PID.TID 0000.0001)     ;
(PID.TID 0000.0001) surf_pRef = /* Surface reference pressure ( Pa ) */
(PID.TID 0000.0001)                 1.013250000000000E+05
(PID.TID 0000.0001)     ;
(PID.TID 0000.0001) HeatCapacity_Cp =  /* Specific heat capacity ( J/kg/K ) */
(PID.TID 0000.0001)                 3.994000000000000E+03
(PID.TID 0000.0001)     ;
(PID.TID 0000.0001) celsius2K = /* 0 degree Celsius converted to Kelvin ( K ) */
(PID.TID 0000.0001)                 2.731500000000000E+02
(PID.TID 0000.0001)     ;
(PID.TID 0000.0001) rhoConst  = /* Reference density (Boussinesq)  ( kg/m^3 ) */
(PID.TID 0000.0001)                 1.000000000000000E+03
(PID.TID 0000.0001)     ;
(PID.TID 0000.0001) rhoFacC = /* normalized Reference density @ cell-Center (-) */
(PID.TID 0000.0001)    25 @  1.000000000000000E+00              /* K =  1: 25 */
(PID.TID 0000.0001)     ;
(PID.TID 0000.0001) rhoFacF = /* normalized Reference density @ W-Interface (-) */
(PID.TID 0000.0001)    26 @  1.000000000000000E+00              /* K =  1: 26 */
(PID.TID 0000.0001)     ;
(PID.TID 0000.0001) rhoConstFresh = /* Fresh-water reference density ( kg/m^3 ) */
(PID.TID 0000.0001)                 1.000000000000000E+03
(PID.TID 0000.0001)     ;
(PID.TID 0000.0001) gravity =   /* Gravitational acceleration ( m/s^2 ) */
(PID.TID 0000.0001)                 1.000000000000000E+01
(PID.TID 0000.0001)     ;
(PID.TID 0000.0001) gBaro =   /* Barotropic gravity ( m/s^2 ) */
(PID.TID 0000.0001)                 1.000000000000000E+01
(PID.TID 0000.0001)     ;
(PID.TID 0000.0001) gravFacC = /* gravity factor (vs surf.) @ cell-Center (-) */
(PID.TID 0000.0001)    25 @  1.000000000000000E+00              /* K =  1: 25 */
(PID.TID 0000.0001)     ;
(PID.TID 0000.0001) gravFacF = /* gravity factor (vs surf.) @ W-Interface (-) */
(PID.TID 0000.0001)    26 @  1.000000000000000E+00              /* K =  1: 26 */
(PID.TID 0000.0001)     ;
(PID.TID 0000.0001) rotationPeriod =   /* Rotation Period ( s ) */
(PID.TID 0000.0001)                 8.616400000000000E+04
(PID.TID 0000.0001)     ;
(PID.TID 0000.0001) omega =   /* Angular velocity ( rad/s ) */
(PID.TID 0000.0001)                 7.292123516990375E-05
(PID.TID 0000.0001)     ;
(PID.TID 0000.0001) f0 =   /* Reference coriolis parameter ( 1/s ) */
(PID.TID 0000.0001)                 1.000000000000000E-04
(PID.TID 0000.0001)     ;
(PID.TID 0000.0001) beta =   /* Beta ( 1/(m.s) ) */
(PID.TID 0000.0001)                 0.000000000000000E+00
(PID.TID 0000.0001)     ;
(PID.TID 0000.0001) fPrime =   /* Second coriolis parameter ( 1/s ) */
(PID.TID 0000.0001)                 0.000000000000000E+00
(PID.TID 0000.0001)     ;
(PID.TID 0000.0001) rigidLid =   /* Rigid lid on/off flag */
(PID.TID 0000.0001)                   F
(PID.TID 0000.0001)     ;
(PID.TID 0000.0001) implicitFreeSurface =   /* Implicit free surface on/off flag */
(PID.TID 0000.0001)                   T
(PID.TID 0000.0001)     ;
(PID.TID 0000.0001) freeSurfFac =   /* Implicit free surface factor */
(PID.TID 0000.0001)                 1.000000000000000E+00
(PID.TID 0000.0001)     ;
(PID.TID 0000.0001) implicSurfPress =  /* Surface Pressure implicit factor (0-1) */
(PID.TID 0000.0001)                 1.000000000000000E+00
(PID.TID 0000.0001)     ;
(PID.TID 0000.0001) implicDiv2DFlow =  /* Barot. Flow Div. implicit factor (0-1) */
(PID.TID 0000.0001)                 1.000000000000000E+00
(PID.TID 0000.0001)     ;
(PID.TID 0000.0001) uniformLin_PhiSurf = /* use uniform Bo_surf on/off flag */
(PID.TID 0000.0001)                   T
(PID.TID 0000.0001)     ;
(PID.TID 0000.0001) uniformFreeSurfLev = /* free-surface level-index is uniform */
(PID.TID 0000.0001)                   T
(PID.TID 0000.0001)     ;
(PID.TID 0000.0001) sIceLoadFac =  /* scale factor for sIceLoad (0-1) */
(PID.TID 0000.0001)                 1.000000000000000E+00
(PID.TID 0000.0001)     ;
(PID.TID 0000.0001) hFacMin =   /* minimum partial cell factor (hFac) */
(PID.TID 0000.0001)                 1.000000000000000E+00
(PID.TID 0000.0001)     ;
(PID.TID 0000.0001) hFacMinDr = /* minimum partial cell thickness ( m) */
(PID.TID 0000.0001)                 0.000000000000000E+00
(PID.TID 0000.0001)     ;
(PID.TID 0000.0001) exactConserv =  /* Exact Volume Conservation on/off flag */
(PID.TID 0000.0001)                   T
(PID.TID 0000.0001)     ;
(PID.TID 0000.0001) linFSConserveTr = /* Tracer correction for Lin Free Surface on/off flag */
(PID.TID 0000.0001)                   F
(PID.TID 0000.0001)     ;
(PID.TID 0000.0001) nonlinFreeSurf = /* Non-linear Free Surf. options (-1,0,1,2,3)*/
(PID.TID 0000.0001)                       0
(PID.TID 0000.0001)      -1,0= Off ; 1,2,3= On, 2=+rescale gU,gV, 3=+update cg2d solv.
(PID.TID 0000.0001)     ;
(PID.TID 0000.0001) hFacInf =   /* lower threshold for hFac (nonlinFreeSurf only)*/
(PID.TID 0000.0001)                 2.000000000000000E-01
(PID.TID 0000.0001)     ;
(PID.TID 0000.0001) hFacSup =   /* upper threshold for hFac (nonlinFreeSurf only)*/
(PID.TID 0000.0001)                 2.000000000000000E+00
(PID.TID 0000.0001)     ;
(PID.TID 0000.0001) select_rStar = /* r* Vertical coord. options (=0 r coord.; >0 uses r*)*/
(PID.TID 0000.0001)                       0
(PID.TID 0000.0001)     ;
(PID.TID 0000.0001) useRealFreshWaterFlux = /* Real Fresh Water Flux on/off flag*/
(PID.TID 0000.0001)                   F
(PID.TID 0000.0001)     ;
(PID.TID 0000.0001) temp_EvPrRn = /* Temp. of Evap/Prec/R (UNSET=use local T)(oC)*/
(PID.TID 0000.0001)                 1.234567000000000E+05
(PID.TID 0000.0001)     ;
(PID.TID 0000.0001) salt_EvPrRn = /* Salin. of Evap/Prec/R (UNSET=use local S)(g/kg)*/
(PID.TID 0000.0001)                 0.000000000000000E+00
(PID.TID 0000.0001)     ;
(PID.TID 0000.0001) selectAddFluid = /* option for mass source/sink of fluid (=0: off) */
(PID.TID 0000.0001)                       0
(PID.TID 0000.0001)     ;
(PID.TID 0000.0001) temp_addMass = /* Temp. of addMass array (UNSET=use local T)(oC)*/
(PID.TID 0000.0001)                 1.234567000000000E+05
(PID.TID 0000.0001)     ;
(PID.TID 0000.0001) salt_addMass = /* Salin. of addMass array (UNSET=use local S)(g/kg)*/
(PID.TID 0000.0001)                 0.000000000000000E+00
(PID.TID 0000.0001)     ;
(PID.TID 0000.0001) convertFW2Salt = /* convert F.W. Flux to Salt Flux (-1=use local S)(g/kg)*/
(PID.TID 0000.0001)                 3.500000000000000E+01
(PID.TID 0000.0001)     ;
(PID.TID 0000.0001) use3Dsolver = /* use 3-D pressure solver on/off flag */
(PID.TID 0000.0001)                   F
(PID.TID 0000.0001)     ;
(PID.TID 0000.0001) nonHydrostatic =  /* Non-Hydrostatic on/off flag */
(PID.TID 0000.0001)                   F
(PID.TID 0000.0001)     ;
(PID.TID 0000.0001) nh_Am2 = /* Non-Hydrostatic terms scaling factor */
(PID.TID 0000.0001)                 1.000000000000000E+00
(PID.TID 0000.0001)     ;
(PID.TID 0000.0001) implicitNHPress = /* Non-Hyd Pressure implicit factor (0-1)*/
(PID.TID 0000.0001)                 1.000000000000000E+00
(PID.TID 0000.0001)     ;
(PID.TID 0000.0001) selectNHfreeSurf = /* Non-Hyd (free-)Surface option */
(PID.TID 0000.0001)                       0
(PID.TID 0000.0001)     ;
(PID.TID 0000.0001) quasiHydrostatic = /* Quasi-Hydrostatic on/off flag */
(PID.TID 0000.0001)                   F
(PID.TID 0000.0001)     ;
(PID.TID 0000.0001) calc_wVelocity = /* vertical velocity calculation on/off flag */
(PID.TID 0000.0001)                   T
(PID.TID 0000.0001)     ;
(PID.TID 0000.0001) momStepping =  /* Momentum equation on/off flag */
(PID.TID 0000.0001)                   T
(PID.TID 0000.0001)     ;
(PID.TID 0000.0001) vectorInvariantMomentum= /* Vector-Invariant Momentum on/off */
(PID.TID 0000.0001)                   F
(PID.TID 0000.0001)     ;
(PID.TID 0000.0001) momAdvection =  /* Momentum advection on/off flag */
(PID.TID 0000.0001)                   T
(PID.TID 0000.0001)     ;
(PID.TID 0000.0001) momViscosity =  /* Momentum viscosity on/off flag */
(PID.TID 0000.0001)                   T
(PID.TID 0000.0001)     ;
(PID.TID 0000.0001) momImplVertAdv= /* Momentum implicit vert. advection on/off*/
(PID.TID 0000.0001)                   F
(PID.TID 0000.0001)     ;
(PID.TID 0000.0001) implicitViscosity = /* Implicit viscosity on/off flag */
(PID.TID 0000.0001)                   F
(PID.TID 0000.0001)     ;
(PID.TID 0000.0001) selectImplicitDrag= /* Implicit bot Drag options (0,1,2)*/
(PID.TID 0000.0001)                       0
(PID.TID 0000.0001)     0= Expl. ; 1= Impl. on provis. Vel ; 2= Fully Impl (with surf.P)
(PID.TID 0000.0001)     ;
(PID.TID 0000.0001) metricTerms =  /* metric-Terms on/off flag */
(PID.TID 0000.0001)                   F
(PID.TID 0000.0001)     ;
(PID.TID 0000.0001) useNHMTerms = /* Non-Hydrostatic Metric-Terms on/off */
(PID.TID 0000.0001)                   F
(PID.TID 0000.0001)     ;
(PID.TID 0000.0001) selectCoriMap = /* Coriolis Map options (0,1,2,3)*/
(PID.TID 0000.0001)                       1
(PID.TID 0000.0001)     0= f-Plane ; 1= Beta-Plane ; 2= Spherical ; 3= read from file
(PID.TID 0000.0001)     ;
(PID.TID 0000.0001) use3dCoriolis = /* 3-D Coriolis on/off flag */
(PID.TID 0000.0001)                   F
(PID.TID 0000.0001)     ;
(PID.TID 0000.0001) useCoriolis =  /* Coriolis on/off flag */
(PID.TID 0000.0001)                   T
(PID.TID 0000.0001)     ;
(PID.TID 0000.0001) useCDscheme =  /* CD scheme on/off flag */
(PID.TID 0000.0001)                   F
(PID.TID 0000.0001)     ;
(PID.TID 0000.0001) selectCoriScheme= /* Scheme selector for Coriolis-Term */
(PID.TID 0000.0001)                       1
(PID.TID 0000.0001)    = 0 : original discretization (simple averaging, no hFac)
(PID.TID 0000.0001)    = 1 : Wet-point averaging (Jamar & Ozer 1986)
(PID.TID 0000.0001)    = 2 : energy conserving scheme (no hFac weight)
(PID.TID 0000.0001)    = 3 : energy conserving scheme using Wet-point averaging
(PID.TID 0000.0001)     ;
(PID.TID 0000.0001) momForcing =  /* Momentum forcing on/off flag */
(PID.TID 0000.0001)                   T
(PID.TID 0000.0001)     ;
(PID.TID 0000.0001) momTidalForcing = /* Momentum Tidal forcing on/off flag */
(PID.TID 0000.0001)                   T
(PID.TID 0000.0001)     ;
(PID.TID 0000.0001) momPressureForcing =  /* Momentum pressure term on/off flag */
(PID.TID 0000.0001)                   T
(PID.TID 0000.0001)     ;
(PID.TID 0000.0001) implicitIntGravWave= /* Implicit Internal Gravity Wave flag */
(PID.TID 0000.0001)                   F
(PID.TID 0000.0001)     ;
(PID.TID 0000.0001) staggerTimeStep =    /* Stagger time stepping on/off flag */
(PID.TID 0000.0001)                   T
(PID.TID 0000.0001)     ;
(PID.TID 0000.0001) doResetHFactors = /* reset thickness factors @ each time-step */
(PID.TID 0000.0001)                   F
(PID.TID 0000.0001)     ;
(PID.TID 0000.0001) multiDimAdvection =  /* enable/disable Multi-Dim Advection */
(PID.TID 0000.0001)                   T
(PID.TID 0000.0001)     ;
(PID.TID 0000.0001) useMultiDimAdvec =   /* Multi-Dim Advection is/is-not used */
(PID.TID 0000.0001)                   T
(PID.TID 0000.0001)     ;
(PID.TID 0000.0001) implicitDiffusion = /* Implicit Diffusion on/off flag */
(PID.TID 0000.0001)                   T
(PID.TID 0000.0001)     ;
(PID.TID 0000.0001) tempStepping =  /* Temperature equation on/off flag */
(PID.TID 0000.0001)                   T
(PID.TID 0000.0001)     ;
(PID.TID 0000.0001) tempAdvection = /* Temperature advection on/off flag */
(PID.TID 0000.0001)                   T
(PID.TID 0000.0001)     ;
(PID.TID 0000.0001) tempImplVertAdv = /* Temp. implicit vert. advection on/off */
(PID.TID 0000.0001)                   F
(PID.TID 0000.0001)     ;
(PID.TID 0000.0001) tempForcing  =  /* Temperature forcing on/off flag */
(PID.TID 0000.0001)                   T
(PID.TID 0000.0001)     ;
(PID.TID 0000.0001) doThetaClimRelax = /* apply SST relaxation on/off flag */
(PID.TID 0000.0001)                   F
(PID.TID 0000.0001)     ;
(PID.TID 0000.0001) tempIsActiveTr = /* Temp. is a dynamically Active Tracer */
(PID.TID 0000.0001)                   T
(PID.TID 0000.0001)     ;
(PID.TID 0000.0001) saltStepping =  /* Salinity equation on/off flag */
(PID.TID 0000.0001)                   T
(PID.TID 0000.0001)     ;
(PID.TID 0000.0001) saltAdvection = /* Salinity advection on/off flag */
(PID.TID 0000.0001)                   T
(PID.TID 0000.0001)     ;
(PID.TID 0000.0001) saltImplVertAdv = /* Sali. implicit vert. advection on/off */
(PID.TID 0000.0001)                   F
(PID.TID 0000.0001)     ;
(PID.TID 0000.0001) saltForcing  =  /* Salinity forcing on/off flag */
(PID.TID 0000.0001)                   T
(PID.TID 0000.0001)     ;
(PID.TID 0000.0001) doSaltClimRelax = /* apply SSS relaxation on/off flag */
(PID.TID 0000.0001)                   F
(PID.TID 0000.0001)     ;
(PID.TID 0000.0001) saltIsActiveTr = /* Salt  is a dynamically Active Tracer */
(PID.TID 0000.0001)                   F
(PID.TID 0000.0001)     ;
(PID.TID 0000.0001)  readBinaryPrec = /* Precision used for reading binary files */
(PID.TID 0000.0001)                      64
(PID.TID 0000.0001)     ;
(PID.TID 0000.0001) writeBinaryPrec = /* Precision used for writing binary files */
(PID.TID 0000.0001)                      64
(PID.TID 0000.0001)     ;
(PID.TID 0000.0001)  rwSuffixType =   /* select format of mds file suffix */
(PID.TID 0000.0001)                       0
(PID.TID 0000.0001)    = 0 : myIter (I10.10) ;   = 1 : 100*myTime (100th sec) ;
(PID.TID 0000.0001)    = 2 : myTime (seconds);   = 3 : myTime/360 (10th of hr);
(PID.TID 0000.0001)    = 4 : myTime/3600 (hours)
(PID.TID 0000.0001)     ;
(PID.TID 0000.0001)  globalFiles = /* write "global" (=not per tile) files */
(PID.TID 0000.0001)                   T
(PID.TID 0000.0001)     ;
(PID.TID 0000.0001)  useSingleCpuIO = /* only master MPI process does I/O */
(PID.TID 0000.0001)                   F
(PID.TID 0000.0001)     ;
(PID.TID 0000.0001)  useSingleCpuInput = /* only master process reads input */
(PID.TID 0000.0001)                   F
(PID.TID 0000.0001)     ;
(PID.TID 0000.0001) /* debLev[*]  : level of debug & auxiliary message printing */
(PID.TID 0000.0001) debLevZero =  0 ; /* level of disabled aux. msg printing */
(PID.TID 0000.0001)    debLevA =  1 ; /* level of minimum  aux. msg printing */
(PID.TID 0000.0001)    debLevB =  2 ; /* level of low aux. print (report read-file opening)*/
(PID.TID 0000.0001)    debLevC =  3 ; /* level of moderate debug prt (most pkgs debug msg) */
(PID.TID 0000.0001)    debLevD =  4 ; /* level of enhanced debug prt (add DEBUG_STATS prt) */
(PID.TID 0000.0001)    debLevE =  5 ; /* level of extensive debug printing */
(PID.TID 0000.0001) debugLevel =  /* select debug printing level */
(PID.TID 0000.0001)                       2
(PID.TID 0000.0001)     ;
(PID.TID 0000.0001)  plotLevel =  /* select PLOT_FIELD printing level */
(PID.TID 0000.0001)                       0
(PID.TID 0000.0001)     ;
(PID.TID 0000.0001) //
(PID.TID 0000.0001) // Elliptic solver(s) paramters ( PARM02 in namelist )
(PID.TID 0000.0001) //
(PID.TID 0000.0001) cg2dMaxIters =   /* Upper limit on 2d con. grad iterations  */
(PID.TID 0000.0001)                    1000
(PID.TID 0000.0001)     ;
(PID.TID 0000.0001) cg2dMinItersNSA =   /* Minimum number of iterations of 2d con. grad solver  */
(PID.TID 0000.0001)                       0
(PID.TID 0000.0001)     ;
(PID.TID 0000.0001) cg2dUseMinResSol= /* use cg2d last-iter(=0) / min-resid.(=1) solution */
(PID.TID 0000.0001)                       0
(PID.TID 0000.0001)     ;
(PID.TID 0000.0001) cg2dTargetResidual =   /* 2d con. grad target residual  */
(PID.TID 0000.0001)                 1.000000000000000E-13
(PID.TID 0000.0001)     ;
(PID.TID 0000.0001) cg2dTargetResWunit =   /* CG2d target residual [W units] */
(PID.TID 0000.0001)                -1.000000000000000E+00
(PID.TID 0000.0001)     ;
(PID.TID 0000.0001) cg2dPreCondFreq =   /* Freq. for updating cg2d preconditioner */
(PID.TID 0000.0001)                       1
(PID.TID 0000.0001)     ;
(PID.TID 0000.0001) useSRCGSolver =  /* use single reduction CG solver(s) */
(PID.TID 0000.0001)                   F
(PID.TID 0000.0001)     ;
(PID.TID 0000.0001) useNSACGSolver =  /* use not-self-adjoint CG solver */
(PID.TID 0000.0001)                   F
(PID.TID 0000.0001)     ;
(PID.TID 0000.0001) printResidualFreq = /* Freq. for printing CG residual */
(PID.TID 0000.0001)                       0
(PID.TID 0000.0001)     ;
(PID.TID 0000.0001) //
(PID.TID 0000.0001) // Time stepping paramters ( PARM03 in namelist )
(PID.TID 0000.0001) //
(PID.TID 0000.0001) deltaTMom =   /* Momentum equation timestep ( s ) */
(PID.TID 0000.0001)                 1.800000000000000E+03
(PID.TID 0000.0001)     ;
(PID.TID 0000.0001) deltaTFreeSurf = /* FreeSurface equation timestep ( s ) */
(PID.TID 0000.0001)                 1.800000000000000E+03
(PID.TID 0000.0001)     ;
(PID.TID 0000.0001) dTtracerLev =  /* Tracer equation timestep ( s ) */
(PID.TID 0000.0001)    25 @  1.800000000000000E+03              /* K =  1: 25 */
(PID.TID 0000.0001)     ;
(PID.TID 0000.0001) deltaTClock  =   /* Model clock timestep ( s ) */
(PID.TID 0000.0001)                 1.800000000000000E+03
(PID.TID 0000.0001)     ;
(PID.TID 0000.0001) cAdjFreq =   /* Convective adjustment interval ( s ) */
(PID.TID 0000.0001)                 0.000000000000000E+00
(PID.TID 0000.0001)     ;
(PID.TID 0000.0001) momForcingOutAB = /* =1: take Momentum Forcing out of Adams-Bash. stepping */
(PID.TID 0000.0001)                       0
(PID.TID 0000.0001)     ;
(PID.TID 0000.0001) tracForcingOutAB = /* =1: take T,S,pTr Forcing out of Adams-Bash. stepping */
(PID.TID 0000.0001)                       0
(PID.TID 0000.0001)     ;
(PID.TID 0000.0001) momDissip_In_AB = /* put Dissipation Tendency in Adams-Bash. stepping */
(PID.TID 0000.0001)                   F
(PID.TID 0000.0001)     ;
(PID.TID 0000.0001) doAB_onGtGs = /* apply AB on Tendencies (rather than on T,S)*/
(PID.TID 0000.0001)                   T
(PID.TID 0000.0001)     ;
(PID.TID 0000.0001) abEps =   /* Adams-Bashforth-2 stabilizing weight */
(PID.TID 0000.0001)                 1.000000000000000E-01
(PID.TID 0000.0001)     ;
(PID.TID 0000.0001) applyExchUV_early = /* Apply EXCH to U,V earlier in time-step */
(PID.TID 0000.0001)                   F
(PID.TID 0000.0001)     ;
(PID.TID 0000.0001) pickupStrictlyMatch= /* stop if pickup do not strictly match */
(PID.TID 0000.0001)                   T
(PID.TID 0000.0001)     ;
(PID.TID 0000.0001) nIter0   =   /* Run starting timestep number */
(PID.TID 0000.0001)                       0
(PID.TID 0000.0001)     ;
(PID.TID 0000.0001) nTimeSteps = /* Number of timesteps */
(PID.TID 0000.0001)                      20
(PID.TID 0000.0001)     ;
(PID.TID 0000.0001) nEndIter =   /* Run ending timestep number */
(PID.TID 0000.0001)                      20
(PID.TID 0000.0001)     ;
(PID.TID 0000.0001) baseTime =   /* Model base time ( s ) */
(PID.TID 0000.0001)                 0.000000000000000E+00
(PID.TID 0000.0001)     ;
(PID.TID 0000.0001) startTime =  /* Run start time ( s ) */
(PID.TID 0000.0001)                 0.000000000000000E+00
(PID.TID 0000.0001)     ;
(PID.TID 0000.0001) endTime  =   /* Integration ending time ( s ) */
(PID.TID 0000.0001)                 3.600000000000000E+04
(PID.TID 0000.0001)     ;
(PID.TID 0000.0001) pChkPtFreq = /* Permanent restart/pickup file interval ( s ) */
(PID.TID 0000.0001)                 0.000000000000000E+00
(PID.TID 0000.0001)     ;
(PID.TID 0000.0001) chkPtFreq  = /* Rolling restart/pickup file interval ( s ) */
(PID.TID 0000.0001)                 0.000000000000000E+00
(PID.TID 0000.0001)     ;
(PID.TID 0000.0001) pickup_write_mdsio =   /* Model IO flag. */
(PID.TID 0000.0001)                   T
(PID.TID 0000.0001)     ;
(PID.TID 0000.0001) pickup_read_mdsio =   /* Model IO flag. */
(PID.TID 0000.0001)                   T
(PID.TID 0000.0001)     ;
(PID.TID 0000.0001) writePickupAtEnd =   /* Model IO flag. */
(PID.TID 0000.0001)                   T
(PID.TID 0000.0001)     ;
(PID.TID 0000.0001) dumpFreq =   /* Model state write out interval ( s ). */
(PID.TID 0000.0001)                 8.640000000000000E+05
(PID.TID 0000.0001)     ;
(PID.TID 0000.0001) dumpInitAndLast= /* write out Initial & Last iter. model state */
(PID.TID 0000.0001)                   T
(PID.TID 0000.0001)     ;
(PID.TID 0000.0001) snapshot_mdsio =   /* Model IO flag. */
(PID.TID 0000.0001)                   T
(PID.TID 0000.0001)     ;
(PID.TID 0000.0001) monitorFreq =   /* Monitor output interval ( s ). */
(PID.TID 0000.0001)                 1.000000000000000E+00
(PID.TID 0000.0001)     ;
(PID.TID 0000.0001) monitorSelect = /* select group of variables to monitor */
(PID.TID 0000.0001)                       1
(PID.TID 0000.0001)     ;
(PID.TID 0000.0001) monitor_stdio =   /* Model IO flag. */
(PID.TID 0000.0001)                   T
(PID.TID 0000.0001)     ;
(PID.TID 0000.0001) externForcingPeriod =   /* forcing period (s) */
(PID.TID 0000.0001)                 0.000000000000000E+00
(PID.TID 0000.0001)     ;
(PID.TID 0000.0001) externForcingCycle =   /* period of the cyle (s). */
(PID.TID 0000.0001)                 0.000000000000000E+00
(PID.TID 0000.0001)     ;
(PID.TID 0000.0001) tauThetaClimRelax =   /* relaxation time scale (s) */
(PID.TID 0000.0001)                 0.000000000000000E+00
(PID.TID 0000.0001)     ;
(PID.TID 0000.0001) tauSaltClimRelax =   /* relaxation time scale (s) */
(PID.TID 0000.0001)                 0.000000000000000E+00
(PID.TID 0000.0001)     ;
(PID.TID 0000.0001) latBandClimRelax =   /* max. Lat. where relaxation */
(PID.TID 0000.0001)                 9.636774464936643E+05
(PID.TID 0000.0001)     ;
(PID.TID 0000.0001) //
(PID.TID 0000.0001) // Gridding paramters ( PARM04 in namelist )
(PID.TID 0000.0001) //
(PID.TID 0000.0001) usingCartesianGrid = /* Cartesian coordinates flag ( True/False ) */
(PID.TID 0000.0001)                   T
(PID.TID 0000.0001)     ;
(PID.TID 0000.0001) usingCylindricalGrid = /* Cylindrical coordinates flag ( True/False ) */
(PID.TID 0000.0001)                   F
(PID.TID 0000.0001)     ;
(PID.TID 0000.0001) usingSphericalPolarGrid = /* Spherical coordinates flag ( True/False ) */
(PID.TID 0000.0001)                   F
(PID.TID 0000.0001)     ;
(PID.TID 0000.0001) usingCurvilinearGrid = /* Curvilinear coordinates flag ( True/False ) */
(PID.TID 0000.0001)                   F
(PID.TID 0000.0001)     ;
(PID.TID 0000.0001) useMin4hFacEdges = /* set hFacW,S as minimum of adjacent hFacC factor */
(PID.TID 0000.0001)                   F
(PID.TID 0000.0001)     ;
(PID.TID 0000.0001) interViscAr_pCell = /* account for partial-cell in interior vert. viscosity */
(PID.TID 0000.0001)                   F
(PID.TID 0000.0001)     ;
(PID.TID 0000.0001) interDiffKr_pCell = /* account for partial-cell in interior vert. diffusion */
(PID.TID 0000.0001)                   F
(PID.TID 0000.0001)     ;
(PID.TID 0000.0001) pCellMix_select = /* option to enhance mixing near surface & bottom */
(PID.TID 0000.0001)                       0
(PID.TID 0000.0001)     ;
(PID.TID 0000.0001) selectSigmaCoord = /* Hybrid-Sigma Vert. Coordinate option */
(PID.TID 0000.0001)                       0
(PID.TID 0000.0001)     ;
(PID.TID 0000.0001) rSigmaBnd = /* r/sigma transition ( units of r ==  m ) */
(PID.TID 0000.0001)                 1.234567000000000E+05
(PID.TID 0000.0001)     ;
(PID.TID 0000.0001) rkSign =   /* index orientation relative to vertical coordinate */
(PID.TID 0000.0001)                -1.000000000000000E+00
(PID.TID 0000.0001)     ;
(PID.TID 0000.0001) gravitySign = /* gravity orientation relative to vertical coordinate */
(PID.TID 0000.0001)                -1.000000000000000E+00
(PID.TID 0000.0001)     ;
(PID.TID 0000.0001) seaLev_Z =  /* reference height of sea-level [m] */
(PID.TID 0000.0001)                 0.000000000000000E+00
(PID.TID 0000.0001)     ;
(PID.TID 0000.0001) top_Pres =  /* reference pressure at the top [Pa] */
(PID.TID 0000.0001)                 0.000000000000000E+00
(PID.TID 0000.0001)     ;
(PID.TID 0000.0001) mass2rUnit = /* convert mass per unit area [kg/m2] to r-units [m] */
(PID.TID 0000.0001)                 1.000000000000000E-03
(PID.TID 0000.0001)     ;
(PID.TID 0000.0001) rUnit2mass = /* convert r-units [m] to mass per unit area [kg/m2] */
(PID.TID 0000.0001)                 1.000000000000000E+03
(PID.TID 0000.0001)     ;
(PID.TID 0000.0001) drC =   /* C spacing ( units of r ) */
(PID.TID 0000.0001)                 2.500000000000000E+01,      /* K =  1 */
(PID.TID 0000.0001)                 5.000000000000000E+01,      /* K =  2 */
(PID.TID 0000.0001)                 5.250000000000000E+01,      /* K =  3 */
(PID.TID 0000.0001)                 5.750000000000000E+01,      /* K =  4 */
(PID.TID 0000.0001)                 6.250000000000000E+01,      /* K =  5 */
(PID.TID 0000.0001)                 6.750000000000000E+01,      /* K =  6 */
(PID.TID 0000.0001)                 7.500000000000000E+01,      /* K =  7 */
(PID.TID 0000.0001)                 8.750000000000000E+01,      /* K =  8 */
(PID.TID 0000.0001)                 1.075000000000000E+02,      /* K =  9 */
(PID.TID 0000.0001)                 1.375000000000000E+02,      /* K = 10 */
(PID.TID 0000.0001)                 1.775000000000000E+02,      /* K = 11 */
(PID.TID 0000.0001)                 2.300000000000000E+02,      /* K = 12 */
(PID.TID 0000.0001)                 2.900000000000000E+02,      /* K = 13 */
(PID.TID 0000.0001)                 3.600000000000000E+02,      /* K = 14 */
(PID.TID 0000.0001)                 4.400000000000000E+02,      /* K = 15 */
(PID.TID 0000.0001)                 4.800000000000000E+02,      /* K = 16 */
(PID.TID 0000.0001)    10 @  4.000000000000000E+02              /* K = 17: 26 */
(PID.TID 0000.0001)     ;
(PID.TID 0000.0001) drF =   /* W spacing ( units of r ) */
(PID.TID 0000.0001)                 5.000000000000000E+01,      /* K =  1 */
(PID.TID 0000.0001)                 5.125000000000000E+01,      /* K =  2 */
(PID.TID 0000.0001)                 5.500000000000000E+01,      /* K =  3 */
(PID.TID 0000.0001)                 6.000000000000000E+01,      /* K =  4 */
(PID.TID 0000.0001)                 6.500000000000000E+01,      /* K =  5 */
(PID.TID 0000.0001)                 7.125000000000000E+01,      /* K =  6 */
(PID.TID 0000.0001)                 8.125000000000000E+01,      /* K =  7 */
(PID.TID 0000.0001)                 9.750000000000000E+01,      /* K =  8 */
(PID.TID 0000.0001)                 1.225000000000000E+02,      /* K =  9 */
(PID.TID 0000.0001)                 1.575000000000000E+02,      /* K = 10 */
(PID.TID 0000.0001)                 2.037500000000000E+02,      /* K = 11 */
(PID.TID 0000.0001)                 2.600000000000000E+02,      /* K = 12 */
(PID.TID 0000.0001)                 3.250000000000000E+02,      /* K = 13 */
(PID.TID 0000.0001)                 4.000000000000000E+02,      /* K = 14 */
(PID.TID 0000.0001)                 4.600000000000000E+02,      /* K = 15 */
(PID.TID 0000.0001)                 4.400000000000000E+02,      /* K = 16 */
(PID.TID 0000.0001)     8 @  4.000000000000000E+02,             /* K = 17: 24 */
(PID.TID 0000.0001)                 6.000000000000000E+02       /* K = 25 */
(PID.TID 0000.0001)     ;
(PID.TID 0000.0001) delX = /* U spacing ( m - cartesian, degrees - spherical ) */
(PID.TID 0000.0001)                 1.000000000000000E+04       /* I =  1 */
(PID.TID 0000.0001)     ;
(PID.TID 0000.0001) delY = /* V spacing ( m - cartesian, degrees - spherical ) */
(PID.TID 0000.0001)                 1.121845490233872E+04,      /* J =  1 */
(PID.TID 0000.0001)                 1.120417408127598E+04,      /* J =  2 */
(PID.TID 0000.0001)                 1.117790763965009E+04,      /* J =  3 */
(PID.TID 0000.0001)                 1.113214211541110E+04,      /* J =  4 */
(PID.TID 0000.0001)                 1.105667354210767E+04,      /* J =  5 */
(PID.TID 0000.0001)                 1.093902768829823E+04,      /* J =  6 */
(PID.TID 0000.0001)                 1.076592279809904E+04,      /* J =  7 */
(PID.TID 0000.0001)                 1.052599385487605E+04,      /* J =  8 */
(PID.TID 0000.0001)                 1.021361421186628E+04,      /* J =  9 */
(PID.TID 0000.0001)                 9.833098593630379E+03,      /* J = 10 */
(PID.TID 0000.0001)                 9.402036775610259E+03,      /* J = 11 */
(PID.TID 0000.0001)                 8.952270066930356E+03,      /* J = 12 */
(PID.TID 0000.0001)                 8.527336484962452E+03,      /* J = 13 */
(PID.TID 0000.0001)                 8.176138828117387E+03,      /* J = 14 */
(PID.TID 0000.0001)                 7.943896227202051E+03,      /* J = 15 */
(PID.TID 0000.0001)                 7.862624379247893E+03,      /* J = 16 */
(PID.TID 0000.0001)                 7.943896227202051E+03,      /* J = 17 */
(PID.TID 0000.0001)                 8.176138828117387E+03,      /* J = 18 */
(PID.TID 0000.0001)                 8.527336484962452E+03,      /* J = 19 */
(PID.TID 0000.0001)                 8.952270066930356E+03,      /* J = 20 */
(PID.TID 0000.0001)                 9.402036775610259E+03,      /* J = 21 */
(PID.TID 0000.0001)                 9.833098593630379E+03,      /* J = 22 */
(PID.TID 0000.0001)                 1.021361421186628E+04,      /* J = 23 */
(PID.TID 0000.0001)                 1.052599385487605E+04,      /* J = 24 */
(PID.TID 0000.0001)                 1.076592279809904E+04,      /* J = 25 */
(PID.TID 0000.0001)                 1.093902768829823E+04,      /* J = 26 */
(PID.TID 0000.0001)                 1.105667354210767E+04,      /* J = 27 */
(PID.TID 0000.0001)                 1.113214211541110E+04,      /* J = 28 */
(PID.TID 0000.0001)                 1.117790763965009E+04,      /* J = 29 */
(PID.TID 0000.0001)                 1.120417408127598E+04,      /* J = 30 */
(PID.TID 0000.0001)                 1.121845490233872E+04,      /* J = 31 */
(PID.TID 0000.0001)                 1.122581549788791E+04       /* J = 32 */
(PID.TID 0000.0001)     ;
(PID.TID 0000.0001) xgOrigin = /* X-axis origin of West  edge (cartesian: m, lat-lon: deg) */
(PID.TID 0000.0001)                 0.000000000000000E+00
(PID.TID 0000.0001)     ;
(PID.TID 0000.0001) ygOrigin = /* Y-axis origin of South edge (cartesian: m, lat-lon: deg) */
(PID.TID 0000.0001)                 0.000000000000000E+00
(PID.TID 0000.0001)     ;
(PID.TID 0000.0001) rSphere =  /* Radius ( ignored - cartesian, m - spherical ) */
(PID.TID 0000.0001)                 6.370000000000000E+06
(PID.TID 0000.0001)     ;
(PID.TID 0000.0001) deepAtmosphere = /* Deep/Shallow Atmosphere flag (True/False) */
(PID.TID 0000.0001)                   F
(PID.TID 0000.0001)     ;
(PID.TID 0000.0001) xC =  /* xC(:,1,:,1) : P-point X coord ( deg. or m if cartesian) */
(PID.TID 0000.0001)                 5.000000000000000E+03       /* I =  1 */
(PID.TID 0000.0001)     ;
(PID.TID 0000.0001) yC =  /* yC(1,:,1,:) : P-point Y coord ( deg. or m if cartesian) */
(PID.TID 0000.0001)                 5.609227451169357E+03,      /* J =  1 */
(PID.TID 0000.0001)                 1.682054194297670E+04,      /* J =  2 */
(PID.TID 0000.0001)                 2.801158280343973E+04,      /* J =  3 */
(PID.TID 0000.0001)                 3.916660768097033E+04,      /* J =  4 */
(PID.TID 0000.0001)                 5.026101550972972E+04,      /* J =  5 */
(PID.TID 0000.0001)                 6.125886612493267E+04,      /* J =  6 */
(PID.TID 0000.0001)                 7.211134136813131E+04,      /* J =  7 */
(PID.TID 0000.0001)                 8.275729969461885E+04,      /* J =  8 */
(PID.TID 0000.0001)                 9.312710372799002E+04,      /* J =  9 */
(PID.TID 0000.0001)                 1.031504601307384E+05,      /* J = 10 */
(PID.TID 0000.0001)                 1.127680278153587E+05,      /* J = 11 */
(PID.TID 0000.0001)                 1.219451812366290E+05,      /* J = 12 */
(PID.TID 0000.0001)                 1.306849845125754E+05,      /* J = 13 */
(PID.TID 0000.0001)                 1.390367221691153E+05,      /* J = 14 */
(PID.TID 0000.0001)                 1.470967396967750E+05,      /* J = 15 */
(PID.TID 0000.0001)                 1.550000000000000E+05,      /* J = 16 */
(PID.TID 0000.0001)                 1.629032603032250E+05,      /* J = 17 */
(PID.TID 0000.0001)                 1.709632778308847E+05,      /* J = 18 */
(PID.TID 0000.0001)                 1.793150154874247E+05,      /* J = 19 */
(PID.TID 0000.0001)                 1.880548187633711E+05,      /* J = 20 */
(PID.TID 0000.0001)                 1.972319721846414E+05,      /* J = 21 */
(PID.TID 0000.0001)                 2.068495398692617E+05,      /* J = 22 */
(PID.TID 0000.0001)                 2.168728962720101E+05,      /* J = 23 */
(PID.TID 0000.0001)                 2.272427003053812E+05,      /* J = 24 */
(PID.TID 0000.0001)                 2.378886586318688E+05,      /* J = 25 */
(PID.TID 0000.0001)                 2.487411338750674E+05,      /* J = 26 */
(PID.TID 0000.0001)                 2.597389844902704E+05,      /* J = 27 */
(PID.TID 0000.0001)                 2.708333923190298E+05,      /* J = 28 */
(PID.TID 0000.0001)                 2.819884171965604E+05,      /* J = 29 */
(PID.TID 0000.0001)                 2.931794580570235E+05,      /* J = 30 */
(PID.TID 0000.0001)                 3.043907725488308E+05,      /* J = 31 */
(PID.TID 0000.0001)                 3.156129077489441E+05       /* J = 32 */
(PID.TID 0000.0001)     ;
(PID.TID 0000.0001) rcoord = /* P-point R coordinate (  units of r ) */
(PID.TID 0000.0001)                -2.500000000000000E+01,      /* K =  1 */
(PID.TID 0000.0001)                -7.500000000000000E+01,      /* K =  2 */
(PID.TID 0000.0001)                -1.275000000000000E+02,      /* K =  3 */
(PID.TID 0000.0001)                -1.850000000000000E+02,      /* K =  4 */
(PID.TID 0000.0001)                -2.475000000000000E+02,      /* K =  5 */
(PID.TID 0000.0001)                -3.150000000000000E+02,      /* K =  6 */
(PID.TID 0000.0001)                -3.900000000000000E+02,      /* K =  7 */
(PID.TID 0000.0001)                -4.775000000000000E+02,      /* K =  8 */
(PID.TID 0000.0001)                -5.850000000000000E+02,      /* K =  9 */
(PID.TID 0000.0001)                -7.225000000000000E+02,      /* K = 10 */
(PID.TID 0000.0001)                -9.000000000000000E+02,      /* K = 11 */
(PID.TID 0000.0001)                -1.130000000000000E+03,      /* K = 12 */
(PID.TID 0000.0001)                -1.420000000000000E+03,      /* K = 13 */
(PID.TID 0000.0001)                -1.780000000000000E+03,      /* K = 14 */
(PID.TID 0000.0001)                -2.220000000000000E+03,      /* K = 15 */
(PID.TID 0000.0001)                -2.700000000000000E+03,      /* K = 16 */
(PID.TID 0000.0001)                -3.100000000000000E+03,      /* K = 17 */
(PID.TID 0000.0001)                -3.500000000000000E+03,      /* K = 18 */
(PID.TID 0000.0001)                -3.900000000000000E+03,      /* K = 19 */
(PID.TID 0000.0001)                -4.300000000000000E+03,      /* K = 20 */
(PID.TID 0000.0001)                -4.700000000000000E+03,      /* K = 21 */
(PID.TID 0000.0001)                -5.100000000000000E+03,      /* K = 22 */
(PID.TID 0000.0001)                -5.500000000000000E+03,      /* K = 23 */
(PID.TID 0000.0001)                -5.900000000000000E+03,      /* K = 24 */
(PID.TID 0000.0001)                -6.300000000000000E+03       /* K = 25 */
(PID.TID 0000.0001)     ;
(PID.TID 0000.0001) rF =   /* W-Interf. R coordinate (  units of r ) */
(PID.TID 0000.0001)                 0.000000000000000E+00,      /* K =  1 */
(PID.TID 0000.0001)                -5.000000000000000E+01,      /* K =  2 */
(PID.TID 0000.0001)                -1.012500000000000E+02,      /* K =  3 */
(PID.TID 0000.0001)                -1.562500000000000E+02,      /* K =  4 */
(PID.TID 0000.0001)                -2.162500000000000E+02,      /* K =  5 */
(PID.TID 0000.0001)                -2.812500000000000E+02,      /* K =  6 */
(PID.TID 0000.0001)                -3.525000000000000E+02,      /* K =  7 */
(PID.TID 0000.0001)                -4.337500000000000E+02,      /* K =  8 */
(PID.TID 0000.0001)                -5.312500000000000E+02,      /* K =  9 */
(PID.TID 0000.0001)                -6.537500000000000E+02,      /* K = 10 */
(PID.TID 0000.0001)                -8.112500000000000E+02,      /* K = 11 */
(PID.TID 0000.0001)                -1.015000000000000E+03,      /* K = 12 */
(PID.TID 0000.0001)                -1.275000000000000E+03,      /* K = 13 */
(PID.TID 0000.0001)                -1.600000000000000E+03,      /* K = 14 */
(PID.TID 0000.0001)                -2.000000000000000E+03,      /* K = 15 */
(PID.TID 0000.0001)                -2.460000000000000E+03,      /* K = 16 */
(PID.TID 0000.0001)                -2.900000000000000E+03,      /* K = 17 */
(PID.TID 0000.0001)                -3.300000000000000E+03,      /* K = 18 */
(PID.TID 0000.0001)                -3.700000000000000E+03,      /* K = 19 */
(PID.TID 0000.0001)                -4.100000000000000E+03,      /* K = 20 */
(PID.TID 0000.0001)                -4.500000000000000E+03,      /* K = 21 */
(PID.TID 0000.0001)                -4.900000000000000E+03,      /* K = 22 */
(PID.TID 0000.0001)                -5.300000000000000E+03,      /* K = 23 */
(PID.TID 0000.0001)                -5.700000000000000E+03,      /* K = 24 */
(PID.TID 0000.0001)                -6.100000000000000E+03,      /* K = 25 */
(PID.TID 0000.0001)                -6.700000000000000E+03       /* K = 26 */
(PID.TID 0000.0001)     ;
(PID.TID 0000.0001) deepFacC = /* deep-model grid factor @ cell-Center (-) */
(PID.TID 0000.0001)    25 @  1.000000000000000E+00              /* K =  1: 25 */
(PID.TID 0000.0001)     ;
(PID.TID 0000.0001) deepFacF = /* deep-model grid factor @ W-Interface (-) */
(PID.TID 0000.0001)    26 @  1.000000000000000E+00              /* K =  1: 26 */
(PID.TID 0000.0001)     ;
(PID.TID 0000.0001) rVel2wUnit = /* convert units: rVel -> wSpeed (=1 if z-coord)*/
(PID.TID 0000.0001)    26 @  1.000000000000000E+00              /* K =  1: 26 */
(PID.TID 0000.0001)     ;
(PID.TID 0000.0001) wUnit2rVel = /* convert units: wSpeed -> rVel (=1 if z-coord)*/
(PID.TID 0000.0001)    26 @  1.000000000000000E+00              /* K =  1: 26 */
(PID.TID 0000.0001)     ;
(PID.TID 0000.0001) dBdrRef = /* Vertical grad. of reference buoyancy [(m/s/r)^2] */
(PID.TID 0000.0001)    25 @  0.000000000000000E+00              /* K =  1: 25 */
(PID.TID 0000.0001)     ;
(PID.TID 0000.0001) rotateGrid = /* use rotated grid ( True/False ) */
(PID.TID 0000.0001)                   F
(PID.TID 0000.0001)     ;
(PID.TID 0000.0001) phiEuler = /* Euler angle, rotation about original z-coordinate [rad] */
(PID.TID 0000.0001)                 0.000000000000000E+00
(PID.TID 0000.0001)     ;
(PID.TID 0000.0001) thetaEuler = /* Euler angle, rotation about new x-coordinate [rad] */
(PID.TID 0000.0001)                 0.000000000000000E+00
(PID.TID 0000.0001)     ;
(PID.TID 0000.0001) psiEuler = /* Euler angle, rotation about new z-coordinate [rad] */
(PID.TID 0000.0001)                 0.000000000000000E+00
(PID.TID 0000.0001)     ;
(PID.TID 0000.0001) dxF =  /* dxF(:,1,:,1) ( units: m ) */
(PID.TID 0000.0001)                 1.000000000000000E+04       /* I =  1 */
(PID.TID 0000.0001)     ;
(PID.TID 0000.0001) dxF =  /* dxF(1,:,1,:) ( units: m ) */
(PID.TID 0000.0001)    32 @  1.000000000000000E+04              /* J =  1: 32 */
(PID.TID 0000.0001)     ;
(PID.TID 0000.0001) dyF =  /* dyF(:,1,:,1) ( units: m ) */
(PID.TID 0000.0001)                 1.121845490233872E+04       /* I =  1 */
(PID.TID 0000.0001)     ;
(PID.TID 0000.0001) dyF =  /* dyF(1,:,1,:) ( units: m ) */
(PID.TID 0000.0001)                 1.121845490233872E+04,      /* J =  1 */
(PID.TID 0000.0001)                 1.120417408127598E+04,      /* J =  2 */
(PID.TID 0000.0001)                 1.117790763965009E+04,      /* J =  3 */
(PID.TID 0000.0001)                 1.113214211541110E+04,      /* J =  4 */
(PID.TID 0000.0001)                 1.105667354210767E+04,      /* J =  5 */
(PID.TID 0000.0001)                 1.093902768829823E+04,      /* J =  6 */
(PID.TID 0000.0001)                 1.076592279809904E+04,      /* J =  7 */
(PID.TID 0000.0001)                 1.052599385487605E+04,      /* J =  8 */
(PID.TID 0000.0001)                 1.021361421186628E+04,      /* J =  9 */
(PID.TID 0000.0001)                 9.833098593630379E+03,      /* J = 10 */
(PID.TID 0000.0001)                 9.402036775610259E+03,      /* J = 11 */
(PID.TID 0000.0001)                 8.952270066930356E+03,      /* J = 12 */
(PID.TID 0000.0001)                 8.527336484962452E+03,      /* J = 13 */
(PID.TID 0000.0001)                 8.176138828117387E+03,      /* J = 14 */
(PID.TID 0000.0001)                 7.943896227202051E+03,      /* J = 15 */
(PID.TID 0000.0001)                 7.862624379247893E+03,      /* J = 16 */
(PID.TID 0000.0001)                 7.943896227202051E+03,      /* J = 17 */
(PID.TID 0000.0001)                 8.176138828117387E+03,      /* J = 18 */
(PID.TID 0000.0001)                 8.527336484962452E+03,      /* J = 19 */
(PID.TID 0000.0001)                 8.952270066930356E+03,      /* J = 20 */
(PID.TID 0000.0001)                 9.402036775610259E+03,      /* J = 21 */
(PID.TID 0000.0001)                 9.833098593630379E+03,      /* J = 22 */
(PID.TID 0000.0001)                 1.021361421186628E+04,      /* J = 23 */
(PID.TID 0000.0001)                 1.052599385487605E+04,      /* J = 24 */
(PID.TID 0000.0001)                 1.076592279809904E+04,      /* J = 25 */
(PID.TID 0000.0001)                 1.093902768829823E+04,      /* J = 26 */
(PID.TID 0000.0001)                 1.105667354210767E+04,      /* J = 27 */
(PID.TID 0000.0001)                 1.113214211541110E+04,      /* J = 28 */
(PID.TID 0000.0001)                 1.117790763965009E+04,      /* J = 29 */
(PID.TID 0000.0001)                 1.120417408127598E+04,      /* J = 30 */
(PID.TID 0000.0001)                 1.121845490233872E+04,      /* J = 31 */
(PID.TID 0000.0001)                 1.122581549788791E+04       /* J = 32 */
(PID.TID 0000.0001)     ;
(PID.TID 0000.0001) dxG =  /* dxG(:,1,:,1) ( units: m ) */
(PID.TID 0000.0001)                 1.000000000000000E+04       /* I =  1 */
(PID.TID 0000.0001)     ;
(PID.TID 0000.0001) dxG =  /* dxG(1,:,1,:) ( units: m ) */
(PID.TID 0000.0001)    32 @  1.000000000000000E+04              /* J =  1: 32 */
(PID.TID 0000.0001)     ;
(PID.TID 0000.0001) dyG =  /* dyG(:,1,:,1) ( units: m ) */
(PID.TID 0000.0001)                 1.121845490233872E+04       /* I =  1 */
(PID.TID 0000.0001)     ;
(PID.TID 0000.0001) dyG =  /* dyG(1,:,1,:) ( units: m ) */
(PID.TID 0000.0001)                 1.121845490233872E+04,      /* J =  1 */
(PID.TID 0000.0001)                 1.120417408127598E+04,      /* J =  2 */
(PID.TID 0000.0001)                 1.117790763965009E+04,      /* J =  3 */
(PID.TID 0000.0001)                 1.113214211541110E+04,      /* J =  4 */
(PID.TID 0000.0001)                 1.105667354210767E+04,      /* J =  5 */
(PID.TID 0000.0001)                 1.093902768829823E+04,      /* J =  6 */
(PID.TID 0000.0001)                 1.076592279809904E+04,      /* J =  7 */
(PID.TID 0000.0001)                 1.052599385487605E+04,      /* J =  8 */
(PID.TID 0000.0001)                 1.021361421186628E+04,      /* J =  9 */
(PID.TID 0000.0001)                 9.833098593630379E+03,      /* J = 10 */
(PID.TID 0000.0001)                 9.402036775610259E+03,      /* J = 11 */
(PID.TID 0000.0001)                 8.952270066930356E+03,      /* J = 12 */
(PID.TID 0000.0001)                 8.527336484962452E+03,      /* J = 13 */
(PID.TID 0000.0001)                 8.176138828117387E+03,      /* J = 14 */
(PID.TID 0000.0001)                 7.943896227202051E+03,      /* J = 15 */
(PID.TID 0000.0001)                 7.862624379247893E+03,      /* J = 16 */
(PID.TID 0000.0001)                 7.943896227202051E+03,      /* J = 17 */
(PID.TID 0000.0001)                 8.176138828117387E+03,      /* J = 18 */
(PID.TID 0000.0001)                 8.527336484962452E+03,      /* J = 19 */
(PID.TID 0000.0001)                 8.952270066930356E+03,      /* J = 20 */
(PID.TID 0000.0001)                 9.402036775610259E+03,      /* J = 21 */
(PID.TID 0000.0001)                 9.833098593630379E+03,      /* J = 22 */
(PID.TID 0000.0001)                 1.021361421186628E+04,      /* J = 23 */
(PID.TID 0000.0001)                 1.052599385487605E+04,      /* J = 24 */
(PID.TID 0000.0001)                 1.076592279809904E+04,      /* J = 25 */
(PID.TID 0000.0001)                 1.093902768829823E+04,      /* J = 26 */
(PID.TID 0000.0001)                 1.105667354210767E+04,      /* J = 27 */
(PID.TID 0000.0001)                 1.113214211541110E+04,      /* J = 28 */
(PID.TID 0000.0001)                 1.117790763965009E+04,      /* J = 29 */
(PID.TID 0000.0001)                 1.120417408127598E+04,      /* J = 30 */
(PID.TID 0000.0001)                 1.121845490233872E+04,      /* J = 31 */
(PID.TID 0000.0001)                 1.122581549788791E+04       /* J = 32 */
(PID.TID 0000.0001)     ;
(PID.TID 0000.0001) dxC =  /* dxC(:,1,:,1) ( units: m ) */
(PID.TID 0000.0001)                 1.000000000000000E+04       /* I =  1 */
(PID.TID 0000.0001)     ;
(PID.TID 0000.0001) dxC =  /* dxC(1,:,1,:) ( units: m ) */
(PID.TID 0000.0001)    32 @  1.000000000000000E+04              /* J =  1: 32 */
(PID.TID 0000.0001)     ;
(PID.TID 0000.0001) dyC =  /* dyC(:,1,:,1) ( units: m ) */
(PID.TID 0000.0001)                 1.122213520011331E+04       /* I =  1 */
(PID.TID 0000.0001)     ;
(PID.TID 0000.0001) dyC =  /* dyC(1,:,1,:) ( units: m ) */
(PID.TID 0000.0001)                 1.122213520011331E+04,      /* J =  1 */
(PID.TID 0000.0001)                 1.121131449180735E+04,      /* J =  2 */
(PID.TID 0000.0001)                 1.119104086046303E+04,      /* J =  3 */
(PID.TID 0000.0001)                 1.115502487753059E+04,      /* J =  4 */
(PID.TID 0000.0001)                 1.109440782875938E+04,      /* J =  5 */
(PID.TID 0000.0001)                 1.099785061520295E+04,      /* J =  6 */
(PID.TID 0000.0001)                 1.085247524319864E+04,      /* J =  7 */
(PID.TID 0000.0001)                 1.064595832648755E+04,      /* J =  8 */
(PID.TID 0000.0001)                 1.036980403337117E+04,      /* J =  9 */
(PID.TID 0000.0001)                 1.002335640274833E+04,      /* J = 10 */
(PID.TID 0000.0001)                 9.617567684620319E+03,      /* J = 11 */
(PID.TID 0000.0001)                 9.177153421270308E+03,      /* J = 12 */
(PID.TID 0000.0001)                 8.739803275946404E+03,      /* J = 13 */
(PID.TID 0000.0001)                 8.351737656539919E+03,      /* J = 14 */
(PID.TID 0000.0001)                 8.060017527659718E+03,      /* J = 15 */
(PID.TID 0000.0001)     2 @  7.903260303224972E+03,             /* J = 16: 17 */
(PID.TID 0000.0001)                 8.060017527659718E+03,      /* J = 18 */
(PID.TID 0000.0001)                 8.351737656539919E+03,      /* J = 19 */
(PID.TID 0000.0001)                 8.739803275946404E+03,      /* J = 20 */
(PID.TID 0000.0001)                 9.177153421270308E+03,      /* J = 21 */
(PID.TID 0000.0001)                 9.617567684620319E+03,      /* J = 22 */
(PID.TID 0000.0001)                 1.002335640274833E+04,      /* J = 23 */
(PID.TID 0000.0001)                 1.036980403337117E+04,      /* J = 24 */
(PID.TID 0000.0001)                 1.064595832648755E+04,      /* J = 25 */
(PID.TID 0000.0001)                 1.085247524319864E+04,      /* J = 26 */
(PID.TID 0000.0001)                 1.099785061520295E+04,      /* J = 27 */
(PID.TID 0000.0001)                 1.109440782875938E+04,      /* J = 28 */
(PID.TID 0000.0001)                 1.115502487753059E+04,      /* J = 29 */
(PID.TID 0000.0001)                 1.119104086046303E+04,      /* J = 30 */
(PID.TID 0000.0001)                 1.121131449180735E+04,      /* J = 31 */
(PID.TID 0000.0001)                 1.122213520011331E+04       /* J = 32 */
(PID.TID 0000.0001)     ;
(PID.TID 0000.0001) dxV =  /* dxV(:,1,:,1) ( units: m ) */
(PID.TID 0000.0001)                 1.000000000000000E+04       /* I =  1 */
(PID.TID 0000.0001)     ;
(PID.TID 0000.0001) dxV =  /* dxV(1,:,1,:) ( units: m ) */
(PID.TID 0000.0001)    32 @  1.000000000000000E+04              /* J =  1: 32 */
(PID.TID 0000.0001)     ;
(PID.TID 0000.0001) dyU =  /* dyU(:,1,:,1) ( units: m ) */
(PID.TID 0000.0001)                 1.122213520011331E+04       /* I =  1 */
(PID.TID 0000.0001)     ;
(PID.TID 0000.0001) dyU =  /* dyU(1,:,1,:) ( units: m ) */
(PID.TID 0000.0001)                 1.122213520011331E+04,      /* J =  1 */
(PID.TID 0000.0001)                 1.121131449180735E+04,      /* J =  2 */
(PID.TID 0000.0001)                 1.119104086046303E+04,      /* J =  3 */
(PID.TID 0000.0001)                 1.115502487753059E+04,      /* J =  4 */
(PID.TID 0000.0001)                 1.109440782875938E+04,      /* J =  5 */
(PID.TID 0000.0001)                 1.099785061520295E+04,      /* J =  6 */
(PID.TID 0000.0001)                 1.085247524319864E+04,      /* J =  7 */
(PID.TID 0000.0001)                 1.064595832648755E+04,      /* J =  8 */
(PID.TID 0000.0001)                 1.036980403337117E+04,      /* J =  9 */
(PID.TID 0000.0001)                 1.002335640274833E+04,      /* J = 10 */
(PID.TID 0000.0001)                 9.617567684620319E+03,      /* J = 11 */
(PID.TID 0000.0001)                 9.177153421270308E+03,      /* J = 12 */
(PID.TID 0000.0001)                 8.739803275946404E+03,      /* J = 13 */
(PID.TID 0000.0001)                 8.351737656539919E+03,      /* J = 14 */
(PID.TID 0000.0001)                 8.060017527659718E+03,      /* J = 15 */
(PID.TID 0000.0001)     2 @  7.903260303224972E+03,             /* J = 16: 17 */
(PID.TID 0000.0001)                 8.060017527659718E+03,      /* J = 18 */
(PID.TID 0000.0001)                 8.351737656539919E+03,      /* J = 19 */
(PID.TID 0000.0001)                 8.739803275946404E+03,      /* J = 20 */
(PID.TID 0000.0001)                 9.177153421270308E+03,      /* J = 21 */
(PID.TID 0000.0001)                 9.617567684620319E+03,      /* J = 22 */
(PID.TID 0000.0001)                 1.002335640274833E+04,      /* J = 23 */
(PID.TID 0000.0001)                 1.036980403337117E+04,      /* J = 24 */
(PID.TID 0000.0001)                 1.064595832648755E+04,      /* J = 25 */
(PID.TID 0000.0001)                 1.085247524319864E+04,      /* J = 26 */
(PID.TID 0000.0001)                 1.099785061520295E+04,      /* J = 27 */
(PID.TID 0000.0001)                 1.109440782875938E+04,      /* J = 28 */
(PID.TID 0000.0001)                 1.115502487753059E+04,      /* J = 29 */
(PID.TID 0000.0001)                 1.119104086046303E+04,      /* J = 30 */
(PID.TID 0000.0001)                 1.121131449180735E+04,      /* J = 31 */
(PID.TID 0000.0001)                 1.122213520011331E+04       /* J = 32 */
(PID.TID 0000.0001)     ;
(PID.TID 0000.0001) rA  =  /* rA (:,1,:,1) ( units: m^2 ) */
(PID.TID 0000.0001)                 1.121845490233872E+08       /* I =  1 */
(PID.TID 0000.0001)     ;
(PID.TID 0000.0001) rA  =  /* rA (1,:,1,:) ( units: m^2 ) */
(PID.TID 0000.0001)                 1.121845490233872E+08,      /* J =  1 */
(PID.TID 0000.0001)                 1.120417408127598E+08,      /* J =  2 */
(PID.TID 0000.0001)                 1.117790763965009E+08,      /* J =  3 */
(PID.TID 0000.0001)                 1.113214211541110E+08,      /* J =  4 */
(PID.TID 0000.0001)                 1.105667354210767E+08,      /* J =  5 */
(PID.TID 0000.0001)                 1.093902768829823E+08,      /* J =  6 */
(PID.TID 0000.0001)                 1.076592279809904E+08,      /* J =  7 */
(PID.TID 0000.0001)                 1.052599385487605E+08,      /* J =  8 */
(PID.TID 0000.0001)                 1.021361421186628E+08,      /* J =  9 */
(PID.TID 0000.0001)                 9.833098593630378E+07,      /* J = 10 */
(PID.TID 0000.0001)                 9.402036775610259E+07,      /* J = 11 */
(PID.TID 0000.0001)                 8.952270066930355E+07,      /* J = 12 */
(PID.TID 0000.0001)                 8.527336484962453E+07,      /* J = 13 */
(PID.TID 0000.0001)                 8.176138828117387E+07,      /* J = 14 */
(PID.TID 0000.0001)                 7.943896227202050E+07,      /* J = 15 */
(PID.TID 0000.0001)                 7.862624379247892E+07,      /* J = 16 */
(PID.TID 0000.0001)                 7.943896227202050E+07,      /* J = 17 */
(PID.TID 0000.0001)                 8.176138828117387E+07,      /* J = 18 */
(PID.TID 0000.0001)                 8.527336484962453E+07,      /* J = 19 */
(PID.TID 0000.0001)                 8.952270066930355E+07,      /* J = 20 */
(PID.TID 0000.0001)                 9.402036775610259E+07,      /* J = 21 */
(PID.TID 0000.0001)                 9.833098593630378E+07,      /* J = 22 */
(PID.TID 0000.0001)                 1.021361421186628E+08,      /* J = 23 */
(PID.TID 0000.0001)                 1.052599385487605E+08,      /* J = 24 */
(PID.TID 0000.0001)                 1.076592279809904E+08,      /* J = 25 */
(PID.TID 0000.0001)                 1.093902768829823E+08,      /* J = 26 */
(PID.TID 0000.0001)                 1.105667354210767E+08,      /* J = 27 */
(PID.TID 0000.0001)                 1.113214211541110E+08,      /* J = 28 */
(PID.TID 0000.0001)                 1.117790763965009E+08,      /* J = 29 */
(PID.TID 0000.0001)                 1.120417408127598E+08,      /* J = 30 */
(PID.TID 0000.0001)                 1.121845490233872E+08,      /* J = 31 */
(PID.TID 0000.0001)                 1.122581549788791E+08       /* J = 32 */
(PID.TID 0000.0001)     ;
(PID.TID 0000.0001) rAw =  /* rAw(:,1,:,1) ( units: m^2 ) */
(PID.TID 0000.0001)                 1.121845490233872E+08       /* I =  1 */
(PID.TID 0000.0001)     ;
(PID.TID 0000.0001) rAw =  /* rAw(1,:,1,:) ( units: m^2 ) */
(PID.TID 0000.0001)                 1.121845490233872E+08,      /* J =  1 */
(PID.TID 0000.0001)                 1.120417408127598E+08,      /* J =  2 */
(PID.TID 0000.0001)                 1.117790763965009E+08,      /* J =  3 */
(PID.TID 0000.0001)                 1.113214211541110E+08,      /* J =  4 */
(PID.TID 0000.0001)                 1.105667354210767E+08,      /* J =  5 */
(PID.TID 0000.0001)                 1.093902768829823E+08,      /* J =  6 */
(PID.TID 0000.0001)                 1.076592279809904E+08,      /* J =  7 */
(PID.TID 0000.0001)                 1.052599385487605E+08,      /* J =  8 */
(PID.TID 0000.0001)                 1.021361421186628E+08,      /* J =  9 */
(PID.TID 0000.0001)                 9.833098593630378E+07,      /* J = 10 */
(PID.TID 0000.0001)                 9.402036775610259E+07,      /* J = 11 */
(PID.TID 0000.0001)                 8.952270066930355E+07,      /* J = 12 */
(PID.TID 0000.0001)                 8.527336484962453E+07,      /* J = 13 */
(PID.TID 0000.0001)                 8.176138828117387E+07,      /* J = 14 */
(PID.TID 0000.0001)                 7.943896227202050E+07,      /* J = 15 */
(PID.TID 0000.0001)                 7.862624379247892E+07,      /* J = 16 */
(PID.TID 0000.0001)                 7.943896227202050E+07,      /* J = 17 */
(PID.TID 0000.0001)                 8.176138828117387E+07,      /* J = 18 */
(PID.TID 0000.0001)                 8.527336484962453E+07,      /* J = 19 */
(PID.TID 0000.0001)                 8.952270066930355E+07,      /* J = 20 */
(PID.TID 0000.0001)                 9.402036775610259E+07,      /* J = 21 */
(PID.TID 0000.0001)                 9.833098593630378E+07,      /* J = 22 */
(PID.TID 0000.0001)                 1.021361421186628E+08,      /* J = 23 */
(PID.TID 0000.0001)                 1.052599385487605E+08,      /* J = 24 */
(PID.TID 0000.0001)                 1.076592279809904E+08,      /* J = 25 */
(PID.TID 0000.0001)                 1.093902768829823E+08,      /* J = 26 */
(PID.TID 0000.0001)                 1.105667354210767E+08,      /* J = 27 */
(PID.TID 0000.0001)                 1.113214211541110E+08,      /* J = 28 */
(PID.TID 0000.0001)                 1.117790763965009E+08,      /* J = 29 */
(PID.TID 0000.0001)                 1.120417408127598E+08,      /* J = 30 */
(PID.TID 0000.0001)                 1.121845490233872E+08,      /* J = 31 */
(PID.TID 0000.0001)                 1.122581549788791E+08       /* J = 32 */
(PID.TID 0000.0001)     ;
(PID.TID 0000.0001) rAs =  /* rAs(:,1,:,1) ( units: m^2 ) */
(PID.TID 0000.0001)                 1.122213520011331E+08       /* I =  1 */
(PID.TID 0000.0001)     ;
(PID.TID 0000.0001) rAs =  /* rAs(1,:,1,:) ( units: m^2 ) */
(PID.TID 0000.0001)                 1.122213520011331E+08,      /* J =  1 */
(PID.TID 0000.0001)                 1.121131449180735E+08,      /* J =  2 */
(PID.TID 0000.0001)                 1.119104086046303E+08,      /* J =  3 */
(PID.TID 0000.0001)                 1.115502487753059E+08,      /* J =  4 */
(PID.TID 0000.0001)                 1.109440782875938E+08,      /* J =  5 */
(PID.TID 0000.0001)                 1.099785061520295E+08,      /* J =  6 */
(PID.TID 0000.0001)                 1.085247524319864E+08,      /* J =  7 */
(PID.TID 0000.0001)                 1.064595832648755E+08,      /* J =  8 */
(PID.TID 0000.0001)                 1.036980403337117E+08,      /* J =  9 */
(PID.TID 0000.0001)                 1.002335640274833E+08,      /* J = 10 */
(PID.TID 0000.0001)                 9.617567684620319E+07,      /* J = 11 */
(PID.TID 0000.0001)                 9.177153421270308E+07,      /* J = 12 */
(PID.TID 0000.0001)                 8.739803275946404E+07,      /* J = 13 */
(PID.TID 0000.0001)                 8.351737656539918E+07,      /* J = 14 */
(PID.TID 0000.0001)                 8.060017527659719E+07,      /* J = 15 */
(PID.TID 0000.0001)     2 @  7.903260303224972E+07,             /* J = 16: 17 */
(PID.TID 0000.0001)                 8.060017527659719E+07,      /* J = 18 */
(PID.TID 0000.0001)                 8.351737656539918E+07,      /* J = 19 */
(PID.TID 0000.0001)                 8.739803275946404E+07,      /* J = 20 */
(PID.TID 0000.0001)                 9.177153421270308E+07,      /* J = 21 */
(PID.TID 0000.0001)                 9.617567684620319E+07,      /* J = 22 */
(PID.TID 0000.0001)                 1.002335640274833E+08,      /* J = 23 */
(PID.TID 0000.0001)                 1.036980403337117E+08,      /* J = 24 */
(PID.TID 0000.0001)                 1.064595832648755E+08,      /* J = 25 */
(PID.TID 0000.0001)                 1.085247524319864E+08,      /* J = 26 */
(PID.TID 0000.0001)                 1.099785061520295E+08,      /* J = 27 */
(PID.TID 0000.0001)                 1.109440782875938E+08,      /* J = 28 */
(PID.TID 0000.0001)                 1.115502487753059E+08,      /* J = 29 */
(PID.TID 0000.0001)                 1.119104086046303E+08,      /* J = 30 */
(PID.TID 0000.0001)                 1.121131449180735E+08,      /* J = 31 */
(PID.TID 0000.0001)                 1.122213520011331E+08       /* J = 32 */
(PID.TID 0000.0001)     ;
(PID.TID 0000.0001) globalArea = /* Integrated horizontal Area (m^2) */
(PID.TID 0000.0001)                 3.100000000000000E+09
(PID.TID 0000.0001)     ;
(PID.TID 0000.0001) // =======================================================
(PID.TID 0000.0001) // End of Model config. summary
(PID.TID 0000.0001) // =======================================================
(PID.TID 0000.0001) 
(PID.TID 0000.0001) == Packages configuration : Check & print summary ==
(PID.TID 0000.0001) 
(PID.TID 0000.0001) GMREDI_CHECK: #define GMREDI
(PID.TID 0000.0001) GM_AdvForm =     /* if FALSE => use SkewFlux Form */
(PID.TID 0000.0001)                   F
(PID.TID 0000.0001)     ;
(PID.TID 0000.0001) GM_InMomAsStress = /* if TRUE => apply as Eddy Stress */
(PID.TID 0000.0001)                   F
(PID.TID 0000.0001)     ;
(PID.TID 0000.0001) GM_AdvSeparate = /* Calc Bolus & Euler Adv. separately */
(PID.TID 0000.0001)                   F
(PID.TID 0000.0001)     ;
(PID.TID 0000.0001) GM_ExtraDiag =   /* Tensor Extra Diag (line 1&2) non 0 */
(PID.TID 0000.0001)                   F
(PID.TID 0000.0001)     ;
(PID.TID 0000.0001) GM_isopycK =    /* Background Isopyc. Diffusivity [m^2/s] */
(PID.TID 0000.0001)                 1.000000000000000E+03
(PID.TID 0000.0001)     ;
(PID.TID 0000.0001) GM_skewflx*K =  /* Background GM_SkewFlx Diffusivity [m^2/s] */
(PID.TID 0000.0001)                 1.000000000000000E+03
(PID.TID 0000.0001)     ;
(PID.TID 0000.0001) GM_advec*K =    /* Backg. GM-Advec(=Bolus) Diffusivity [m^2/s]*/
(PID.TID 0000.0001)                 0.000000000000000E+00
(PID.TID 0000.0001)     ;
(PID.TID 0000.0001) GM_Kmin_horiz = /* Minimum Horizontal Diffusivity [m^2/s] */
(PID.TID 0000.0001)                 0.000000000000000E+00
(PID.TID 0000.0001)     ;
(PID.TID 0000.0001) GM_Visbeck_alpha = /* Visbeck alpha coeff. [-] */
(PID.TID 0000.0001)                 0.000000000000000E+00
(PID.TID 0000.0001)     ;
(PID.TID 0000.0001) GM_Small_Number =  /* epsilon used in slope calc */
(PID.TID 0000.0001)                 9.999999999999999E-21
(PID.TID 0000.0001)     ;
(PID.TID 0000.0001) GM_slopeSqCutoff = /* Slope^2 cut-off value */
(PID.TID 0000.0001)                 1.000000000000000E+48
(PID.TID 0000.0001)     ;
(PID.TID 0000.0001) GM_taper_scheme =  /* Type of Tapering/Clipping scheme */
(PID.TID 0000.0001)               '                                        '
(PID.TID 0000.0001)     ;
(PID.TID 0000.0001) GM_maxSlope =  /* Maximum Slope (Tapering/Clipping) */
(PID.TID 0000.0001)                 1.000000000000000E-02
(PID.TID 0000.0001)     ;
(PID.TID 0000.0001) GM_facTrL2dz = /* Minimum Trans.Layer Thick. (factor of dz) */
(PID.TID 0000.0001)                 1.000000000000000E+00
(PID.TID 0000.0001)     ;
(PID.TID 0000.0001) GM_facTrL2ML = /* Max.Trans.Layer Thick. (factor of MxL Depth)*/
(PID.TID 0000.0001)                 5.000000000000000E+00
(PID.TID 0000.0001)     ;
(PID.TID 0000.0001) GM_maxTransLay = /* Maximum Transition Layer Thickness [m] */
(PID.TID 0000.0001)                 5.000000000000000E+02
(PID.TID 0000.0001)     ;
(PID.TID 0000.0001) GM_UseBVP = /* if TRUE => use bvp a la Ferrari et al. (2010) */
(PID.TID 0000.0001)                   F
(PID.TID 0000.0001)     ;
(PID.TID 0000.0001) GM_BVP_ModeNumber = /* Vertical mode number for BVP wave speed */
(PID.TID 0000.0001)                       1
(PID.TID 0000.0001)     ;
(PID.TID 0000.0001) GM_BVP_cMin = /* Minimum wave speed for BVP [m/s] */
(PID.TID 0000.0001)                 1.000000000000000E-01
(PID.TID 0000.0001)     ;
(PID.TID 0000.0001) GM_useSubMeso = /* if TRUE => use Sub-Meso param. (B.Fox-Kemper) */
(PID.TID 0000.0001)                   F
(PID.TID 0000.0001)     ;
(PID.TID 0000.0001) subMeso_Ceff = /* efficiency coeff. of Mixed-Layer Eddies [-] */
(PID.TID 0000.0001)                 7.000000000000001E-02
(PID.TID 0000.0001)     ;
(PID.TID 0000.0001) subMeso_invTau = /* inverse of Sub-Meso mixing time-scale [/s] */
(PID.TID 0000.0001)                 2.000000000000000E-06
(PID.TID 0000.0001)     ;
(PID.TID 0000.0001) subMeso_LfMin = /* minimum length-scale "Lf" [m] */
(PID.TID 0000.0001)                 1.000000000000000E+03
(PID.TID 0000.0001)     ;
(PID.TID 0000.0001) subMeso_Lmax = /* maximum grid-scale length [m] */
(PID.TID 0000.0001)                 1.100000000000000E+05
(PID.TID 0000.0001)     ;
(PID.TID 0000.0001) GM_useLeithQG = /* if TRUE => add QG Leith viscosity to GMRedi tensor */
(PID.TID 0000.0001)                   F
(PID.TID 0000.0001)     ;
(PID.TID 0000.0001) GAD_CHECK: #define ALLOW_GENERIC_ADVDIFF
(PID.TID 0000.0001) // =======================================================
(PID.TID 0000.0001) // Check Model config. (CONFIG_CHECK):
(PID.TID 0000.0001) // CONFIG_CHECK : Normal End
(PID.TID 0000.0001) // =======================================================
(PID.TID 0000.0001) 
(PID.TID 0000.0001)  MDS_READ_FIELD: opening global file: Tini_+10l.bin
(PID.TID 0000.0001)  MDS_READ_FIELD: opening global file: Sini_Ydir.bin
(PID.TID 0000.0001) Start initial hydrostatic pressure computation
(PID.TID 0000.0001) Pressure is predetermined for buoyancyRelation OCEANIC
(PID.TID 0000.0001) 
(PID.TID 0000.0001) // =======================================================
(PID.TID 0000.0001) // Model current state
(PID.TID 0000.0001) // =======================================================
(PID.TID 0000.0001) 
(PID.TID 0000.0001) // =======================================================
(PID.TID 0000.0001) // Begin MONITOR dynamic field statistics
(PID.TID 0000.0001) // =======================================================
(PID.TID 0000.0001) %MON time_tsnumber                =                     0
(PID.TID 0000.0001) %MON time_secondsf                =   0.0000000000000E+00
(PID.TID 0000.0001) %MON dynstat_eta_max              =   0.0000000000000E+00
(PID.TID 0000.0001) %MON dynstat_eta_min              =   0.0000000000000E+00
(PID.TID 0000.0001) %MON dynstat_eta_mean             =   0.0000000000000E+00
(PID.TID 0000.0001) %MON dynstat_eta_sd               =   0.0000000000000E+00
(PID.TID 0000.0001) %MON dynstat_eta_del2             =   0.0000000000000E+00
(PID.TID 0000.0001) %MON dynstat_uvel_max             =   0.0000000000000E+00
(PID.TID 0000.0001) %MON dynstat_uvel_min             =   0.0000000000000E+00
(PID.TID 0000.0001) %MON dynstat_uvel_mean            =   0.0000000000000E+00
(PID.TID 0000.0001) %MON dynstat_uvel_sd              =   0.0000000000000E+00
(PID.TID 0000.0001) %MON dynstat_uvel_del2            =   0.0000000000000E+00
(PID.TID 0000.0001) %MON dynstat_vvel_max             =   0.0000000000000E+00
(PID.TID 0000.0001) %MON dynstat_vvel_min             =   0.0000000000000E+00
(PID.TID 0000.0001) %MON dynstat_vvel_mean            =   0.0000000000000E+00
(PID.TID 0000.0001) %MON dynstat_vvel_sd              =   0.0000000000000E+00
(PID.TID 0000.0001) %MON dynstat_vvel_del2            =   0.0000000000000E+00
(PID.TID 0000.0001) %MON dynstat_wvel_max             =  -0.0000000000000E+00
(PID.TID 0000.0001) %MON dynstat_wvel_min             =  -0.0000000000000E+00
(PID.TID 0000.0001) %MON dynstat_wvel_mean            =   0.0000000000000E+00
(PID.TID 0000.0001) %MON dynstat_wvel_sd              =   0.0000000000000E+00
(PID.TID 0000.0001) %MON dynstat_wvel_del2            =   0.0000000000000E+00
(PID.TID 0000.0001) %MON dynstat_theta_max            =   2.0568423459062E+01
(PID.TID 0000.0001) %MON dynstat_theta_min            =   1.5559594024634E+01
(PID.TID 0000.0001) %MON dynstat_theta_mean           =   1.7563160569106E+01
(PID.TID 0000.0001) %MON dynstat_theta_sd             =   1.4157859662864E+00
(PID.TID 0000.0001) %MON dynstat_theta_del2           =   1.3832283076989E-04
(PID.TID 0000.0001) %MON dynstat_salt_max             =   1.0000000000000E+00
(PID.TID 0000.0001) %MON dynstat_salt_min             =   3.9497512775329E-01
(PID.TID 0000.0001) %MON dynstat_salt_mean            =   7.4692405417468E-01
(PID.TID 0000.0001) %MON dynstat_salt_sd              =   2.0066334606907E-01
(PID.TID 0000.0001) %MON dynstat_salt_del2            =   2.2833808829094E-04
(PID.TID 0000.0001) %MON advcfl_uvel_max              =   0.0000000000000E+00
(PID.TID 0000.0001) %MON advcfl_vvel_max              =   0.0000000000000E+00
(PID.TID 0000.0001) %MON advcfl_wvel_max              =   0.0000000000000E+00
(PID.TID 0000.0001) %MON advcfl_W_hf_max              =   0.0000000000000E+00
(PID.TID 0000.0001) %MON pe_b_mean                    =   0.0000000000000E+00
(PID.TID 0000.0001) %MON ke_max                       =   0.0000000000000E+00
(PID.TID 0000.0001) %MON ke_mean                      =   0.0000000000000E+00
(PID.TID 0000.0001) %MON ke_vol                       =   7.6260000000000E+12
(PID.TID 0000.0001) // =======================================================
(PID.TID 0000.0001) // End MONITOR dynamic field statistics
(PID.TID 0000.0001) // =======================================================
(PID.TID 0000.0001) SOLVE_FOR_PRESSURE: putPmEinXvector =    F
 cg2d: Sum(rhs),rhsMax =  -1.77635683940025E-15  6.65977494668786E-03
(PID.TID 0000.0001)      cg2d_init_res =   3.66988281473994E+00
(PID.TID 0000.0001)      cg2d_iters(min,last) =      -1      15
(PID.TID 0000.0001)      cg2d_last_res =   6.43382092860838E-15
(PID.TID 0000.0001) // =======================================================
(PID.TID 0000.0001) // Begin MONITOR dynamic field statistics
(PID.TID 0000.0001) // =======================================================
(PID.TID 0000.0001) %MON time_tsnumber                =                     1
(PID.TID 0000.0001) %MON time_secondsf                =   1.8000000000000E+03
(PID.TID 0000.0001) %MON dynstat_eta_max              =   6.5257455328829E-02
(PID.TID 0000.0001) %MON dynstat_eta_min              =  -6.5257455328847E-02
(PID.TID 0000.0001) %MON dynstat_eta_mean             =   3.0763687626008E-18
(PID.TID 0000.0001) %MON dynstat_eta_sd               =   4.6224766883884E-02
(PID.TID 0000.0001) %MON dynstat_eta_del2             =   8.1250954268540E-05
(PID.TID 0000.0001) %MON dynstat_uvel_max             =   0.0000000000000E+00
(PID.TID 0000.0001) %MON dynstat_uvel_min             =   0.0000000000000E+00
(PID.TID 0000.0001) %MON dynstat_uvel_mean            =   0.0000000000000E+00
(PID.TID 0000.0001) %MON dynstat_uvel_sd              =   0.0000000000000E+00
(PID.TID 0000.0001) %MON dynstat_uvel_del2            =   0.0000000000000E+00
(PID.TID 0000.0001) %MON dynstat_vvel_max             =   1.1346894761037E-02
(PID.TID 0000.0001) %MON dynstat_vvel_min             =  -4.6423415038448E-03
(PID.TID 0000.0001) %MON dynstat_vvel_mean            =  -9.6182603720200E-04
(PID.TID 0000.0001) %MON dynstat_vvel_sd              =   3.2945242692179E-03
(PID.TID 0000.0001) %MON dynstat_vvel_del2            =   2.2784282426937E-06
(PID.TID 0000.0001) %MON dynstat_wvel_max             =   7.1082402750201E-05
(PID.TID 0000.0001) %MON dynstat_wvel_min             =  -7.1082402750210E-05
(PID.TID 0000.0001) %MON dynstat_wvel_mean            =   2.1652370232269E-21
(PID.TID 0000.0001) %MON dynstat_wvel_sd              =   3.7607976514653E-05
(PID.TID 0000.0001) %MON dynstat_wvel_del2            =   1.8118114065502E-08
(PID.TID 0000.0001) %MON dynstat_theta_max            =   2.0568230850958E+01
(PID.TID 0000.0001) %MON dynstat_theta_min            =   1.5559631313708E+01
(PID.TID 0000.0001) %MON dynstat_theta_mean           =   1.7563152337818E+01
(PID.TID 0000.0001) %MON dynstat_theta_sd             =   1.4157716355007E+00
(PID.TID 0000.0001) %MON dynstat_theta_del2           =   1.3824423477823E-04
(PID.TID 0000.0001) %MON dynstat_salt_max             =   9.9984957722591E-01
(PID.TID 0000.0001) %MON dynstat_salt_min             =   3.9575020950256E-01
(PID.TID 0000.0001) %MON dynstat_salt_mean            =   7.4692405417468E-01
(PID.TID 0000.0001) %MON dynstat_salt_sd              =   2.0049835515058E-01
(PID.TID 0000.0001) %MON dynstat_salt_del2            =   2.2965659026076E-04
(PID.TID 0000.0001) %MON advcfl_uvel_max              =   0.0000000000000E+00
(PID.TID 0000.0001) %MON advcfl_vvel_max              =   2.5843018939326E-03
(PID.TID 0000.0001) %MON advcfl_wvel_max              =   2.6102982131539E-03
(PID.TID 0000.0001) %MON advcfl_W_hf_max              =   1.7125365543236E-03
(PID.TID 0000.0001) %MON pe_b_mean                    =   4.3429452712792E-06
(PID.TID 0000.0001) %MON ke_max                       =   6.4708720982946E-05
(PID.TID 0000.0001) %MON ke_mean                      =   5.6763672035853E-06
(PID.TID 0000.0001) %MON ke_vol                       =   7.6260000000000E+12
(PID.TID 0000.0001) // =======================================================
(PID.TID 0000.0001) // End MONITOR dynamic field statistics
(PID.TID 0000.0001) // =======================================================
 cg2d: Sum(rhs),rhsMax =   0.00000000000000E+00  8.10830948832215E-03
(PID.TID 0000.0001)      cg2d_init_res =   6.54517138724091E-01
(PID.TID 0000.0001)      cg2d_iters(min,last) =      -1      29
(PID.TID 0000.0001)      cg2d_last_res =   2.32158517256593E-14
(PID.TID 0000.0001) // =======================================================
(PID.TID 0000.0001) // Begin MONITOR dynamic field statistics
(PID.TID 0000.0001) // =======================================================
(PID.TID 0000.0001) %MON time_tsnumber                =                     2
(PID.TID 0000.0001) %MON time_secondsf                =   3.6000000000000E+03
(PID.TID 0000.0001) %MON dynstat_eta_max              =   7.9421438112375E-02
(PID.TID 0000.0001) %MON dynstat_eta_min              =  -7.9433484341841E-02
(PID.TID 0000.0001) %MON dynstat_eta_mean             =  -3.0763687626008E-18
(PID.TID 0000.0001) %MON dynstat_eta_sd               =   5.6261462095595E-02
(PID.TID 0000.0001) %MON dynstat_eta_del2             =   9.8901499471686E-05
(PID.TID 0000.0001) %MON dynstat_uvel_max             =   3.2679056911786E-03
(PID.TID 0000.0001) %MON dynstat_uvel_min             =  -1.3369943531073E-03
(PID.TID 0000.0001) %MON dynstat_uvel_mean            =  -2.6870458838315E-04
(PID.TID 0000.0001) %MON dynstat_uvel_sd              =   9.3160136820866E-04
(PID.TID 0000.0001) %MON dynstat_uvel_del2            =   1.2800426272560E-06
(PID.TID 0000.0001) %MON dynstat_vvel_max             =   2.5278213955269E-02
(PID.TID 0000.0001) %MON dynstat_vvel_min             =  -6.6824551599590E-03
(PID.TID 0000.0001) %MON dynstat_vvel_mean            =  -2.0884121029480E-04
(PID.TID 0000.0001) %MON dynstat_vvel_sd              =   6.5317958496698E-03
(PID.TID 0000.0001) %MON dynstat_vvel_del2            =   5.0234792649920E-06
(PID.TID 0000.0001) %MON dynstat_wvel_max             =   9.5533320995542E-05
(PID.TID 0000.0001) %MON dynstat_wvel_min             =  -9.5595769245431E-05
(PID.TID 0000.0001) %MON dynstat_wvel_mean            =   8.6609480929077E-21
(PID.TID 0000.0001) %MON dynstat_wvel_sd              =   4.9123377780891E-05
(PID.TID 0000.0001) %MON dynstat_wvel_del2            =   2.1525560995975E-08
(PID.TID 0000.0001) %MON dynstat_theta_max            =   2.0568079800058E+01
(PID.TID 0000.0001) %MON dynstat_theta_min            =   1.5559684862015E+01
(PID.TID 0000.0001) %MON dynstat_theta_mean           =   1.7563150551145E+01
(PID.TID 0000.0001) %MON dynstat_theta_sd             =   1.4157681699039E+00
(PID.TID 0000.0001) %MON dynstat_theta_del2           =   1.3816356802768E-04
(PID.TID 0000.0001) %MON dynstat_salt_max             =   9.9970115667981E-01
(PID.TID 0000.0001) %MON dynstat_salt_min             =   3.9650539763075E-01
(PID.TID 0000.0001) %MON dynstat_salt_mean            =   7.4692405582139E-01
(PID.TID 0000.0001) %MON dynstat_salt_sd              =   2.0033381195973E-01
(PID.TID 0000.0001) %MON dynstat_salt_del2            =   2.3124195089102E-04
(PID.TID 0000.0001) %MON advcfl_uvel_max              =   5.8822302441215E-04
(PID.TID 0000.0001) %MON advcfl_vvel_max              =   5.7572170691275E-03
(PID.TID 0000.0001) %MON advcfl_wvel_max              =   1.7920051387817E-03
(PID.TID 0000.0001) %MON advcfl_W_hf_max              =   1.8863211987176E-03
(PID.TID 0000.0001) %MON pe_b_mean                    =   6.4336425145001E-06
(PID.TID 0000.0001) %MON ke_max                       =   3.2647647568460E-04
(PID.TID 0000.0001) %MON ke_mean                      =   2.1051257381583E-05
(PID.TID 0000.0001) %MON ke_vol                       =   7.6260000000000E+12
(PID.TID 0000.0001) // =======================================================
(PID.TID 0000.0001) // End MONITOR dynamic field statistics
(PID.TID 0000.0001) // =======================================================
 cg2d: Sum(rhs),rhsMax =   0.00000000000000E+00  7.62023364678066E-03
(PID.TID 0000.0001)      cg2d_init_res =   2.29933012732978E-01
(PID.TID 0000.0001)      cg2d_iters(min,last) =      -1      29
(PID.TID 0000.0001)      cg2d_last_res =   3.17970891416126E-14
(PID.TID 0000.0001) // =======================================================
(PID.TID 0000.0001) // Begin MONITOR dynamic field statistics
(PID.TID 0000.0001) // =======================================================
(PID.TID 0000.0001) %MON time_tsnumber                =                     3
(PID.TID 0000.0001) %MON time_secondsf                =   5.4000000000000E+03
(PID.TID 0000.0001) %MON dynstat_eta_max              =   7.4731097836989E-02
(PID.TID 0000.0001) %MON dynstat_eta_min              =  -7.4765478305346E-02
(PID.TID 0000.0001) %MON dynstat_eta_mean             =   6.1527375252016E-18
(PID.TID 0000.0001) %MON dynstat_eta_sd               =   5.2948287221830E-02
(PID.TID 0000.0001) %MON dynstat_eta_del2             =   9.3122266313925E-05
(PID.TID 0000.0001) %MON dynstat_uvel_max             =   9.3222393945794E-03
(PID.TID 0000.0001) %MON dynstat_uvel_min             =  -2.7600654952169E-03
(PID.TID 0000.0001) %MON dynstat_uvel_mean            =  -2.2628419355717E-04
(PID.TID 0000.0001) %MON dynstat_uvel_sd              =   2.4242944646511E-03
(PID.TID 0000.0001) %MON dynstat_uvel_del2            =   3.6073815113118E-06
(PID.TID 0000.0001) %MON dynstat_vvel_max             =   3.7416372246883E-02
(PID.TID 0000.0001) %MON dynstat_vvel_min             =  -9.1700654228640E-03
(PID.TID 0000.0001) %MON dynstat_vvel_mean            =   6.8940159517366E-05
(PID.TID 0000.0001) %MON dynstat_vvel_sd              =   9.5195381446497E-03
(PID.TID 0000.0001) %MON dynstat_vvel_del2            =   7.4656917827462E-06
(PID.TID 0000.0001) %MON dynstat_wvel_max             =   1.2900699726455E-04
(PID.TID 0000.0001) %MON dynstat_wvel_min             =  -1.2923003647055E-04
(PID.TID 0000.0001) %MON dynstat_wvel_mean            =   1.2991422139362E-20
(PID.TID 0000.0001) %MON dynstat_wvel_sd              =   6.6171286962633E-05
(PID.TID 0000.0001) %MON dynstat_wvel_del2            =   4.2549984833655E-08
(PID.TID 0000.0001) %MON dynstat_theta_max            =   2.0567938399561E+01
(PID.TID 0000.0001) %MON dynstat_theta_min            =   1.5559757748217E+01
(PID.TID 0000.0001) %MON dynstat_theta_mean           =   1.7563151140782E+01
(PID.TID 0000.0001) %MON dynstat_theta_sd             =   1.4157687118828E+00
(PID.TID 0000.0001) %MON dynstat_theta_del2           =   1.3805100695621E-04
(PID.TID 0000.0001) %MON dynstat_salt_max             =   9.9955447438205E-01
(PID.TID 0000.0001) %MON dynstat_salt_min             =   3.9724211932210E-01
(PID.TID 0000.0001) %MON dynstat_salt_mean            =   7.4692405380319E-01
(PID.TID 0000.0001) %MON dynstat_salt_sd              =   2.0016970792570E-01
(PID.TID 0000.0001) %MON dynstat_salt_del2            =   2.3304986786575E-04
(PID.TID 0000.0001) %MON advcfl_uvel_max              =   1.6780030910243E-03
(PID.TID 0000.0001) %MON advcfl_vvel_max              =   8.5217324825942E-03
(PID.TID 0000.0001) %MON advcfl_wvel_max              =   2.3111723908275E-03
(PID.TID 0000.0001) %MON advcfl_W_hf_max              =   2.4328130429763E-03
(PID.TID 0000.0001) %MON pe_b_mean                    =   5.6982136579784E-06
(PID.TID 0000.0001) %MON ke_max                       =   7.4700727572416E-04
(PID.TID 0000.0001) %MON ke_mean                      =   4.6637564800605E-05
(PID.TID 0000.0001) %MON ke_vol                       =   7.6260000000000E+12
(PID.TID 0000.0001) // =======================================================
(PID.TID 0000.0001) // End MONITOR dynamic field statistics
(PID.TID 0000.0001) // =======================================================
 cg2d: Sum(rhs),rhsMax =  -1.77635683940025E-15  7.40229921153254E-03
(PID.TID 0000.0001)      cg2d_init_res =   1.18159955509569E-01
(PID.TID 0000.0001)      cg2d_iters(min,last) =      -1      29
(PID.TID 0000.0001)      cg2d_last_res =   1.14752819865840E-14
(PID.TID 0000.0001) // =======================================================
(PID.TID 0000.0001) // Begin MONITOR dynamic field statistics
(PID.TID 0000.0001) // =======================================================
(PID.TID 0000.0001) %MON time_tsnumber                =                     4
(PID.TID 0000.0001) %MON time_secondsf                =   7.2000000000000E+03
(PID.TID 0000.0001) %MON dynstat_eta_max              =   7.2384506950253E-02
(PID.TID 0000.0001) %MON dynstat_eta_min              =  -7.2449762420254E-02
(PID.TID 0000.0001) %MON dynstat_eta_mean             =   3.0763687626008E-18
(PID.TID 0000.0001) %MON dynstat_eta_sd               =   5.1296016524329E-02
(PID.TID 0000.0001) %MON dynstat_eta_del2             =   9.0168705099900E-05
(PID.TID 0000.0001) %MON dynstat_uvel_max             =   1.7367065529287E-02
(PID.TID 0000.0001) %MON dynstat_uvel_min             =  -4.6790912297334E-03
(PID.TID 0000.0001) %MON dynstat_uvel_mean            =  -1.8514547128085E-04
(PID.TID 0000.0001) %MON dynstat_uvel_sd              =   4.4201024611144E-03
(PID.TID 0000.0001) %MON dynstat_uvel_del2            =   6.7152156666506E-06
(PID.TID 0000.0001) %MON dynstat_vvel_max             =   4.7740704002774E-02
(PID.TID 0000.0001) %MON dynstat_vvel_min             =  -1.1790448069319E-02
(PID.TID 0000.0001) %MON dynstat_vvel_mean            =   3.4379504008492E-05
(PID.TID 0000.0001) %MON dynstat_vvel_sd              =   1.2163849289279E-02
(PID.TID 0000.0001) %MON dynstat_vvel_del2            =   9.5759483779594E-06
(PID.TID 0000.0001) %MON dynstat_wvel_max             =   1.6770574862449E-04
(PID.TID 0000.0001) %MON dynstat_wvel_min             =  -1.6829657553459E-04
(PID.TID 0000.0001) %MON dynstat_wvel_mean            =   4.3304740464538E-21
(PID.TID 0000.0001) %MON dynstat_wvel_sd              =   8.5311443321014E-05
(PID.TID 0000.0001) %MON dynstat_wvel_del2            =   9.2333060539675E-08
(PID.TID 0000.0001) %MON dynstat_theta_max            =   2.0567786341048E+01
(PID.TID 0000.0001) %MON dynstat_theta_min            =   1.5559850521782E+01
(PID.TID 0000.0001) %MON dynstat_theta_mean           =   1.7563151434756E+01
(PID.TID 0000.0001) %MON dynstat_theta_sd             =   1.4157687564329E+00
(PID.TID 0000.0001) %MON dynstat_theta_del2           =   1.3788080738638E-04
(PID.TID 0000.0001) %MON dynstat_salt_max             =   9.9940913964016E-01
(PID.TID 0000.0001) %MON dynstat_salt_min             =   3.9796181652748E-01
(PID.TID 0000.0001) %MON dynstat_salt_mean            =   7.4692405183815E-01
(PID.TID 0000.0001) %MON dynstat_salt_sd              =   2.0000603390518E-01
(PID.TID 0000.0001) %MON dynstat_salt_del2            =   2.3504077789152E-04
(PID.TID 0000.0001) %MON advcfl_uvel_max              =   3.1260717952717E-03
(PID.TID 0000.0001) %MON advcfl_vvel_max              =   1.0873141451500E-02
(PID.TID 0000.0001) %MON advcfl_wvel_max              =   3.0286616777743E-03
(PID.TID 0000.0001) %MON advcfl_W_hf_max              =   3.1880649239729E-03
(PID.TID 0000.0001) %MON pe_b_mean                    =   5.3481327464721E-06
(PID.TID 0000.0001) %MON ke_max                       =   1.2961107754921E-03
(PID.TID 0000.0001) %MON ke_mean                      =   8.1088760622356E-05
(PID.TID 0000.0001) %MON ke_vol                       =   7.6260000000000E+12
(PID.TID 0000.0001) // =======================================================
(PID.TID 0000.0001) // End MONITOR dynamic field statistics
(PID.TID 0000.0001) // =======================================================
 cg2d: Sum(rhs),rhsMax =  -3.55271367880050E-15  7.42656309009548E-03
(PID.TID 0000.0001)      cg2d_init_res =   1.02268390283310E-02
(PID.TID 0000.0001)      cg2d_iters(min,last) =      -1      29
(PID.TID 0000.0001)      cg2d_last_res =   5.30166505671138E-14
(PID.TID 0000.0001) // =======================================================
(PID.TID 0000.0001) // Begin MONITOR dynamic field statistics
(PID.TID 0000.0001) // =======================================================
(PID.TID 0000.0001) %MON time_tsnumber                =                     5
(PID.TID 0000.0001) %MON time_secondsf                =   9.0000000000000E+03
(PID.TID 0000.0001) %MON dynstat_eta_max              =   7.2319981611056E-02
(PID.TID 0000.0001) %MON dynstat_eta_min              =  -7.2425391616343E-02
(PID.TID 0000.0001) %MON dynstat_eta_mean             =   3.0763687626008E-18
(PID.TID 0000.0001) %MON dynstat_eta_sd               =   5.1263066677397E-02
(PID.TID 0000.0001) %MON dynstat_eta_del2             =   9.0032455854021E-05
(PID.TID 0000.0001) %MON dynstat_uvel_max             =   2.7073294135658E-02
(PID.TID 0000.0001) %MON dynstat_uvel_min             =  -7.0839067405357E-03
(PID.TID 0000.0001) %MON dynstat_uvel_mean            =  -1.8276339807599E-04
(PID.TID 0000.0001) %MON dynstat_uvel_sd              =   6.8473774470913E-03
(PID.TID 0000.0001) %MON dynstat_uvel_del2            =   1.0462030888732E-05
(PID.TID 0000.0001) %MON dynstat_vvel_max             =   5.6396423002034E-02
(PID.TID 0000.0001) %MON dynstat_vvel_min             =  -1.3986159031415E-02
(PID.TID 0000.0001) %MON dynstat_vvel_mean            =   6.8514365101054E-07
(PID.TID 0000.0001) %MON dynstat_vvel_sd              =   1.4379883336628E-02
(PID.TID 0000.0001) %MON dynstat_vvel_del2            =   1.1405868292992E-05
(PID.TID 0000.0001) %MON dynstat_wvel_max             =   2.0131510666155E-04
(PID.TID 0000.0001) %MON dynstat_wvel_min             =  -2.0261319621383E-04
(PID.TID 0000.0001) %MON dynstat_wvel_mean            =  -5.1965688557446E-20
(PID.TID 0000.0001) %MON dynstat_wvel_sd              =   1.0141191060625E-04
(PID.TID 0000.0001) %MON dynstat_wvel_del2            =   1.6757054991214E-07
(PID.TID 0000.0001) %MON dynstat_theta_max            =   2.0567625472935E+01
(PID.TID 0000.0001) %MON dynstat_theta_min            =   1.5559959341670E+01
(PID.TID 0000.0001) %MON dynstat_theta_mean           =   1.7563151440609E+01
(PID.TID 0000.0001) %MON dynstat_theta_sd             =   1.4157683159964E+00
(PID.TID 0000.0001) %MON dynstat_theta_del2           =   1.3763849949447E-04
(PID.TID 0000.0001) %MON dynstat_salt_max             =   9.9926475330766E-01
(PID.TID 0000.0001) %MON dynstat_salt_min             =   3.9866583304813E-01
(PID.TID 0000.0001) %MON dynstat_salt_mean            =   7.4692405063875E-01
(PID.TID 0000.0001) %MON dynstat_salt_sd              =   1.9984278124017E-01
(PID.TID 0000.0001) %MON dynstat_salt_del2            =   2.3717960977434E-04
(PID.TID 0000.0001) %MON advcfl_uvel_max              =   4.8731929444185E-03
(PID.TID 0000.0001) %MON advcfl_vvel_max              =   1.2844517010560E-02
(PID.TID 0000.0001) %MON advcfl_wvel_max              =   3.6625048418828E-03
(PID.TID 0000.0001) %MON advcfl_W_hf_max              =   3.8552682546134E-03
(PID.TID 0000.0001) %MON pe_b_mean                    =   5.3412642381530E-06
(PID.TID 0000.0001) %MON ke_max                       =   1.9645893272908E-03
(PID.TID 0000.0001) %MON ke_mean                      =   1.2310895823783E-04
(PID.TID 0000.0001) %MON ke_vol                       =   7.6260000000000E+12
(PID.TID 0000.0001) // =======================================================
(PID.TID 0000.0001) // End MONITOR dynamic field statistics
(PID.TID 0000.0001) // =======================================================
 cg2d: Sum(rhs),rhsMax =  -1.77635683940025E-15  7.48568051283318E-03
(PID.TID 0000.0001)      cg2d_init_res =   1.84360414543237E-02
(PID.TID 0000.0001)      cg2d_iters(min,last) =      -1      29
(PID.TID 0000.0001)      cg2d_last_res =   9.60376040318394E-14
(PID.TID 0000.0001) // =======================================================
(PID.TID 0000.0001) // Begin MONITOR dynamic field statistics
(PID.TID 0000.0001) // =======================================================
(PID.TID 0000.0001) %MON time_tsnumber                =                     6
(PID.TID 0000.0001) %MON time_secondsf                =   1.0800000000000E+04
(PID.TID 0000.0001) %MON dynstat_eta_max              =   7.2393214855202E-02
(PID.TID 0000.0001) %MON dynstat_eta_min              =  -7.2549702741185E-02
(PID.TID 0000.0001) %MON dynstat_eta_mean             =   1.2305475050403E-17
(PID.TID 0000.0001) %MON dynstat_eta_sd               =   5.1330421752313E-02
(PID.TID 0000.0001) %MON dynstat_eta_del2             =   9.0006081312360E-05
(PID.TID 0000.0001) %MON dynstat_uvel_max             =   3.8155896732428E-02
(PID.TID 0000.0001) %MON dynstat_uvel_min             =  -9.8377926032787E-03
(PID.TID 0000.0001) %MON dynstat_uvel_mean            =  -1.8617380465948E-04
(PID.TID 0000.0001) %MON dynstat_uvel_sd              =   9.6205477544839E-03
(PID.TID 0000.0001) %MON dynstat_uvel_del2            =   1.4737900618929E-05
(PID.TID 0000.0001) %MON dynstat_vvel_max             =   6.3146231253843E-02
(PID.TID 0000.0001) %MON dynstat_vvel_min             =  -1.5639163761303E-02
(PID.TID 0000.0001) %MON dynstat_vvel_mean            =  -1.4020893268758E-06
(PID.TID 0000.0001) %MON dynstat_vvel_sd              =   1.6094992435157E-02
(PID.TID 0000.0001) %MON dynstat_vvel_del2            =   1.2920618983964E-05
(PID.TID 0000.0001) %MON dynstat_wvel_max             =   2.2777374963372E-04
(PID.TID 0000.0001) %MON dynstat_wvel_min             =  -2.3024643711585E-04
(PID.TID 0000.0001) %MON dynstat_wvel_mean            =  -8.6609480929077E-21
(PID.TID 0000.0001) %MON dynstat_wvel_sd              =   1.1351753850024E-04
(PID.TID 0000.0001) %MON dynstat_wvel_del2            =   2.6183804651635E-07
(PID.TID 0000.0001) %MON dynstat_theta_max            =   2.0567460023364E+01
(PID.TID 0000.0001) %MON dynstat_theta_min            =   1.5559901752067E+01
(PID.TID 0000.0001) %MON dynstat_theta_mean           =   1.7563151428621E+01
(PID.TID 0000.0001) %MON dynstat_theta_sd             =   1.4157678461819E+00
(PID.TID 0000.0001) %MON dynstat_theta_del2           =   1.3731616342434E-04
(PID.TID 0000.0001) %MON dynstat_salt_max             =   9.9912095015177E-01
(PID.TID 0000.0001) %MON dynstat_salt_min             =   3.9935557062441E-01
(PID.TID 0000.0001) %MON dynstat_salt_mean            =   7.4692404921602E-01
(PID.TID 0000.0001) %MON dynstat_salt_sd              =   1.9967994154915E-01
(PID.TID 0000.0001) %MON dynstat_salt_del2            =   2.3943546896858E-04
(PID.TID 0000.0001) %MON advcfl_uvel_max              =   6.8680614118370E-03
(PID.TID 0000.0001) %MON advcfl_vvel_max              =   1.4381813567565E-02
(PID.TID 0000.0001) %MON advcfl_wvel_max              =   4.1698981984523E-03
(PID.TID 0000.0001) %MON advcfl_W_hf_max              =   4.3893665246866E-03
(PID.TID 0000.0001) %MON pe_b_mean                    =   5.3553093440453E-06
(PID.TID 0000.0001) %MON ke_max                       =   2.7312576478155E-03
(PID.TID 0000.0001) %MON ke_mean                      =   1.7113188985211E-04
(PID.TID 0000.0001) %MON ke_vol                       =   7.6260000000000E+12
(PID.TID 0000.0001) // =======================================================
(PID.TID 0000.0001) // End MONITOR dynamic field statistics
(PID.TID 0000.0001) // =======================================================
 cg2d: Sum(rhs),rhsMax =   1.77635683940025E-15  7.55187991157471E-03
(PID.TID 0000.0001)      cg2d_init_res =   2.85072518390509E-02
(PID.TID 0000.0001)      cg2d_iters(min,last) =      -1      30
(PID.TID 0000.0001)      cg2d_last_res =   8.07928916033911E-17
(PID.TID 0000.0001) // =======================================================
(PID.TID 0000.0001) // Begin MONITOR dynamic field statistics
(PID.TID 0000.0001) // =======================================================
(PID.TID 0000.0001) %MON time_tsnumber                =                     7
(PID.TID 0000.0001) %MON time_secondsf                =   1.2600000000000E+04
(PID.TID 0000.0001) %MON dynstat_eta_max              =   7.2251591714795E-02
(PID.TID 0000.0001) %MON dynstat_eta_min              =  -7.2469654305165E-02
(PID.TID 0000.0001) %MON dynstat_eta_mean             =   1.8458212575605E-17
(PID.TID 0000.0001) %MON dynstat_eta_sd               =   5.1247575874281E-02
(PID.TID 0000.0001) %MON dynstat_eta_del2             =   8.9626721964234E-05
(PID.TID 0000.0001) %MON dynstat_uvel_max             =   5.0245854133604E-02
(PID.TID 0000.0001) %MON dynstat_uvel_min             =  -1.2830258023214E-02
(PID.TID 0000.0001) %MON dynstat_uvel_mean            =  -1.8663746541669E-04
(PID.TID 0000.0001) %MON dynstat_uvel_sd              =   1.2643306688537E-02
(PID.TID 0000.0001) %MON dynstat_uvel_del2            =   1.9403172950859E-05
(PID.TID 0000.0001) %MON dynstat_vvel_max             =   6.7734667290463E-02
(PID.TID 0000.0001) %MON dynstat_vvel_min             =  -1.6735634187196E-02
(PID.TID 0000.0001) %MON dynstat_vvel_mean            =   1.7229860813266E-06
(PID.TID 0000.0001) %MON dynstat_vvel_sd              =   1.7254187316758E-02
(PID.TID 0000.0001) %MON dynstat_vvel_del2            =   1.4072407003804E-05
(PID.TID 0000.0001) %MON dynstat_wvel_max             =   2.4655917432773E-04
(PID.TID 0000.0001) %MON dynstat_wvel_min             =  -2.5076093880981E-04
(PID.TID 0000.0001) %MON dynstat_wvel_mean            =   0.0000000000000E+00
(PID.TID 0000.0001) %MON dynstat_wvel_sd              =   1.2162237202498E-04
(PID.TID 0000.0001) %MON dynstat_wvel_del2            =   3.6615043328144E-07
(PID.TID 0000.0001) %MON dynstat_theta_max            =   2.0567292513962E+01
(PID.TID 0000.0001) %MON dynstat_theta_min            =   1.5559764813560E+01
(PID.TID 0000.0001) %MON dynstat_theta_mean           =   1.7563151443331E+01
(PID.TID 0000.0001) %MON dynstat_theta_sd             =   1.4157674219661E+00
(PID.TID 0000.0001) %MON dynstat_theta_del2           =   1.3691332789136E-04
(PID.TID 0000.0001) %MON dynstat_salt_max             =   9.9897745619859E-01
(PID.TID 0000.0001) %MON dynstat_salt_min             =   4.0003247732393E-01
(PID.TID 0000.0001) %MON dynstat_salt_mean            =   7.4692404727624E-01
(PID.TID 0000.0001) %MON dynstat_salt_sd              =   1.9951750640814E-01
(PID.TID 0000.0001) %MON dynstat_salt_del2            =   2.4178128877234E-04
(PID.TID 0000.0001) %MON advcfl_uvel_max              =   9.0442537440488E-03
(PID.TID 0000.0001) %MON advcfl_vvel_max              =   1.5426848723821E-02
(PID.TID 0000.0001) %MON advcfl_wvel_max              =   4.5532937513339E-03
(PID.TID 0000.0001) %MON advcfl_W_hf_max              =   4.7929407908778E-03
(PID.TID 0000.0001) %MON pe_b_mean                    =   5.3380366524192E-06
(PID.TID 0000.0001) %MON ke_max                       =   3.5670741616164E-03
(PID.TID 0000.0001) %MON ke_mean                      =   2.2341071611472E-04
(PID.TID 0000.0001) %MON ke_vol                       =   7.6260000000000E+12
(PID.TID 0000.0001) // =======================================================
(PID.TID 0000.0001) // End MONITOR dynamic field statistics
(PID.TID 0000.0001) // =======================================================
 cg2d: Sum(rhs),rhsMax =   0.00000000000000E+00  7.64387873612832E-03
(PID.TID 0000.0001)      cg2d_init_res =   3.91056081200758E-02
(PID.TID 0000.0001)      cg2d_iters(min,last) =      -1      30
(PID.TID 0000.0001)      cg2d_last_res =   1.28847428435869E-16
(PID.TID 0000.0001) // =======================================================
(PID.TID 0000.0001) // Begin MONITOR dynamic field statistics
(PID.TID 0000.0001) // =======================================================
(PID.TID 0000.0001) %MON time_tsnumber                =                     8
(PID.TID 0000.0001) %MON time_secondsf                =   1.4400000000000E+04
(PID.TID 0000.0001) %MON dynstat_eta_max              =   7.2049015483537E-02
(PID.TID 0000.0001) %MON dynstat_eta_min              =  -7.2337959380827E-02
(PID.TID 0000.0001) %MON dynstat_eta_mean             =   1.5381843813004E-17
(PID.TID 0000.0001) %MON dynstat_eta_sd               =   5.1122894158735E-02
(PID.TID 0000.0001) %MON dynstat_eta_del2             =   8.9083921834260E-05
(PID.TID 0000.0001) %MON dynstat_uvel_max             =   6.2926282938904E-02
(PID.TID 0000.0001) %MON dynstat_uvel_min             =  -1.5959600307967E-02
(PID.TID 0000.0001) %MON dynstat_uvel_mean            =  -1.8600952442546E-04
(PID.TID 0000.0001) %MON dynstat_uvel_sd              =   1.5811631103136E-02
(PID.TID 0000.0001) %MON dynstat_uvel_del2            =   2.4300504054968E-05
(PID.TID 0000.0001) %MON dynstat_vvel_max             =   7.0009455175071E-02
(PID.TID 0000.0001) %MON dynstat_vvel_min             =  -1.7252356161470E-02
(PID.TID 0000.0001) %MON dynstat_vvel_mean            =   2.5932194125308E-06
(PID.TID 0000.0001) %MON dynstat_vvel_sd              =   1.7821710957031E-02
(PID.TID 0000.0001) %MON dynstat_vvel_del2            =   1.4826695966482E-05
(PID.TID 0000.0001) %MON dynstat_wvel_max             =   2.5690475329828E-04
(PID.TID 0000.0001) %MON dynstat_wvel_min             =  -2.6339930105246E-04
(PID.TID 0000.0001) %MON dynstat_wvel_mean            =  -8.6609480929077E-21
(PID.TID 0000.0001) %MON dynstat_wvel_sd              =   1.2558263854910E-04
(PID.TID 0000.0001) %MON dynstat_wvel_del2            =   4.7044615025349E-07
(PID.TID 0000.0001) %MON dynstat_theta_max            =   2.0567124988545E+01
(PID.TID 0000.0001) %MON dynstat_theta_min            =   1.5559623999076E+01
(PID.TID 0000.0001) %MON dynstat_theta_mean           =   1.7563151465466E+01
(PID.TID 0000.0001) %MON dynstat_theta_sd             =   1.4157670106828E+00
(PID.TID 0000.0001) %MON dynstat_theta_del2           =   1.3643804967340E-04
(PID.TID 0000.0001) %MON dynstat_salt_max             =   9.9883413276481E-01
(PID.TID 0000.0001) %MON dynstat_salt_min             =   4.0069798497192E-01
(PID.TID 0000.0001) %MON dynstat_salt_mean            =   7.4692404495668E-01
(PID.TID 0000.0001) %MON dynstat_salt_sd              =   1.9935546732164E-01
(PID.TID 0000.0001) %MON dynstat_salt_del2            =   2.4419347447545E-04
(PID.TID 0000.0001) %MON advcfl_uvel_max              =   1.1326730929003E-02
(PID.TID 0000.0001) %MON advcfl_vvel_max              =   1.5944941009181E-02
(PID.TID 0000.0001) %MON advcfl_wvel_max              =   4.8032571379953E-03
(PID.TID 0000.0001) %MON advcfl_W_hf_max              =   5.0560601452582E-03
(PID.TID 0000.0001) %MON pe_b_mean                    =   5.3120941202546E-06
(PID.TID 0000.0001) %MON ke_max                       =   4.4416757645327E-03
(PID.TID 0000.0001) %MON ke_mean                      =   2.7808084667849E-04
(PID.TID 0000.0001) %MON ke_vol                       =   7.6260000000000E+12
(PID.TID 0000.0001) // =======================================================
(PID.TID 0000.0001) // End MONITOR dynamic field statistics
(PID.TID 0000.0001) // =======================================================
 cg2d: Sum(rhs),rhsMax =   0.00000000000000E+00  7.76836279870542E-03
(PID.TID 0000.0001)      cg2d_init_res =   4.77189337542650E-02
(PID.TID 0000.0001)      cg2d_iters(min,last) =      -1      30
(PID.TID 0000.0001)      cg2d_last_res =   1.39670129518245E-16
(PID.TID 0000.0001) // =======================================================
(PID.TID 0000.0001) // Begin MONITOR dynamic field statistics
(PID.TID 0000.0001) // =======================================================
(PID.TID 0000.0001) %MON time_tsnumber                =                     9
(PID.TID 0000.0001) %MON time_secondsf                =   1.6200000000000E+04
(PID.TID 0000.0001) %MON dynstat_eta_max              =   7.1851403442722E-02
(PID.TID 0000.0001) %MON dynstat_eta_min              =  -7.2218946650956E-02
(PID.TID 0000.0001) %MON dynstat_eta_mean             =   1.5381843813004E-17
(PID.TID 0000.0001) %MON dynstat_eta_sd               =   5.1002465970447E-02
(PID.TID 0000.0001) %MON dynstat_eta_del2             =   8.8470807184560E-05
(PID.TID 0000.0001) %MON dynstat_uvel_max             =   7.5764156548430E-02
(PID.TID 0000.0001) %MON dynstat_uvel_min             =  -1.9118950485913E-02
(PID.TID 0000.0001) %MON dynstat_uvel_mean            =  -1.8546598060266E-04
(PID.TID 0000.0001) %MON dynstat_uvel_sd              =   1.9017237548608E-02
(PID.TID 0000.0001) %MON dynstat_uvel_del2            =   2.9266486736055E-05
(PID.TID 0000.0001) %MON dynstat_vvel_max             =   6.9910230889331E-02
(PID.TID 0000.0001) %MON dynstat_vvel_min             =  -1.7173129051235E-02
(PID.TID 0000.0001) %MON dynstat_vvel_mean            =   2.5044623156997E-06
(PID.TID 0000.0001) %MON dynstat_vvel_sd              =   1.7782063005844E-02
(PID.TID 0000.0001) %MON dynstat_vvel_del2            =   1.5163560845248E-05
(PID.TID 0000.0001) %MON dynstat_wvel_max             =   2.5816404549830E-04
(PID.TID 0000.0001) %MON dynstat_wvel_min             =  -2.6741748849055E-04
(PID.TID 0000.0001) %MON dynstat_wvel_mean            =  -2.5982844278723E-20
(PID.TID 0000.0001) %MON dynstat_wvel_sd              =   1.2527046962832E-04
(PID.TID 0000.0001) %MON dynstat_wvel_del2            =   5.6551952443599E-07
(PID.TID 0000.0001) %MON dynstat_theta_max            =   2.0566959540269E+01
(PID.TID 0000.0001) %MON dynstat_theta_min            =   1.5559485041428E+01
(PID.TID 0000.0001) %MON dynstat_theta_mean           =   1.7563151486832E+01
(PID.TID 0000.0001) %MON dynstat_theta_sd             =   1.4157665983509E+00
(PID.TID 0000.0001) %MON dynstat_theta_del2           =   1.3590559287514E-04
(PID.TID 0000.0001) %MON dynstat_salt_max             =   9.9869100271671E-01
(PID.TID 0000.0001) %MON dynstat_salt_min             =   4.0135346085870E-01
(PID.TID 0000.0001) %MON dynstat_salt_mean            =   7.4692404237501E-01
(PID.TID 0000.0001) %MON dynstat_salt_sd              =   1.9919381573759E-01
(PID.TID 0000.0001) %MON dynstat_salt_del2            =   2.4665155362038E-04
(PID.TID 0000.0001) %MON advcfl_uvel_max              =   1.3637548178717E-02
(PID.TID 0000.0001) %MON advcfl_vvel_max              =   1.5922342270499E-02
(PID.TID 0000.0001) %MON advcfl_wvel_max              =   4.9073479066505E-03
(PID.TID 0000.0001) %MON advcfl_W_hf_max              =   5.1656293754216E-03
(PID.TID 0000.0001) %MON pe_b_mean                    =   5.2870966159891E-06
(PID.TID 0000.0001) %MON ke_max                       =   5.3245788366386E-03
(PID.TID 0000.0001) %MON ke_mean                      =   3.3322430226768E-04
(PID.TID 0000.0001) %MON ke_vol                       =   7.6260000000000E+12
(PID.TID 0000.0001) // =======================================================
(PID.TID 0000.0001) // End MONITOR dynamic field statistics
(PID.TID 0000.0001) // =======================================================
 cg2d: Sum(rhs),rhsMax =   0.00000000000000E+00  7.93174545265908E-03
(PID.TID 0000.0001)      cg2d_init_res =   5.38967715673117E-02
(PID.TID 0000.0001)      cg2d_iters(min,last) =      -1      30
(PID.TID 0000.0001)      cg2d_last_res =   8.54453726716432E-17
(PID.TID 0000.0001) // =======================================================
(PID.TID 0000.0001) // Begin MONITOR dynamic field statistics
(PID.TID 0000.0001) // =======================================================
(PID.TID 0000.0001) %MON time_tsnumber                =                    10
(PID.TID 0000.0001) %MON time_secondsf                =   1.8000000000000E+04
(PID.TID 0000.0001) %MON dynstat_eta_max              =   7.1660744259701E-02
(PID.TID 0000.0001) %MON dynstat_eta_min              =  -7.2112290027915E-02
(PID.TID 0000.0001) %MON dynstat_eta_mean             =   9.2291062878024E-18
(PID.TID 0000.0001) %MON dynstat_eta_sd               =   5.0887014144235E-02
(PID.TID 0000.0001) %MON dynstat_eta_del2             =   8.7809864514986E-05
(PID.TID 0000.0001) %MON dynstat_uvel_max             =   8.8325662669365E-02
(PID.TID 0000.0001) %MON dynstat_uvel_min             =  -2.2199309137773E-02
(PID.TID 0000.0001) %MON dynstat_uvel_mean            =  -1.8503852138020E-04
(PID.TID 0000.0001) %MON dynstat_uvel_sd              =   2.2151265180577E-02
(PID.TID 0000.0001) %MON dynstat_uvel_del2            =   3.4136495767263E-05
(PID.TID 0000.0001) %MON dynstat_vvel_max             =   6.7456400158224E-02
(PID.TID 0000.0001) %MON dynstat_vvel_min             =  -1.6502938903280E-02
(PID.TID 0000.0001) %MON dynstat_vvel_mean            =   2.4006950607165E-06
(PID.TID 0000.0001) %MON dynstat_vvel_sd              =   1.7140401808831E-02
(PID.TID 0000.0001) %MON dynstat_vvel_del2            =   1.5080893713765E-05
(PID.TID 0000.0001) %MON dynstat_wvel_max             =   2.5012023274601E-04
(PID.TID 0000.0001) %MON dynstat_wvel_min             =  -2.6238830753246E-04
(PID.TID 0000.0001) %MON dynstat_wvel_mean            =  -2.5982844278723E-20
(PID.TID 0000.0001) %MON dynstat_wvel_sd              =   1.2070906055815E-04
(PID.TID 0000.0001) %MON dynstat_wvel_del2            =   6.4447350737857E-07
(PID.TID 0000.0001) %MON dynstat_theta_max            =   2.0566798209430E+01
(PID.TID 0000.0001) %MON dynstat_theta_min            =   1.5559353647908E+01
(PID.TID 0000.0001) %MON dynstat_theta_mean           =   1.7563151507303E+01
(PID.TID 0000.0001) %MON dynstat_theta_sd             =   1.4157661845870E+00
(PID.TID 0000.0001) %MON dynstat_theta_del2           =   1.3533558437850E-04
(PID.TID 0000.0001) %MON dynstat_salt_max             =   9.9854825666225E-01
(PID.TID 0000.0001) %MON dynstat_salt_min             =   4.0200017434783E-01
(PID.TID 0000.0001) %MON dynstat_salt_mean            =   7.4692403960890E-01
(PID.TID 0000.0001) %MON dynstat_salt_sd              =   1.9903254303829E-01
(PID.TID 0000.0001) %MON dynstat_salt_del2            =   2.4913784142292E-04
(PID.TID 0000.0001) %MON advcfl_uvel_max              =   1.5898619280486E-02
(PID.TID 0000.0001) %MON advcfl_vvel_max              =   1.5363472241355E-02
(PID.TID 0000.0001) %MON advcfl_wvel_max              =   4.8581211215561E-03
(PID.TID 0000.0001) %MON advcfl_W_hf_max              =   5.1138117069012E-03
(PID.TID 0000.0001) %MON pe_b_mean                    =   5.2631874156821E-06
(PID.TID 0000.0001) %MON ke_max                       =   6.1855331484272E-03
(PID.TID 0000.0001) %MON ke_mean                      =   3.8693710384731E-04
(PID.TID 0000.0001) %MON ke_vol                       =   7.6260000000000E+12
(PID.TID 0000.0001) // =======================================================
(PID.TID 0000.0001) // End MONITOR dynamic field statistics
(PID.TID 0000.0001) // =======================================================
 cg2d: Sum(rhs),rhsMax =  -1.77635683940025E-15  8.11519121191479E-03
(PID.TID 0000.0001)      cg2d_init_res =   5.70334184389646E-02
(PID.TID 0000.0001)      cg2d_iters(min,last) =      -1      30
(PID.TID 0000.0001)      cg2d_last_res =   1.45999005048375E-16
(PID.TID 0000.0001) // =======================================================
(PID.TID 0000.0001) // Begin MONITOR dynamic field statistics
(PID.TID 0000.0001) // =======================================================
(PID.TID 0000.0001) %MON time_tsnumber                =                    11
(PID.TID 0000.0001) %MON time_secondsf                =   1.9800000000000E+04
(PID.TID 0000.0001) %MON dynstat_eta_max              =   7.1476717948643E-02
(PID.TID 0000.0001) %MON dynstat_eta_min              =  -7.2014569665159E-02
(PID.TID 0000.0001) %MON dynstat_eta_mean             =   1.2305475050403E-17
(PID.TID 0000.0001) %MON dynstat_eta_sd               =   5.0775525350831E-02
(PID.TID 0000.0001) %MON dynstat_eta_del2             =   8.7125398704795E-05
(PID.TID 0000.0001) %MON dynstat_uvel_max             =   1.0018926669807E-01
(PID.TID 0000.0001) %MON dynstat_uvel_min             =  -2.5094889826834E-02
(PID.TID 0000.0001) %MON dynstat_uvel_mean            =  -1.8463086246099E-04
(PID.TID 0000.0001) %MON dynstat_uvel_sd              =   2.5107965247098E-02
(PID.TID 0000.0001) %MON dynstat_uvel_del2            =   3.8748685538169E-05
(PID.TID 0000.0001) %MON dynstat_vvel_max             =   6.2745229663850E-02
(PID.TID 0000.0001) %MON dynstat_vvel_min             =  -1.5268459963103E-02
(PID.TID 0000.0001) %MON dynstat_vvel_mean            =   2.3180372931630E-06
(PID.TID 0000.0001) %MON dynstat_vvel_sd              =   1.5922247349596E-02
(PID.TID 0000.0001) %MON dynstat_vvel_del2            =   1.4599712658255E-05
(PID.TID 0000.0001) %MON dynstat_wvel_max             =   2.3305779420643E-04
(PID.TID 0000.0001) %MON dynstat_wvel_min             =  -2.4827368493582E-04
(PID.TID 0000.0001) %MON dynstat_wvel_mean            =  -3.4643792371631E-20
(PID.TID 0000.0001) %MON dynstat_wvel_sd              =   1.1207978129443E-04
(PID.TID 0000.0001) %MON dynstat_wvel_del2            =   7.0338849732988E-07
(PID.TID 0000.0001) %MON dynstat_theta_max            =   2.0566642851761E+01
(PID.TID 0000.0001) %MON dynstat_theta_min            =   1.5559235123103E+01
(PID.TID 0000.0001) %MON dynstat_theta_mean           =   1.7563151527060E+01
(PID.TID 0000.0001) %MON dynstat_theta_sd             =   1.4157657695164E+00
(PID.TID 0000.0001) %MON dynstat_theta_del2           =   1.3474906903613E-04
(PID.TID 0000.0001) %MON dynstat_salt_max             =   9.9840623798545E-01
(PID.TID 0000.0001) %MON dynstat_salt_min             =   4.0263927177156E-01
(PID.TID 0000.0001) %MON dynstat_salt_mean            =   7.4692403675656E-01
(PID.TID 0000.0001) %MON dynstat_salt_sd              =   1.9887164054053E-01
(PID.TID 0000.0001) %MON dynstat_salt_del2            =   2.5163712766524E-04
(PID.TID 0000.0001) %MON advcfl_uvel_max              =   1.8034068005652E-02
(PID.TID 0000.0001) %MON advcfl_vvel_max              =   1.4290483808162E-02
(PID.TID 0000.0001) %MON advcfl_wvel_max              =   4.6543530205760E-03
(PID.TID 0000.0001) %MON advcfl_W_hf_max              =   4.8993189690274E-03
(PID.TID 0000.0001) %MON pe_b_mean                    =   5.2401503549856E-06
(PID.TID 0000.0001) %MON ke_max                       =   6.9954086343999E-03
(PID.TID 0000.0001) %MON ke_mean                      =   4.3739376112493E-04
(PID.TID 0000.0001) %MON ke_vol                       =   7.6260000000000E+12
(PID.TID 0000.0001) // =======================================================
(PID.TID 0000.0001) // End MONITOR dynamic field statistics
(PID.TID 0000.0001) // =======================================================
 cg2d: Sum(rhs),rhsMax =  -1.77635683940025E-15  8.30663213396341E-03
(PID.TID 0000.0001)      cg2d_init_res =   5.69714074723462E-02
(PID.TID 0000.0001)      cg2d_iters(min,last) =      -1      30
(PID.TID 0000.0001)      cg2d_last_res =   1.64850727368600E-17
(PID.TID 0000.0001) // =======================================================
(PID.TID 0000.0001) // Begin MONITOR dynamic field statistics
(PID.TID 0000.0001) // =======================================================
(PID.TID 0000.0001) %MON time_tsnumber                =                    12
(PID.TID 0000.0001) %MON time_secondsf                =   2.1600000000000E+04
(PID.TID 0000.0001) %MON dynstat_eta_max              =   7.1304701092718E-02
(PID.TID 0000.0001) %MON dynstat_eta_min              =  -7.1927437549997E-02
(PID.TID 0000.0001) %MON dynstat_eta_mean             =   9.2291062878024E-18
(PID.TID 0000.0001) %MON dynstat_eta_sd               =   5.0670949274450E-02
(PID.TID 0000.0001) %MON dynstat_eta_del2             =   8.6448723189044E-05
(PID.TID 0000.0001) %MON dynstat_uvel_max             =   1.1095951730055E-01
(PID.TID 0000.0001) %MON dynstat_uvel_min             =  -2.7707073164959E-02
(PID.TID 0000.0001) %MON dynstat_uvel_mean            =  -1.8423550762133E-04
(PID.TID 0000.0001) %MON dynstat_uvel_sd              =   2.7788260030870E-02
(PID.TID 0000.0001) %MON dynstat_uvel_del2            =   4.2948648806050E-05
(PID.TID 0000.0001) %MON dynstat_vvel_max             =   5.5949292515767E-02
(PID.TID 0000.0001) %MON dynstat_vvel_min             =  -1.3515816246929E-02
(PID.TID 0000.0001) %MON dynstat_vvel_mean            =   2.1740062307296E-06
(PID.TID 0000.0001) %MON dynstat_vvel_sd              =   1.4172500910340E-02
(PID.TID 0000.0001) %MON dynstat_vvel_del2            =   1.3768325557833E-05
(PID.TID 0000.0001) %MON dynstat_wvel_max             =   2.0908393413240E-04
(PID.TID 0000.0001) %MON dynstat_wvel_min             =  -2.2655932721843E-04
(PID.TID 0000.0001) %MON dynstat_wvel_mean            =   8.6609480929077E-21
(PID.TID 0000.0001) %MON dynstat_wvel_sd              =   9.9705305185543E-05
(PID.TID 0000.0001) %MON dynstat_wvel_del2            =   7.4118641837167E-07
(PID.TID 0000.0001) %MON dynstat_theta_max            =   2.0566495072130E+01
(PID.TID 0000.0001) %MON dynstat_theta_min            =   1.5559134036122E+01
(PID.TID 0000.0001) %MON dynstat_theta_mean           =   1.7563151545581E+01
(PID.TID 0000.0001) %MON dynstat_theta_sd             =   1.4157653520644E+00
(PID.TID 0000.0001) %MON dynstat_theta_del2           =   1.3416638164013E-04
(PID.TID 0000.0001) %MON dynstat_salt_max             =   9.9826540841508E-01
(PID.TID 0000.0001) %MON dynstat_salt_min             =   4.0327175758506E-01
(PID.TID 0000.0001) %MON dynstat_salt_mean            =   7.4692403394445E-01
(PID.TID 0000.0001) %MON dynstat_salt_sd              =   1.9871109951707E-01
(PID.TID 0000.0001) %MON dynstat_salt_del2            =   2.5413638874022E-04
(PID.TID 0000.0001) %MON advcfl_uvel_max              =   1.9972713114099E-02
(PID.TID 0000.0001) %MON advcfl_vvel_max              =   1.2742681205538E-02
(PID.TID 0000.0001) %MON advcfl_wvel_max              =   4.3008908488721E-03
(PID.TID 0000.0001) %MON advcfl_W_hf_max              =   4.5272535251286E-03
(PID.TID 0000.0001) %MON pe_b_mean                    =   5.2185876023860E-06
(PID.TID 0000.0001) %MON ke_max                       =   7.7271912468137E-03
(PID.TID 0000.0001) %MON ke_mean                      =   4.8290614887806E-04
(PID.TID 0000.0001) %MON ke_vol                       =   7.6260000000000E+12
(PID.TID 0000.0001) // =======================================================
(PID.TID 0000.0001) // End MONITOR dynamic field statistics
(PID.TID 0000.0001) // =======================================================
 cg2d: Sum(rhs),rhsMax =  -8.88178419700125E-16  8.49521278091703E-03
(PID.TID 0000.0001)      cg2d_init_res =   5.40124726365844E-02
(PID.TID 0000.0001)      cg2d_iters(min,last) =      -1      30
(PID.TID 0000.0001)      cg2d_last_res =   9.44715351287458E-17
(PID.TID 0000.0001) // =======================================================
(PID.TID 0000.0001) // Begin MONITOR dynamic field statistics
(PID.TID 0000.0001) // =======================================================
(PID.TID 0000.0001) %MON time_tsnumber                =                    13
(PID.TID 0000.0001) %MON time_secondsf                =   2.3400000000000E+04
(PID.TID 0000.0001) %MON dynstat_eta_max              =   7.1150966344096E-02
(PID.TID 0000.0001) %MON dynstat_eta_min              =  -7.1853059450614E-02
(PID.TID 0000.0001) %MON dynstat_eta_mean             =   1.2305475050403E-17
(PID.TID 0000.0001) %MON dynstat_eta_sd               =   5.0576836125388E-02
(PID.TID 0000.0001) %MON dynstat_eta_del2             =   8.5808668076561E-05
(PID.TID 0000.0001) %MON dynstat_uvel_max             =   1.2028030080843E-01
(PID.TID 0000.0001) %MON dynstat_uvel_min             =  -2.9947659770775E-02
(PID.TID 0000.0001) %MON dynstat_uvel_mean            =  -1.8387177330561E-04
(PID.TID 0000.0001) %MON dynstat_uvel_sd              =   3.0103053420200E-02
(PID.TID 0000.0001) %MON dynstat_uvel_del2            =   4.6594363376957E-05
(PID.TID 0000.0001) %MON dynstat_vvel_max             =   4.7310468610261E-02
(PID.TID 0000.0001) %MON dynstat_vvel_min             =  -1.1308591557956E-02
(PID.TID 0000.0001) %MON dynstat_vvel_mean            =   1.9560746640771E-06
(PID.TID 0000.0001) %MON dynstat_vvel_sd              =   1.1953830555692E-02
(PID.TID 0000.0001) %MON dynstat_vvel_del2            =   1.2665667729168E-05
(PID.TID 0000.0001) %MON dynstat_wvel_max             =   1.7796121090103E-04
(PID.TID 0000.0001) %MON dynstat_wvel_min             =  -1.9749220916478E-04
(PID.TID 0000.0001) %MON dynstat_wvel_mean            =  -8.6609480929077E-21
(PID.TID 0000.0001) %MON dynstat_wvel_sd              =   8.4037631497986E-05
(PID.TID 0000.0001) %MON dynstat_wvel_del2            =   7.5888438573357E-07
(PID.TID 0000.0001) %MON dynstat_theta_max            =   2.0566356181377E+01
(PID.TID 0000.0001) %MON dynstat_theta_min            =   1.5559053967074E+01
(PID.TID 0000.0001) %MON dynstat_theta_mean           =   1.7563151562241E+01
(PID.TID 0000.0001) %MON dynstat_theta_sd             =   1.4157649309674E+00
(PID.TID 0000.0001) %MON dynstat_theta_del2           =   1.3360607242202E-04
(PID.TID 0000.0001) %MON dynstat_salt_max             =   9.9812629853786E-01
(PID.TID 0000.0001) %MON dynstat_salt_min             =   4.0389848109891E-01
(PID.TID 0000.0001) %MON dynstat_salt_mean            =   7.4692403131268E-01
(PID.TID 0000.0001) %MON dynstat_salt_sd              =   1.9855091123387E-01
(PID.TID 0000.0001) %MON dynstat_salt_del2            =   2.5662452682819E-04
(PID.TID 0000.0001) %MON advcfl_uvel_max              =   2.1650454145517E-02
(PID.TID 0000.0001) %MON advcfl_vvel_max              =   1.0775153573484E-02
(PID.TID 0000.0001) %MON advcfl_wvel_max              =   3.8085517696033E-03
(PID.TID 0000.0001) %MON advcfl_W_hf_max              =   4.0090018627404E-03
(PID.TID 0000.0001) %MON pe_b_mean                    =   5.1992202285658E-06
(PID.TID 0000.0001) %MON ke_max                       =   8.3568384981087E-03
(PID.TID 0000.0001) %MON ke_mean                      =   5.2197528582342E-04
(PID.TID 0000.0001) %MON ke_vol                       =   7.6260000000000E+12
(PID.TID 0000.0001) // =======================================================
(PID.TID 0000.0001) // End MONITOR dynamic field statistics
(PID.TID 0000.0001) // =======================================================
 cg2d: Sum(rhs),rhsMax =  -1.77635683940025E-15  8.68614834430290E-03
(PID.TID 0000.0001)      cg2d_init_res =   4.86419240017455E-02
(PID.TID 0000.0001)      cg2d_iters(min,last) =      -1      30
(PID.TID 0000.0001)      cg2d_last_res =   1.01960965529217E-16
(PID.TID 0000.0001) // =======================================================
(PID.TID 0000.0001) // Begin MONITOR dynamic field statistics
(PID.TID 0000.0001) // =======================================================
(PID.TID 0000.0001) %MON time_tsnumber                =                    14
(PID.TID 0000.0001) %MON time_secondsf                =   2.5200000000000E+04
(PID.TID 0000.0001) %MON dynstat_eta_max              =   7.1020874850863E-02
(PID.TID 0000.0001) %MON dynstat_eta_min              =  -7.1792612664114E-02
(PID.TID 0000.0001) %MON dynstat_eta_mean             =   1.8458212575605E-17
(PID.TID 0000.0001) %MON dynstat_eta_sd               =   5.0496110807287E-02
(PID.TID 0000.0001) %MON dynstat_eta_del2             =   8.5227943954629E-05
(PID.TID 0000.0001) %MON dynstat_uvel_max             =   1.2784662393129E-01
(PID.TID 0000.0001) %MON dynstat_uvel_min             =  -3.1741790461117E-02
(PID.TID 0000.0001) %MON dynstat_uvel_mean            =  -1.8355382472425E-04
(PID.TID 0000.0001) %MON dynstat_uvel_sd              =   3.1976183130684E-02
(PID.TID 0000.0001) %MON dynstat_uvel_del2            =   4.9561099771634E-05
(PID.TID 0000.0001) %MON dynstat_vvel_max             =   3.7131286587537E-02
(PID.TID 0000.0001) %MON dynstat_vvel_min             =  -8.7612588470850E-03
(PID.TID 0000.0001) %MON dynstat_vvel_mean            =   1.6772257265897E-06
(PID.TID 0000.0001) %MON dynstat_vvel_sd              =   9.3445180989872E-03
(PID.TID 0000.0001) %MON dynstat_vvel_del2            =   1.1406204005735E-05
(PID.TID 0000.0001) %MON dynstat_wvel_max             =   1.4096454920113E-04
(PID.TID 0000.0001) %MON dynstat_wvel_min             =  -1.6169322443208E-04
(PID.TID 0000.0001) %MON dynstat_wvel_mean            =  -4.3304740464538E-21
(PID.TID 0000.0001) %MON dynstat_wvel_sd              =   6.5648891039877E-05
(PID.TID 0000.0001) %MON dynstat_wvel_del2            =   7.5857747132718E-07
(PID.TID 0000.0001) %MON dynstat_theta_max            =   2.0566227159789E+01
(PID.TID 0000.0001) %MON dynstat_theta_min            =   1.5558985548388E+01
(PID.TID 0000.0001) %MON dynstat_theta_mean           =   1.7563151576525E+01
(PID.TID 0000.0001) %MON dynstat_theta_sd             =   1.4157645051452E+00
(PID.TID 0000.0001) %MON dynstat_theta_del2           =   1.3308459555149E-04
(PID.TID 0000.0001) %MON dynstat_salt_max             =   9.9798944953339E-01
(PID.TID 0000.0001) %MON dynstat_salt_min             =   4.0452012798629E-01
(PID.TID 0000.0001) %MON dynstat_salt_mean            =   7.4692402900142E-01
(PID.TID 0000.0001) %MON dynstat_salt_sd              =   1.9839106699775E-01
(PID.TID 0000.0001) %MON dynstat_salt_del2            =   2.5909213714076E-04
(PID.TID 0000.0001) %MON advcfl_uvel_max              =   2.3012392307633E-02
(PID.TID 0000.0001) %MON advcfl_vvel_max              =   8.4568030525698E-03
(PID.TID 0000.0001) %MON advcfl_wvel_max              =   3.1937799089889E-03
(PID.TID 0000.0001) %MON advcfl_W_hf_max              =   3.3618735884094E-03
(PID.TID 0000.0001) %MON pe_b_mean                    =   5.1826365989061E-06
(PID.TID 0000.0001) %MON ke_max                       =   8.8639832986516E-03
(PID.TID 0000.0001) %MON ke_mean                      =   5.5333500736579E-04
(PID.TID 0000.0001) %MON ke_vol                       =   7.6260000000000E+12
(PID.TID 0000.0001) // =======================================================
(PID.TID 0000.0001) // End MONITOR dynamic field statistics
(PID.TID 0000.0001) // =======================================================
 cg2d: Sum(rhs),rhsMax =   0.00000000000000E+00  8.86599854168032E-03
(PID.TID 0000.0001)      cg2d_init_res =   4.15931675588551E-02
(PID.TID 0000.0001)      cg2d_iters(min,last) =      -1      30
(PID.TID 0000.0001)      cg2d_last_res =   5.81403070993593E-17
(PID.TID 0000.0001) // =======================================================
(PID.TID 0000.0001) // Begin MONITOR dynamic field statistics
(PID.TID 0000.0001) // =======================================================
(PID.TID 0000.0001) %MON time_tsnumber                =                    15
(PID.TID 0000.0001) %MON time_secondsf                =   2.7000000000000E+04
(PID.TID 0000.0001) %MON dynstat_eta_max              =   7.0918813364068E-02
(PID.TID 0000.0001) %MON dynstat_eta_min              =  -7.1746575487169E-02
(PID.TID 0000.0001) %MON dynstat_eta_mean             =   2.1534581338206E-17
(PID.TID 0000.0001) %MON dynstat_eta_sd               =   5.0431102482440E-02
(PID.TID 0000.0001) %MON dynstat_eta_del2             =   8.4723478801808E-05
(PID.TID 0000.0001) %MON dynstat_uvel_max             =   1.3341453712674E-01
(PID.TID 0000.0001) %MON dynstat_uvel_min             =  -3.3030437448526E-02
(PID.TID 0000.0001) %MON dynstat_uvel_mean            =  -1.8329088388647E-04
(PID.TID 0000.0001) %MON dynstat_uvel_sd              =   3.3346916814255E-02
(PID.TID 0000.0001) %MON dynstat_uvel_del2            =   5.1746078513142E-05
(PID.TID 0000.0001) %MON dynstat_vvel_max             =   2.5764295465128E-02
(PID.TID 0000.0001) %MON dynstat_vvel_min             =  -5.9495019461220E-03
(PID.TID 0000.0001) %MON dynstat_vvel_mean            =   1.3498467194476E-06
(PID.TID 0000.0001) %MON dynstat_vvel_sd              =   6.4360222878789E-03
(PID.TID 0000.0001) %MON dynstat_vvel_del2            =   1.0147995639140E-05
(PID.TID 0000.0001) %MON dynstat_wvel_max             =   9.9556652681083E-05
(PID.TID 0000.0001) %MON dynstat_wvel_min             =  -1.2047537445637E-04
(PID.TID 0000.0001) %MON dynstat_wvel_mean            =  -4.3304740464538E-21
(PID.TID 0000.0001) %MON dynstat_wvel_sd              =   4.5235786190246E-05
(PID.TID 0000.0001) %MON dynstat_wvel_del2            =   7.4250855402110E-07
(PID.TID 0000.0001) %MON dynstat_theta_max            =   2.0566108628658E+01
(PID.TID 0000.0001) %MON dynstat_theta_min            =   1.5558938793380E+01
(PID.TID 0000.0001) %MON dynstat_theta_mean           =   1.7563151588023E+01
(PID.TID 0000.0001) %MON dynstat_theta_sd             =   1.4157640737007E+00
(PID.TID 0000.0001) %MON dynstat_theta_del2           =   1.3261628245514E-04
(PID.TID 0000.0001) %MON dynstat_salt_max             =   9.9785535336764E-01
(PID.TID 0000.0001) %MON dynstat_salt_min             =   4.0513721588238E-01
(PID.TID 0000.0001) %MON dynstat_salt_mean            =   7.4692402713951E-01
(PID.TID 0000.0001) %MON dynstat_salt_sd              =   1.9823155821195E-01
(PID.TID 0000.0001) %MON dynstat_salt_del2            =   2.6153130320188E-04
(PID.TID 0000.0001) %MON advcfl_uvel_max              =   2.4014616682813E-02
(PID.TID 0000.0001) %MON advcfl_vvel_max              =   5.8679241297806E-03
(PID.TID 0000.0001) %MON advcfl_wvel_max              =   2.4779100962594E-03
(PID.TID 0000.0001) %MON advcfl_W_hf_max              =   2.6083264171152E-03
(PID.TID 0000.0001) %MON pe_b_mean                    =   5.1693010113707E-06
(PID.TID 0000.0001) %MON ke_max                       =   9.2324986015018E-03
(PID.TID 0000.0001) %MON ke_mean                      =   5.7598691232429E-04
(PID.TID 0000.0001) %MON ke_vol                       =   7.6260000000000E+12
(PID.TID 0000.0001) // =======================================================
(PID.TID 0000.0001) // End MONITOR dynamic field statistics
(PID.TID 0000.0001) // =======================================================
 cg2d: Sum(rhs),rhsMax =   0.00000000000000E+00  9.02260886971641E-03
(PID.TID 0000.0001)      cg2d_init_res =   3.35746131946652E-02
(PID.TID 0000.0001)      cg2d_iters(min,last) =      -1      30
(PID.TID 0000.0001)      cg2d_last_res =   5.27461287474090E-17
(PID.TID 0000.0001) // =======================================================
(PID.TID 0000.0001) // Begin MONITOR dynamic field statistics
(PID.TID 0000.0001) // =======================================================
(PID.TID 0000.0001) %MON time_tsnumber                =                    16
(PID.TID 0000.0001) %MON time_secondsf                =   2.8800000000000E+04
(PID.TID 0000.0001) %MON dynstat_eta_max              =   7.0848147310684E-02
(PID.TID 0000.0001) %MON dynstat_eta_min              =  -7.1715039850047E-02
(PID.TID 0000.0001) %MON dynstat_eta_mean             =   1.8458212575605E-17
(PID.TID 0000.0001) %MON dynstat_eta_sd               =   5.0383596488443E-02
(PID.TID 0000.0001) %MON dynstat_eta_del2             =   8.4307697221741E-05
(PID.TID 0000.0001) %MON dynstat_uvel_max             =   1.3680892704030E-01
(PID.TID 0000.0001) %MON dynstat_uvel_min             =  -3.3772338115427E-02
(PID.TID 0000.0001) %MON dynstat_uvel_mean            =  -1.8309007542895E-04
(PID.TID 0000.0001) %MON dynstat_uvel_sd              =   3.4171910393678E-02
(PID.TID 0000.0001) %MON dynstat_uvel_del2            =   5.3072625949906E-05
(PID.TID 0000.0001) %MON dynstat_vvel_max             =   1.3599851037405E-02
(PID.TID 0000.0001) %MON dynstat_vvel_min             =  -2.9853976019028E-03
(PID.TID 0000.0001) %MON dynstat_vvel_mean            =   9.8527590352443E-07
(PID.TID 0000.0001) %MON dynstat_vvel_sd              =   3.3318775493318E-03
(PID.TID 0000.0001) %MON dynstat_vvel_del2            =   9.0981683791015E-06
(PID.TID 0000.0001) %MON dynstat_wvel_max             =   5.8057090154941E-05
(PID.TID 0000.0001) %MON dynstat_wvel_min             =  -7.7508435151103E-05
(PID.TID 0000.0001) %MON dynstat_wvel_mean            =   2.1652370232269E-21
(PID.TID 0000.0001) %MON dynstat_wvel_sd              =   2.3755287519907E-05
(PID.TID 0000.0001) %MON dynstat_wvel_del2            =   7.1247265664490E-07
(PID.TID 0000.0001) %MON dynstat_theta_max            =   2.0566000832420E+01
(PID.TID 0000.0001) %MON dynstat_theta_min            =   1.5558918167826E+01
(PID.TID 0000.0001) %MON dynstat_theta_mean           =   1.7563151596424E+01
(PID.TID 0000.0001) %MON dynstat_theta_sd             =   1.4157636359170E+00
(PID.TID 0000.0001) %MON dynstat_theta_del2           =   1.3221325609047E-04
(PID.TID 0000.0001) %MON dynstat_salt_max             =   9.9772439870894E-01
(PID.TID 0000.0001) %MON dynstat_salt_min             =   4.0575009376068E-01
(PID.TID 0000.0001) %MON dynstat_salt_mean            =   7.4692402583367E-01
(PID.TID 0000.0001) %MON dynstat_salt_sd              =   1.9807237643706E-01
(PID.TID 0000.0001) %MON dynstat_salt_del2            =   2.6393541900850E-04
(PID.TID 0000.0001) %MON advcfl_uvel_max              =   2.4625606867254E-02
(PID.TID 0000.0001) %MON advcfl_vvel_max              =   3.0974219408337E-03
(PID.TID 0000.0001) %MON advcfl_wvel_max              =   1.6861153038850E-03
(PID.TID 0000.0001) %MON advcfl_W_hf_max              =   1.7748582146158E-03
(PID.TID 0000.0001) %MON pe_b_mean                    =   5.1595666567281E-06
(PID.TID 0000.0001) %MON ke_max                       =   9.4509210265652E-03
(PID.TID 0000.0001) %MON ke_mean                      =   5.8922632342621E-04
(PID.TID 0000.0001) %MON ke_vol                       =   7.6260000000000E+12
(PID.TID 0000.0001) // =======================================================
(PID.TID 0000.0001) // End MONITOR dynamic field statistics
(PID.TID 0000.0001) // =======================================================
 cg2d: Sum(rhs),rhsMax =  -1.77635683940025E-15  9.14899624848795E-03
(PID.TID 0000.0001)      cg2d_init_res =   2.51954822148705E-02
(PID.TID 0000.0001)      cg2d_iters(min,last) =      -1      29
(PID.TID 0000.0001)      cg2d_last_res =   5.73994403678140E-15
(PID.TID 0000.0001) // =======================================================
(PID.TID 0000.0001) // Begin MONITOR dynamic field statistics
(PID.TID 0000.0001) // =======================================================
(PID.TID 0000.0001) %MON time_tsnumber                =                    17
(PID.TID 0000.0001) %MON time_secondsf                =   3.0600000000000E+04
(PID.TID 0000.0001) %MON dynstat_eta_max              =   7.0811035191756E-02
(PID.TID 0000.0001) %MON dynstat_eta_min              =  -7.1697845675403E-02
(PID.TID 0000.0001) %MON dynstat_eta_mean             =   1.8458212575605E-17
(PID.TID 0000.0001) %MON dynstat_eta_sd               =   5.0354785732193E-02
(PID.TID 0000.0001) %MON dynstat_eta_del2             =   8.3989693374645E-05
(PID.TID 0000.0001) %MON dynstat_uvel_max             =   1.3792894419770E-01
(PID.TID 0000.0001) %MON dynstat_uvel_min             =  -3.3945300825929E-02
(PID.TID 0000.0001) %MON dynstat_uvel_mean            =  -1.8295666393358E-04
(PID.TID 0000.0001) %MON dynstat_uvel_sd              =   3.4426565728328E-02
(PID.TID 0000.0001) %MON dynstat_uvel_del2            =   5.3493536917859E-05
(PID.TID 0000.0001) %MON dynstat_vvel_max             =   1.2599565972962E-03
(PID.TID 0000.0001) %MON dynstat_vvel_min             =  -1.8696398029425E-03
(PID.TID 0000.0001) %MON dynstat_vvel_mean            =   5.9589723289157E-07
(PID.TID 0000.0001) %MON dynstat_vvel_sd              =   3.1661304604141E-04
(PID.TID 0000.0001) %MON dynstat_vvel_del2            =   8.4885255614585E-06
(PID.TID 0000.0001) %MON dynstat_wvel_max             =   3.7945523830862E-05
(PID.TID 0000.0001) %MON dynstat_wvel_min             =  -3.5588196667800E-05
(PID.TID 0000.0001) %MON dynstat_wvel_mean            =   1.0149548546376E-22
(PID.TID 0000.0001) %MON dynstat_wvel_sd              =   6.8963511412770E-06
(PID.TID 0000.0001) %MON dynstat_wvel_del2            =   6.6963872131751E-07
(PID.TID 0000.0001) %MON dynstat_theta_max            =   2.0565903632589E+01
(PID.TID 0000.0001) %MON dynstat_theta_min            =   1.5558924627262E+01
(PID.TID 0000.0001) %MON dynstat_theta_mean           =   1.7563151601519E+01
(PID.TID 0000.0001) %MON dynstat_theta_sd             =   1.4157631912851E+00
(PID.TID 0000.0001) %MON dynstat_theta_del2           =   1.3188521440386E-04
(PID.TID 0000.0001) %MON dynstat_salt_max             =   9.9759682892974E-01
(PID.TID 0000.0001) %MON dynstat_salt_min             =   4.0635894510242E-01
(PID.TID 0000.0001) %MON dynstat_salt_mean            =   7.4692402515914E-01
(PID.TID 0000.0001) %MON dynstat_salt_sd              =   1.9791351345508E-01
(PID.TID 0000.0001) %MON dynstat_salt_del2            =   2.6629903566968E-04
(PID.TID 0000.0001) %MON advcfl_uvel_max              =   2.4827209955585E-02
(PID.TID 0000.0001) %MON advcfl_vvel_max              =   3.0017458236103E-04
(PID.TID 0000.0001) %MON advcfl_wvel_max              =   8.8123839822383E-04
(PID.TID 0000.0001) %MON advcfl_W_hf_max              =   9.1513218277090E-04
(PID.TID 0000.0001) %MON pe_b_mean                    =   5.1536675734453E-06
(PID.TID 0000.0001) %MON ke_max                       =   9.5127313025878E-03
(PID.TID 0000.0001) %MON ke_mean                      =   5.9265925873549E-04
(PID.TID 0000.0001) %MON ke_vol                       =   7.6260000000000E+12
(PID.TID 0000.0001) // =======================================================
(PID.TID 0000.0001) // End MONITOR dynamic field statistics
(PID.TID 0000.0001) // =======================================================
 cg2d: Sum(rhs),rhsMax =  -8.88178419700125E-16  9.24030937616803E-03
(PID.TID 0000.0001)      cg2d_init_res =   1.70145323238828E-02
(PID.TID 0000.0001)      cg2d_iters(min,last) =      -1      29
(PID.TID 0000.0001)      cg2d_last_res =   8.59340070245677E-14
(PID.TID 0000.0001) // =======================================================
(PID.TID 0000.0001) // Begin MONITOR dynamic field statistics
(PID.TID 0000.0001) // =======================================================
(PID.TID 0000.0001) %MON time_tsnumber                =                    18
(PID.TID 0000.0001) %MON time_secondsf                =   3.2400000000000E+04
(PID.TID 0000.0001) %MON dynstat_eta_max              =   7.0808266467919E-02
(PID.TID 0000.0001) %MON dynstat_eta_min              =  -7.1694656526674E-02
(PID.TID 0000.0001) %MON dynstat_eta_mean             =   2.1534581338206E-17
(PID.TID 0000.0001) %MON dynstat_eta_sd               =   5.0345221985986E-02
(PID.TID 0000.0001) %MON dynstat_eta_del2             =   8.3775967598169E-05
(PID.TID 0000.0001) %MON dynstat_uvel_max             =   1.3675090236038E-01
(PID.TID 0000.0001) %MON dynstat_uvel_min             =  -3.3546845407810E-02
(PID.TID 0000.0001) %MON dynstat_uvel_mean            =  -1.8289365715211E-04
(PID.TID 0000.0001) %MON dynstat_uvel_sd              =   3.4105745422288E-02
(PID.TID 0000.0001) %MON dynstat_uvel_del2            =   5.2993364940180E-05
(PID.TID 0000.0001) %MON dynstat_vvel_max             =   3.4257401720883E-03
(PID.TID 0000.0001) %MON dynstat_vvel_min             =  -1.1482289622120E-02
(PID.TID 0000.0001) %MON dynstat_vvel_mean            =   1.9513449594247E-07
(PID.TID 0000.0001) %MON dynstat_vvel_sd              =   3.0871804997736E-03
(PID.TID 0000.0001) %MON dynstat_vvel_del2            =   8.4810620657551E-06
(PID.TID 0000.0001) %MON dynstat_wvel_max             =   7.4397355879516E-05
(PID.TID 0000.0001) %MON dynstat_wvel_min             =  -6.1094275213866E-05
(PID.TID 0000.0001) %MON dynstat_wvel_mean            =  -1.0826185116135E-21
(PID.TID 0000.0001) %MON dynstat_wvel_sd              =   2.3399245801175E-05
(PID.TID 0000.0001) %MON dynstat_wvel_del2            =   6.1475979853256E-07
(PID.TID 0000.0001) %MON dynstat_theta_max            =   2.0565816514487E+01
(PID.TID 0000.0001) %MON dynstat_theta_min            =   1.5558957938351E+01
(PID.TID 0000.0001) %MON dynstat_theta_mean           =   1.7563151603215E+01
(PID.TID 0000.0001) %MON dynstat_theta_sd             =   1.4157627395337E+00
(PID.TID 0000.0001) %MON dynstat_theta_del2           =   1.3163923225205E-04
(PID.TID 0000.0001) %MON dynstat_salt_max             =   9.9747271685903E-01
(PID.TID 0000.0001) %MON dynstat_salt_min             =   4.0696379504341E-01
(PID.TID 0000.0001) %MON dynstat_salt_mean            =   7.4692402515303E-01
(PID.TID 0000.0001) %MON dynstat_salt_sd              =   1.9775496133423E-01
(PID.TID 0000.0001) %MON dynstat_salt_del2            =   2.6861772897763E-04
(PID.TID 0000.0001) %MON advcfl_uvel_max              =   2.4615162424868E-02
(PID.TID 0000.0001) %MON advcfl_vvel_max              =   2.6151386297351E-03
(PID.TID 0000.0001) %MON advcfl_wvel_max              =   1.5798119490597E-03
(PID.TID 0000.0001) %MON advcfl_W_hf_max              =   1.6629599463786E-03
(PID.TID 0000.0001) %MON pe_b_mean                    =   5.1517101154841E-06
(PID.TID 0000.0001) %MON ke_max                       =   9.4164929858665E-03
(PID.TID 0000.0001) %MON ke_mean                      =   5.8621055131258E-04
(PID.TID 0000.0001) %MON ke_vol                       =   7.6260000000000E+12
(PID.TID 0000.0001) // =======================================================
(PID.TID 0000.0001) // End MONITOR dynamic field statistics
(PID.TID 0000.0001) // =======================================================
 cg2d: Sum(rhs),rhsMax =  -8.88178419700125E-16  9.29388010833538E-03
(PID.TID 0000.0001)      cg2d_init_res =   9.84809512150432E-03
(PID.TID 0000.0001)      cg2d_iters(min,last) =      -1      29
(PID.TID 0000.0001)      cg2d_last_res =   5.66486202786978E-14
(PID.TID 0000.0001) // =======================================================
(PID.TID 0000.0001) // Begin MONITOR dynamic field statistics
(PID.TID 0000.0001) // =======================================================
(PID.TID 0000.0001) %MON time_tsnumber                =                    19
(PID.TID 0000.0001) %MON time_secondsf                =   3.4200000000000E+04
(PID.TID 0000.0001) %MON dynstat_eta_max              =   7.0839184351195E-02
(PID.TID 0000.0001) %MON dynstat_eta_min              =  -7.1705005269131E-02
(PID.TID 0000.0001) %MON dynstat_eta_mean             =   1.5381843813004E-17
(PID.TID 0000.0001) %MON dynstat_eta_sd               =   5.0354797401415E-02
(PID.TID 0000.0001) %MON dynstat_eta_del2             =   8.3670650897058E-05
(PID.TID 0000.0001) %MON dynstat_uvel_max             =   1.3332857222446E-01
(PID.TID 0000.0001) %MON dynstat_uvel_min             =  -3.2594162221791E-02
(PID.TID 0000.0001) %MON dynstat_uvel_mean            =  -1.8290162790188E-04
(PID.TID 0000.0001) %MON dynstat_uvel_sd              =   3.3223824563718E-02
(PID.TID 0000.0001) %MON dynstat_uvel_del2            =   5.1589421015025E-05
(PID.TID 0000.0001) %MON dynstat_vvel_max             =   6.3846204488042E-03
(PID.TID 0000.0001) %MON dynstat_vvel_min             =  -2.3510122727237E-02
(PID.TID 0000.0001) %MON dynstat_vvel_mean            =  -2.0319484060671E-07
(PID.TID 0000.0001) %MON dynstat_vvel_sd              =   6.1446727745171E-03
(PID.TID 0000.0001) %MON dynstat_vvel_del2            =   9.0535273008531E-06
(PID.TID 0000.0001) %MON dynstat_wvel_max             =   1.0920487975622E-04
(PID.TID 0000.0001) %MON dynstat_wvel_min             =  -9.5613339154171E-05
(PID.TID 0000.0001) %MON dynstat_wvel_mean            =   1.2991422139362E-20
(PID.TID 0000.0001) %MON dynstat_wvel_sd              =   4.4478547814508E-05
(PID.TID 0000.0001) %MON dynstat_wvel_del2            =   5.4874493996159E-07
(PID.TID 0000.0001) %MON dynstat_theta_max            =   2.0565738607501E+01
(PID.TID 0000.0001) %MON dynstat_theta_min            =   1.5559016672508E+01
(PID.TID 0000.0001) %MON dynstat_theta_mean           =   1.7563151601533E+01
(PID.TID 0000.0001) %MON dynstat_theta_sd             =   1.4157622806480E+00
(PID.TID 0000.0001) %MON dynstat_theta_del2           =   1.3147981264867E-04
(PID.TID 0000.0001) %MON dynstat_salt_max             =   9.9735195869886E-01
(PID.TID 0000.0001) %MON dynstat_salt_min             =   4.0756452166953E-01
(PID.TID 0000.0001) %MON dynstat_salt_mean            =   7.4692402581134E-01
(PID.TID 0000.0001) %MON dynstat_salt_sd              =   1.9759671249251E-01
(PID.TID 0000.0001) %MON dynstat_salt_del2            =   2.7088798358302E-04
(PID.TID 0000.0001) %MON advcfl_uvel_max              =   2.3999143000402E-02
(PID.TID 0000.0001) %MON advcfl_vvel_max              =   5.3545270287705E-03
(PID.TID 0000.0001) %MON advcfl_wvel_max              =   2.2390832654424E-03
(PID.TID 0000.0001) %MON advcfl_W_hf_max              =   2.3569297530973E-03
(PID.TID 0000.0001) %MON pe_b_mean                    =   5.1536699620681E-06
(PID.TID 0000.0001) %MON ke_max                       =   9.1658523544223E-03
(PID.TID 0000.0001) %MON ke_mean                      =   5.7012330172323E-04
(PID.TID 0000.0001) %MON ke_vol                       =   7.6260000000000E+12
(PID.TID 0000.0001) // =======================================================
(PID.TID 0000.0001) // End MONITOR dynamic field statistics
(PID.TID 0000.0001) // =======================================================
 cg2d: Sum(rhs),rhsMax =  -1.77635683940025E-15  9.30903788572899E-03
(PID.TID 0000.0001)      cg2d_init_res =   6.68400683353874E-03
(PID.TID 0000.0001)      cg2d_iters(min,last) =      -1      29
(PID.TID 0000.0001)      cg2d_last_res =   3.35355128658475E-14
(PID.TID 0000.0001) // =======================================================
(PID.TID 0000.0001) // Begin MONITOR dynamic field statistics
(PID.TID 0000.0001) // =======================================================
(PID.TID 0000.0001) %MON time_tsnumber                =                    20
(PID.TID 0000.0001) %MON time_secondsf                =   3.6000000000000E+04
(PID.TID 0000.0001) %MON dynstat_eta_max              =   7.0901701091591E-02
(PID.TID 0000.0001) %MON dynstat_eta_min              =  -7.1728299234053E-02
(PID.TID 0000.0001) %MON dynstat_eta_mean             =   1.2305475050403E-17
(PID.TID 0000.0001) %MON dynstat_eta_sd               =   5.0382752196374E-02
(PID.TID 0000.0001) %MON dynstat_eta_del2             =   8.3675369505079E-05
(PID.TID 0000.0001) %MON dynstat_uvel_max             =   1.2779087874699E-01
(PID.TID 0000.0001) %MON dynstat_uvel_min             =  -3.1123395739057E-02
(PID.TID 0000.0001) %MON dynstat_uvel_mean            =  -1.8297871297808E-04
(PID.TID 0000.0001) %MON dynstat_uvel_sd              =   3.1814081711975E-02
(PID.TID 0000.0001) %MON dynstat_uvel_del2            =   4.9331359536631E-05
(PID.TID 0000.0001) %MON dynstat_vvel_max             =   9.1084615084159E-03
(PID.TID 0000.0001) %MON dynstat_vvel_min             =  -3.4672415908444E-02
(PID.TID 0000.0001) %MON dynstat_vvel_mean            =  -5.8544628942137E-07
(PID.TID 0000.0001) %MON dynstat_vvel_sd              =   8.9804773915954E-03
(PID.TID 0000.0001) %MON dynstat_vvel_del2            =   1.0017434034293E-05
(PID.TID 0000.0001) %MON dynstat_wvel_max             =   1.4043966945463E-04
(PID.TID 0000.0001) %MON dynstat_wvel_min             =  -1.2756129438621E-04
(PID.TID 0000.0001) %MON dynstat_wvel_mean            =  -1.7321896185815E-20
(PID.TID 0000.0001) %MON dynstat_wvel_sd              =   6.4265881911117E-05
(PID.TID 0000.0001) %MON dynstat_wvel_del2            =   4.7368879487129E-07
(PID.TID 0000.0001) %MON dynstat_theta_max            =   2.0565668718989E+01
(PID.TID 0000.0001) %MON dynstat_theta_min            =   1.5559088351777E+01
(PID.TID 0000.0001) %MON dynstat_theta_mean           =   1.7563151596608E+01
(PID.TID 0000.0001) %MON dynstat_theta_sd             =   1.4157618148783E+00
(PID.TID 0000.0001) %MON dynstat_theta_del2           =   1.3140936124126E-04
(PID.TID 0000.0001) %MON dynstat_salt_max             =   9.9723428702324E-01
(PID.TID 0000.0001) %MON dynstat_salt_min             =   4.0816087146250E-01
(PID.TID 0000.0001) %MON dynstat_salt_mean            =   7.4692402708978E-01
(PID.TID 0000.0001) %MON dynstat_salt_sd              =   1.9743875975806E-01
(PID.TID 0000.0001) %MON dynstat_salt_del2            =   2.7310708923939E-04
(PID.TID 0000.0001) %MON advcfl_uvel_max              =   2.3002358174458E-02
(PID.TID 0000.0001) %MON advcfl_vvel_max              =   7.8967851545686E-03
(PID.TID 0000.0001) %MON advcfl_wvel_max              =   2.8136554219579E-03
(PID.TID 0000.0001) %MON advcfl_W_hf_max              =   2.9617425494293E-03
(PID.TID 0000.0001) %MON pe_b_mean                    =   5.1593937375635E-06
(PID.TID 0000.0001) %MON ke_max                       =   8.7694021249114E-03
(PID.TID 0000.0001) %MON ke_mean                      =   5.4494984015851E-04
(PID.TID 0000.0001) %MON ke_vol                       =   7.6260000000000E+12
(PID.TID 0000.0001) // =======================================================
(PID.TID 0000.0001) // End MONITOR dynamic field statistics
(PID.TID 0000.0001) // =======================================================
(PID.TID 0000.0001) %CHECKPOINT        20 ckptA
(PID.TID 0000.0001)   Seconds in section "ALL                    [THE_MODEL_MAIN]":
(PID.TID 0000.0001)           User time:  0.88177201454527676
(PID.TID 0000.0001)         System time:   1.0467999614775181E-002
(PID.TID 0000.0001)     Wall clock time:  0.90939092636108398
(PID.TID 0000.0001)          No. starts:           1
(PID.TID 0000.0001)           No. stops:           1
(PID.TID 0000.0001)   Seconds in section "INITIALISE_FIXED       [THE_MODEL_MAIN]":
(PID.TID 0000.0001)           User time:   1.8327000550925732E-002
(PID.TID 0000.0001)         System time:   4.2619998566806316E-003
(PID.TID 0000.0001)     Wall clock time:   3.4085035324096680E-002
(PID.TID 0000.0001)          No. starts:           1
(PID.TID 0000.0001)           No. stops:           1
(PID.TID 0000.0001)   Seconds in section "THE_MAIN_LOOP          [THE_MODEL_MAIN]":
(PID.TID 0000.0001)           User time:  0.86340301483869553
(PID.TID 0000.0001)         System time:   6.1940001323819160E-003
(PID.TID 0000.0001)     Wall clock time:  0.87527012825012207
(PID.TID 0000.0001)          No. starts:           1
(PID.TID 0000.0001)           No. stops:           1
(PID.TID 0000.0001)   Seconds in section "INITIALISE_VARIA    [THE_MAIN_LOOP]":
(PID.TID 0000.0001)           User time:   6.5359994769096375E-003
(PID.TID 0000.0001)         System time:   3.6969999782741070E-003
(PID.TID 0000.0001)     Wall clock time:   1.1697053909301758E-002
(PID.TID 0000.0001)          No. starts:           1
(PID.TID 0000.0001)           No. stops:           1
(PID.TID 0000.0001)   Seconds in section "MAIN LOOP           [THE_MAIN_LOOP]":
(PID.TID 0000.0001)           User time:  0.85684801451861858
(PID.TID 0000.0001)         System time:   2.4859998375177383E-003
(PID.TID 0000.0001)     Wall clock time:  0.86354303359985352
(PID.TID 0000.0001)          No. starts:           1
(PID.TID 0000.0001)           No. stops:           1
(PID.TID 0000.0001)   Seconds in section "MAIN_DO_LOOP        [THE_MAIN_LOOP]":
(PID.TID 0000.0001)           User time:  0.85666898079216480
(PID.TID 0000.0001)         System time:   2.4749999865889549E-003
(PID.TID 0000.0001)     Wall clock time:  0.86334300041198730
(PID.TID 0000.0001)          No. starts:          20
(PID.TID 0000.0001)           No. stops:          20
(PID.TID 0000.0001)   Seconds in section "FORWARD_STEP        [MAIN_DO_LOOP]":
(PID.TID 0000.0001)           User time:  0.85631814226508141
(PID.TID 0000.0001)         System time:   2.4629998952150345E-003
(PID.TID 0000.0001)     Wall clock time:  0.86299419403076172
(PID.TID 0000.0001)          No. starts:          20
(PID.TID 0000.0001)           No. stops:          20
(PID.TID 0000.0001)   Seconds in section "LOAD_FIELDS_DRIVER  [FORWARD_STEP]":
(PID.TID 0000.0001)           User time:   5.3215399384498596E-004
(PID.TID 0000.0001)         System time:   5.9995800256729126E-006
(PID.TID 0000.0001)     Wall clock time:   5.3691864013671875E-004
(PID.TID 0000.0001)          No. starts:          20
(PID.TID 0000.0001)           No. stops:          20
(PID.TID 0000.0001)   Seconds in section "EXTERNAL_FLDS_LOAD [LOAD_FLDS_DRIVER]":
(PID.TID 0000.0001)           User time:   1.7796270549297333E-004
(PID.TID 0000.0001)         System time:   2.0004808902740479E-006
(PID.TID 0000.0001)     Wall clock time:   1.8525123596191406E-004
(PID.TID 0000.0001)          No. starts:          20
(PID.TID 0000.0001)           No. stops:          20
(PID.TID 0000.0001)   Seconds in section "DO_ATMOSPHERIC_PHYS [FORWARD_STEP]":
(PID.TID 0000.0001)           User time:   1.9286386668682098E-004
(PID.TID 0000.0001)         System time:   1.9995495676994324E-006
(PID.TID 0000.0001)     Wall clock time:   1.9264221191406250E-004
(PID.TID 0000.0001)          No. starts:          20
(PID.TID 0000.0001)           No. stops:          20
(PID.TID 0000.0001)   Seconds in section "DO_OCEANIC_PHYS     [FORWARD_STEP]":
(PID.TID 0000.0001)           User time:  0.10784104466438293
(PID.TID 0000.0001)         System time:   2.1999981254339218E-004
(PID.TID 0000.0001)     Wall clock time:  0.11217331886291504
(PID.TID 0000.0001)          No. starts:          20
(PID.TID 0000.0001)           No. stops:          20
(PID.TID 0000.0001)   Seconds in section "DYNAMICS            [FORWARD_STEP]":
(PID.TID 0000.0001)           User time:  0.24885391443967819
(PID.TID 0000.0001)         System time:   0.0000000000000000
(PID.TID 0000.0001)     Wall clock time:  0.24888539314270020
(PID.TID 0000.0001)          No. starts:          20
(PID.TID 0000.0001)           No. stops:          20
(PID.TID 0000.0001)   Seconds in section "SOLVE_FOR_PRESSURE  [FORWARD_STEP]":
(PID.TID 0000.0001)           User time:   1.9329056143760681E-002
(PID.TID 0000.0001)         System time:   4.9000605940818787E-005
(PID.TID 0000.0001)     Wall clock time:   1.9399166107177734E-002
(PID.TID 0000.0001)          No. starts:          20
(PID.TID 0000.0001)           No. stops:          20
(PID.TID 0000.0001)   Seconds in section "MOM_CORRECTION_STEP [FORWARD_STEP]":
(PID.TID 0000.0001)           User time:   1.2847043573856354E-002
(PID.TID 0000.0001)         System time:   1.0100007057189941E-004
(PID.TID 0000.0001)     Wall clock time:   1.2964487075805664E-002
(PID.TID 0000.0001)          No. starts:          20
(PID.TID 0000.0001)           No. stops:          20
(PID.TID 0000.0001)   Seconds in section "INTEGR_CONTINUITY   [FORWARD_STEP]":
(PID.TID 0000.0001)           User time:   7.6519660651683807E-003
(PID.TID 0000.0001)         System time:   5.7000666856765747E-005
(PID.TID 0000.0001)     Wall clock time:   7.7202320098876953E-003
(PID.TID 0000.0001)          No. starts:          20
(PID.TID 0000.0001)           No. stops:          20
(PID.TID 0000.0001)   Seconds in section "BLOCKING_EXCHANGES  [FORWARD_STEP]":
(PID.TID 0000.0001)           User time:   3.5330060869455338E-002
(PID.TID 0000.0001)         System time:   0.0000000000000000
(PID.TID 0000.0001)     Wall clock time:   3.5389900207519531E-002
(PID.TID 0000.0001)          No. starts:          40
(PID.TID 0000.0001)           No. stops:          40
(PID.TID 0000.0001)   Seconds in section "THERMODYNAMICS      [FORWARD_STEP]":
(PID.TID 0000.0001)           User time:  0.39216697961091995
(PID.TID 0000.0001)         System time:   0.0000000000000000
(PID.TID 0000.0001)     Wall clock time:  0.39229059219360352
(PID.TID 0000.0001)          No. starts:          20
(PID.TID 0000.0001)           No. stops:          20
(PID.TID 0000.0001)   Seconds in section "TRC_CORRECTION_STEP [FORWARD_STEP]":
(PID.TID 0000.0001)           User time:   1.9796192646026611E-004
(PID.TID 0000.0001)         System time:   0.0000000000000000
(PID.TID 0000.0001)     Wall clock time:   2.0051002502441406E-004
(PID.TID 0000.0001)          No. starts:          20
(PID.TID 0000.0001)           No. stops:          20
(PID.TID 0000.0001)   Seconds in section "MONITOR             [FORWARD_STEP]":
(PID.TID 0000.0001)           User time:   2.5183901190757751E-002
(PID.TID 0000.0001)         System time:   0.0000000000000000
(PID.TID 0000.0001)     Wall clock time:   2.5211334228515625E-002
(PID.TID 0000.0001)          No. starts:          20
(PID.TID 0000.0001)           No. stops:          20
(PID.TID 0000.0001)   Seconds in section "DO_THE_MODEL_IO     [FORWARD_STEP]":
(PID.TID 0000.0001)           User time:   3.0340552330017090E-003
(PID.TID 0000.0001)         System time:   0.0000000000000000
(PID.TID 0000.0001)     Wall clock time:   3.0348300933837891E-003
(PID.TID 0000.0001)          No. starts:          20
(PID.TID 0000.0001)           No. stops:          20
(PID.TID 0000.0001)   Seconds in section "DO_WRITE_PICKUP     [FORWARD_STEP]":
(PID.TID 0000.0001)           User time:   1.8201768398284912E-004
(PID.TID 0000.0001)         System time:   2.0040003582835197E-003
(PID.TID 0000.0001)     Wall clock time:   2.1800994873046875E-003
(PID.TID 0000.0001)          No. starts:          20
(PID.TID 0000.0001)           No. stops:          20
(PID.TID 0000.0001) // ======================================================
(PID.TID 0000.0001) // Tile <-> Tile communication statistics
(PID.TID 0000.0001) // ======================================================
(PID.TID 0000.0001) // o Tile number: 000001
(PID.TID 0000.0001) //         No. X exchanges =              0
(PID.TID 0000.0001) //            Max. X spins =              0
(PID.TID 0000.0001) //            Min. X spins =     1000000000
(PID.TID 0000.0001) //          Total. X spins =              0
(PID.TID 0000.0001) //            Avg. X spins =       0.00E+00
(PID.TID 0000.0001) //         No. Y exchanges =              0
(PID.TID 0000.0001) //            Max. Y spins =              0
(PID.TID 0000.0001) //            Min. Y spins =     1000000000
(PID.TID 0000.0001) //          Total. Y spins =              0
(PID.TID 0000.0001) //            Avg. Y spins =       0.00E+00
(PID.TID 0000.0001) // o Tile number: 000002
(PID.TID 0000.0001) //         No. X exchanges =              0
(PID.TID 0000.0001) //            Max. X spins =              0
(PID.TID 0000.0001) //            Min. X spins =     1000000000
(PID.TID 0000.0001) //          Total. X spins =              0
(PID.TID 0000.0001) //            Avg. X spins =       0.00E+00
(PID.TID 0000.0001) //         No. Y exchanges =              0
(PID.TID 0000.0001) //            Max. Y spins =              0
(PID.TID 0000.0001) //            Min. Y spins =     1000000000
(PID.TID 0000.0001) //          Total. Y spins =              0
(PID.TID 0000.0001) //            Avg. Y spins =       0.00E+00
(PID.TID 0000.0001) // o Thread number: 000001
(PID.TID 0000.0001) //            No. barriers =           6324
(PID.TID 0000.0001) //      Max. barrier spins =              1
(PID.TID 0000.0001) //      Min. barrier spins =              1
(PID.TID 0000.0001) //     Total barrier spins =           6324
(PID.TID 0000.0001) //      Avg. barrier spins =       1.00E+00
PROGRAM MAIN: Execution ended Normally
