(PID.TID 0000.0001) 
(PID.TID 0000.0001) // ======================================================
(PID.TID 0000.0001) //                      MITgcm UV
(PID.TID 0000.0001) //                      =========
(PID.TID 0000.0001) // ======================================================
(PID.TID 0000.0001) // execution environment starting up...
(PID.TID 0000.0001) 
(PID.TID 0000.0001) // MITgcmUV version:  checkpoint68f
(PID.TID 0000.0001) // Build user:        jm_c
(PID.TID 0000.0001) // Build host:        villon
(PID.TID 0000.0001) // Build date:        Sat Jan 29 16:30:23 EST 2022
(PID.TID 0000.0001) 
(PID.TID 0000.0001) // =======================================================
(PID.TID 0000.0001) // Execution Environment parameter file "eedata"
(PID.TID 0000.0001) // =======================================================
(PID.TID 0000.0001) ># Example "eedata" file
(PID.TID 0000.0001) ># Lines beginning "#" are comments
(PID.TID 0000.0001) >#  nTx      :: No. threads per process in X
(PID.TID 0000.0001) >#  nTy      :: No. threads per process in Y
(PID.TID 0000.0001) ># debugMode :: print debug msg (sequence of S/R calls)
(PID.TID 0000.0001) > &EEPARMS
(PID.TID 0000.0001) > /
(PID.TID 0000.0001) ># Note: Some systems use & as the namelist terminator (as shown here).
(PID.TID 0000.0001) >#       Other systems use a / character.
(PID.TID 0000.0001) 
(PID.TID 0000.0001) // =======================================================
(PID.TID 0000.0001) // Computational Grid Specification ( see files "SIZE.h" )
(PID.TID 0000.0001) //                                  ( and "eedata"       )
(PID.TID 0000.0001) // =======================================================
(PID.TID 0000.0001)      nPx =    1 ; /* No. processes in X */
(PID.TID 0000.0001)      nPy =    1 ; /* No. processes in Y */
(PID.TID 0000.0001)      nSx =    1 ; /* No. tiles in X per process */
(PID.TID 0000.0001)      nSy =    2 ; /* No. tiles in Y per process */
(PID.TID 0000.0001)      sNx =    1 ; /* Tile size in X */
(PID.TID 0000.0001)      sNy =   16 ; /* Tile size in Y */
(PID.TID 0000.0001)      OLx =    3 ; /* Tile overlap distance in X */
(PID.TID 0000.0001)      OLy =    3 ; /* Tile overlap distance in Y */
(PID.TID 0000.0001)      nTx =    1 ; /* No. threads in X per process */
(PID.TID 0000.0001)      nTy =    1 ; /* No. threads in Y per process */
(PID.TID 0000.0001)       Nr =   25 ; /* No. levels in the vertical   */
(PID.TID 0000.0001)       Nx =    1 ; /* Total domain size in X ( = nPx*nSx*sNx ) */
(PID.TID 0000.0001)       Ny =   32 ; /* Total domain size in Y ( = nPy*nSy*sNy ) */
(PID.TID 0000.0001)   nTiles =    2 ; /* Total no. tiles per process ( = nSx*nSy ) */
(PID.TID 0000.0001)   nProcs =    1 ; /* Total no. processes ( = nPx*nPy ) */
(PID.TID 0000.0001) nThreads =    1 ; /* Total no. threads per process ( = nTx*nTy ) */
(PID.TID 0000.0001) usingMPI =    F ; /* Flag used to control whether MPI is in use */
(PID.TID 0000.0001)                   /*  note: To execute a program with MPI calls */
(PID.TID 0000.0001)                   /*  it must be launched appropriately e.g     */
(PID.TID 0000.0001)                   /*  "mpirun -np 64 ......"                    */
(PID.TID 0000.0001) useCoupler=   F ; /* Flag used to control communications with   */
(PID.TID 0000.0001)                   /*  other model components, through a coupler */
(PID.TID 0000.0001) useNest2W_parent =    F ;/* Control 2-W Nesting comm */
(PID.TID 0000.0001) useNest2W_child  =    F ;/* Control 2-W Nesting comm */
(PID.TID 0000.0001) debugMode =    F ; /* print debug msg. (sequence of S/R calls)  */
(PID.TID 0000.0001) printMapIncludesZeros=    F ; /* print zeros in Std.Output maps */
(PID.TID 0000.0001) maxLengthPrt1D=   65 /* maxLength of 1D array printed to StdOut */
(PID.TID 0000.0001) 
(PID.TID 0000.0001) // ======================================================
(PID.TID 0000.0001) // Mapping of tiles to threads
(PID.TID 0000.0001) // ======================================================
(PID.TID 0000.0001) // -o- Thread   1, tiles (   1:   1,   1:   2)
(PID.TID 0000.0001) 
(PID.TID 0000.0001) // ======================================================
(PID.TID 0000.0001) // Tile <-> Tile connectvity table
(PID.TID 0000.0001) // ======================================================
(PID.TID 0000.0001) // Tile number: 000001 (process no. = 000000)
(PID.TID 0000.0001) //        WEST: Tile = 000001, Process = 000000, Comm = put
(PID.TID 0000.0001) //                bi = 000001, bj = 000001
(PID.TID 0000.0001) //        EAST: Tile = 000001, Process = 000000, Comm = put
(PID.TID 0000.0001) //                bi = 000001, bj = 000001
(PID.TID 0000.0001) //       SOUTH: Tile = 000002, Process = 000000, Comm = put
(PID.TID 0000.0001) //                bi = 000001, bj = 000002
(PID.TID 0000.0001) //       NORTH: Tile = 000002, Process = 000000, Comm = put
(PID.TID 0000.0001) //                bi = 000001, bj = 000002
(PID.TID 0000.0001) // Tile number: 000002 (process no. = 000000)
(PID.TID 0000.0001) //        WEST: Tile = 000002, Process = 000000, Comm = put
(PID.TID 0000.0001) //                bi = 000001, bj = 000002
(PID.TID 0000.0001) //        EAST: Tile = 000002, Process = 000000, Comm = put
(PID.TID 0000.0001) //                bi = 000001, bj = 000002
(PID.TID 0000.0001) //       SOUTH: Tile = 000001, Process = 000000, Comm = put
(PID.TID 0000.0001) //                bi = 000001, bj = 000001
(PID.TID 0000.0001) //       NORTH: Tile = 000001, Process = 000000, Comm = put
(PID.TID 0000.0001) //                bi = 000001, bj = 000001
(PID.TID 0000.0001) 
(PID.TID 0000.0001)  INI_PARMS: opening model parameter file "data"
(PID.TID 0000.0001)  OPEN_COPY_DATA_FILE: opening file data
(PID.TID 0000.0001) // =======================================================
(PID.TID 0000.0001) // Parameter file "data"
(PID.TID 0000.0001) // =======================================================
(PID.TID 0000.0001) ># ====================
(PID.TID 0000.0001) ># | Model parameters |
(PID.TID 0000.0001) ># ====================
(PID.TID 0000.0001) >#
(PID.TID 0000.0001) ># Continuous equation parameters
(PID.TID 0000.0001) > &PARM01
(PID.TID 0000.0001) > tRef= 10*10.0, 9.9, 9.8, 9.7, 9.5, 9.4, 9.2, 9.0, 8.7, 8.4, 8.0, 7.6, 7.1, 6.5, 5.8, 5.2,
(PID.TID 0000.0001) > viscAr=2.E-4,
(PID.TID 0000.0001) > viscA4=12.E5,
(PID.TID 0000.0001) > no_slip_sides=.FALSE.,
(PID.TID 0000.0001) > no_slip_bottom=.TRUE.,
(PID.TID 0000.0001) > bottomDragLinear=1.E-3,
(PID.TID 0000.0001) >#bottomDragQuadratic=1.E-3,
(PID.TID 0000.0001) > diffKrT=2.E-5,
(PID.TID 0000.0001) > diffKrS=2.E-5,
(PID.TID 0000.0001) >#diffKrNrT=6*1.E-2, 19*2.E-5,
(PID.TID 0000.0001) >#diffKrNrS=6*1.E-2, 19*2.E-5,
(PID.TID 0000.0001) > diffKhT=0.E3,
(PID.TID 0000.0001) > diffKhS=0.E3,
(PID.TID 0000.0001) > beta=0.E-11,
(PID.TID 0000.0001) > f0  =1.E-4,
(PID.TID 0000.0001) > gravity=9.81,
(PID.TID 0000.0001) > eosType='LINEAR',
(PID.TID 0000.0001) > tAlpha=2.E-4,
(PID.TID 0000.0001) > sBeta =0.E-4,
(PID.TID 0000.0001) > rhoConst=1000.,
(PID.TID 0000.0001) > rhoNil=1000.,
(PID.TID 0000.0001) > rigidLid=.FALSE.,
(PID.TID 0000.0001) > implicitFreeSurface=.TRUE.,
(PID.TID 0000.0001) > implicitDiffusion=.TRUE.,
(PID.TID 0000.0001) > hFacMin= 0.05,
(PID.TID 0000.0001) >#hMixCriteria=-0.04,
(PID.TID 0000.0001) > hMixCriteria= 1.5,
(PID.TID 0000.0001) > readBinaryPrec=64,
(PID.TID 0000.0001) > writeBinaryPrec=64,
(PID.TID 0000.0001) > debugLevel=3,
(PID.TID 0000.0001) > plotLevel=0,
(PID.TID 0000.0001) > /
(PID.TID 0000.0001) >
(PID.TID 0000.0001) ># Elliptic solver parameters
(PID.TID 0000.0001) > &PARM02
(PID.TID 0000.0001) > cg2dMaxIters=1000,
(PID.TID 0000.0001) > cg2dTargetResidual=1.E-13,
(PID.TID 0000.0001) > /
(PID.TID 0000.0001) >
(PID.TID 0000.0001) ># Time stepping parameters
(PID.TID 0000.0001) > &PARM03
(PID.TID 0000.0001) > startTime=0.,
(PID.TID 0000.0001) >#nTimeSteps=8641,
(PID.TID 0000.0001) > nTimeSteps=25,
(PID.TID 0000.0001) > deltaT=3600.,
(PID.TID 0000.0001) > cAdjFreq=-1.,
(PID.TID 0000.0001) > abEps=0.1,
(PID.TID 0000.0001) > pChkptFreq=0.,
(PID.TID 0000.0001) > chkptFreq =0.,
(PID.TID 0000.0001) > dumpFreq=2592000.,
(PID.TID 0000.0001) >#monitorFreq=864000.,
(PID.TID 0000.0001) > monitorSelect=1,
(PID.TID 0000.0001) > monitorFreq=1.,
(PID.TID 0000.0001) > /
(PID.TID 0000.0001) >
(PID.TID 0000.0001) ># Gridding parameters
(PID.TID 0000.0001) > &PARM04
(PID.TID 0000.0001) > usingCartesianGrid=.TRUE.,
(PID.TID 0000.0001) > delR= 8*20.,  24.,  29.,  35.,  41.,  50.,  60.,  72.,
(PID.TID 0000.0001) >          86., 103., 124., 148., 178., 213., 256., 3*307.,
(PID.TID 0000.0001) > delX=1*1.E5,
(PID.TID 0000.0001) > delY=32*1.E5,
(PID.TID 0000.0001) > /
(PID.TID 0000.0001) >
(PID.TID 0000.0001) ># Input datasets
(PID.TID 0000.0001) > &PARM05
(PID.TID 0000.0001) > hydrogThetaFile='t_ini.bin',
(PID.TID 0000.0001) > hydrogSaltFile ='s_ini.bin',
(PID.TID 0000.0001) > uVelInitFile   ='u_ini.bin',
(PID.TID 0000.0001) > bathyFile      ='topo_slp.bin',
(PID.TID 0000.0001) > topoFile       ='top_bump.bin',
(PID.TID 0000.0001) > /
(PID.TID 0000.0001) 
(PID.TID 0000.0001)  INI_PARMS ; starts to read PARM01
(PID.TID 0000.0001)  INI_PARMS ; read PARM01 : OK
(PID.TID 0000.0001)  INI_PARMS ; starts to read PARM02
(PID.TID 0000.0001)  INI_PARMS ; read PARM02 : OK
(PID.TID 0000.0001)  INI_PARMS ; starts to read PARM03
(PID.TID 0000.0001)  INI_PARMS ; read PARM03 : OK
(PID.TID 0000.0001)  INI_PARMS ; starts to read PARM04
(PID.TID 0000.0001)  INI_PARMS ; read PARM04 : OK
(PID.TID 0000.0001)  INI_PARMS ; starts to read PARM05
(PID.TID 0000.0001)  INI_PARMS ; read PARM05 : OK
(PID.TID 0000.0001)  INI_PARMS: finished reading file "data"
(PID.TID 0000.0001)  PACKAGES_BOOT: opening data.pkg
(PID.TID 0000.0001)  OPEN_COPY_DATA_FILE: opening file data.pkg
(PID.TID 0000.0001) // =======================================================
(PID.TID 0000.0001) // Parameter file "data.pkg"
(PID.TID 0000.0001) // =======================================================
(PID.TID 0000.0001) ># Packages (lines beginning "#" are comments)
(PID.TID 0000.0001) > &PACKAGES
(PID.TID 0000.0001) >  useGMRedi=.TRUE.,
(PID.TID 0000.0001) >  useDiagnostics=.TRUE.,
(PID.TID 0000.0001) > /
(PID.TID 0000.0001) 
(PID.TID 0000.0001)  PACKAGES_BOOT: finished reading data.pkg
(PID.TID 0000.0001)  PACKAGES_BOOT: On/Off package Summary
 --------  pkgs with a standard "usePKG" On/Off switch in "data.pkg":  --------
 pkg/gmredi               compiled   and   used ( useGMRedi                = T )
 pkg/diagnostics          compiled   and   used ( useDiagnostics           = T )
 -------- pkgs without standard "usePKG" On/Off switch in "data.pkg":  --------
 pkg/generic_advdiff      compiled   and   used ( useGAD                   = T )
 pkg/mom_common           compiled   and   used ( momStepping              = T )
 pkg/mom_vecinv           compiled but not used ( +vectorInvariantMomentum = F )
 pkg/mom_fluxform         compiled   and   used ( & not vectorInvariantMom = T )
 pkg/monitor              compiled   and   used ( monitorFreq > 0.         = T )
 pkg/debug                compiled but not used ( debugMode                = F )
 pkg/rw                   compiled   and   used
 pkg/mdsio                compiled   and   used
(PID.TID 0000.0001)  PACKAGES_BOOT: End of package Summary
(PID.TID 0000.0001) 
(PID.TID 0000.0001)  GM_READPARMS: opening data.gmredi
(PID.TID 0000.0001)  OPEN_COPY_DATA_FILE: opening file data.gmredi
(PID.TID 0000.0001) // =======================================================
(PID.TID 0000.0001) // Parameter file "data.gmredi"
(PID.TID 0000.0001) // =======================================================
(PID.TID 0000.0001) ># GM-Redi parameters
(PID.TID 0000.0001) > &GM_PARM01
(PID.TID 0000.0001) > GM_AdvForm=.TRUE.,
(PID.TID 0000.0001) >#GM_useBVP = .TRUE.,
(PID.TID 0000.0001) > GM_BVP_modeNumber=5,
(PID.TID 0000.0001) > GM_background_K=1000.,
(PID.TID 0000.0001) >#GM_isopycK    = 1000.,
(PID.TID 0000.0001) >#GM_taper_scheme='orig',
(PID.TID 0000.0001) >#GM_taper_scheme='linear',
(PID.TID 0000.0001) >#GM_taper_scheme='gkw91',
(PID.TID 0000.0001) > GM_taper_scheme='ac02',
(PID.TID 0000.0001) >#GM_taper_scheme='dm95',
(PID.TID 0000.0001) >#GM_taper_scheme='ldd97',
(PID.TID 0000.0001) >#GM_taper_scheme='fm07',
(PID.TID 0000.0001) > GM_maxSlope    =1.E-02,
(PID.TID 0000.0001) > GM_facTrL2dz   = 0.,
(PID.TID 0000.0001) >#GM_facTrL2ML   = 5.,
(PID.TID 0000.0001) >#GM_maxTransLay = 500.,
(PID.TID 0000.0001) >#GM_useSubMeso = .TRUE.,
(PID.TID 0000.0001) >#subMeso_Ceff  = 3.e-2,
(PID.TID 0000.0001) >#subMeso_LfMin = 5.e+3,
(PID.TID 0000.0001) > /
(PID.TID 0000.0001) >
(PID.TID 0000.0001) 
(PID.TID 0000.0001)  GM_READPARMS: finished reading data.gmredi
(PID.TID 0000.0001)  DIAGNOSTICS_READPARMS: opening data.diagnostics
(PID.TID 0000.0001)  OPEN_COPY_DATA_FILE: opening file data.diagnostics
(PID.TID 0000.0001) // =======================================================
(PID.TID 0000.0001) // Parameter file "data.diagnostics"
(PID.TID 0000.0001) // =======================================================
(PID.TID 0000.0001) ># Diagnostic Package Choices
(PID.TID 0000.0001) >#--------------------
(PID.TID 0000.0001) >#  dumpAtLast (logical): always write output at the end of simulation (default=F)
(PID.TID 0000.0001) >#  diag_mnc   (logical): write to NetCDF files (default=useMNC)
(PID.TID 0000.0001) >#--for each output-stream:
(PID.TID 0000.0001) >#  fileName(n) : prefix of the output file name (max 80c long) for outp.stream n
(PID.TID 0000.0001) >#  frequency(n):< 0 : write snap-shot output every |frequency| seconds
(PID.TID 0000.0001) >#               > 0 : write time-average output every frequency seconds
(PID.TID 0000.0001) >#  timePhase(n)     : write at time = timePhase + multiple of |frequency|
(PID.TID 0000.0001) >#    averagingFreq  : frequency (in s) for periodic averaging interval
(PID.TID 0000.0001) >#    averagingPhase : phase     (in s) for periodic averaging interval
(PID.TID 0000.0001) >#    repeatCycle    : number of averaging intervals in 1 cycle
(PID.TID 0000.0001) >#  levels(:,n) : list of levels to write to file (Notes: declared as REAL)
(PID.TID 0000.0001) >#                when this entry is missing, select all common levels of this list
(PID.TID 0000.0001) >#  fields(:,n) : list of selected diagnostics fields (8.c) in outp.stream n
(PID.TID 0000.0001) >#                (see "available_diagnostics.log" file for the full list of diags)
(PID.TID 0000.0001) >#  missing_value(n) : missing value for real-type fields in output file "n"
(PID.TID 0000.0001) >#  fileFlags(n)     : specific code (8c string) for output file "n"
(PID.TID 0000.0001) >#--------------------
(PID.TID 0000.0001) > &DIAGNOSTICS_LIST
(PID.TID 0000.0001) ># diag_mnc     = .FALSE.,
(PID.TID 0000.0001) >  fields(1:4,1) = 'ETAN    ','DETADT2 ','PHIBOT  ',
(PID.TID 0000.0001) >                  'MXLDEPTH',
(PID.TID 0000.0001) >#                 'GM_BVPcW','GM_BVPcS',
(PID.TID 0000.0001) >#                 'SubMesLf','SubMpsiY',
(PID.TID 0000.0001) >#                 'GM_hTrsL','GM_baseS','GM_rLamb',
(PID.TID 0000.0001) >#                 'GM_VisbK',
(PID.TID 0000.0001) >   levels(1,1) = 1.,
(PID.TID 0000.0001) >  fileName(1) = 'surfDiag',
(PID.TID 0000.0001) >  frequency(1) = -86400.,
(PID.TID 0000.0001) >  timePhase(1) = 0.,
(PID.TID 0000.0001) >
(PID.TID 0000.0001) >  fields(1:7,2)  = 'UVEL    ','VVEL    ','WVEL    ','PHIHYD  ',
(PID.TID 0000.0001) >                   'THETA   ','THETASQ ','UVELSQ  ',
(PID.TID 0000.0001) ># do not specify levels => all levels are selected
(PID.TID 0000.0001) ># fileName(2) = 'dynDiag',
(PID.TID 0000.0001) >  frequency(2) = -864000.,
(PID.TID 0000.0001) >  timePhase(2) = 0.,
(PID.TID 0000.0001) >
(PID.TID 0000.0001) >  fields(1:8,3)  = 'DRHODR  ','RHOAnoma',
(PID.TID 0000.0001) >                   'GM_Kwy  ','GM_Kwz  ',
(PID.TID 0000.0001) >                   'GM_Kvy  ','GM_Kvz  ',
(PID.TID 0000.0001) >                   'GM_PsiY ','THETA   ',
(PID.TID 0000.0001) >  fileName(3) = 'oceDiag',
(PID.TID 0000.0001) >  frequency(3) = -86400.,
(PID.TID 0000.0001) >  timePhase(3) = 0.,
(PID.TID 0000.0001) >
(PID.TID 0000.0001) >  fields(1:5,4)  = 'ADVy_TH ','ADVr_TH ',
(PID.TID 0000.0001) >                   'DFyE_TH ','DFrE_TH ',
(PID.TID 0000.0001) >                   'DFrI_TH ',
(PID.TID 0000.0001) >#                  'ADVx_SLT',
(PID.TID 0000.0001) >#  fileName(4) = 'flxDiag',
(PID.TID 0000.0001) >  frequency(4) = 1728000.,
(PID.TID 0000.0001) > /
(PID.TID 0000.0001) >
(PID.TID 0000.0001) >#--------------------
(PID.TID 0000.0001) ># Parameter for Diagnostics of per level statistics:
(PID.TID 0000.0001) >#--------------------
(PID.TID 0000.0001) >#  diagSt_mnc (logical): write stat-diags to NetCDF files (default=diag_mnc)
(PID.TID 0000.0001) >#  diagSt_regMaskFile : file containing the region-mask to read-in
(PID.TID 0000.0001) >#  nSetRegMskFile   : number of region-mask sets within the region-mask file
(PID.TID 0000.0001) >#  set_regMask(i)   : region-mask set-index that identifies the region "i"
(PID.TID 0000.0001) >#  val_regMask(i)   : region "i" identifier value in the region mask
(PID.TID 0000.0001) >#--for each output-stream:
(PID.TID 0000.0001) >#  stat_fName(n) : prefix of the output file name (max 80c long) for outp.stream n
(PID.TID 0000.0001) >#  stat_freq(n):< 0 : write snap-shot output every |stat_freq| seconds
(PID.TID 0000.0001) >#               > 0 : write time-average output every stat_freq seconds
(PID.TID 0000.0001) >#  stat_phase(n)    : write at time = stat_phase + multiple of |stat_freq|
(PID.TID 0000.0001) >#  stat_region(:,n) : list of "regions" (default: 1 region only=global)
(PID.TID 0000.0001) >#  stat_fields(:,n) : list of selected diagnostics fields (8.c) in outp.stream n
(PID.TID 0000.0001) >#                (see "available_diagnostics.log" file for the full list of diags)
(PID.TID 0000.0001) >#--------------------
(PID.TID 0000.0001) > &DIAG_STATIS_PARMS
(PID.TID 0000.0001) ># stat_fields(1:13,1) = 'ETAN    ','UVEL    ','VVEL    ','WVEL    ', 'THETA   ',
(PID.TID 0000.0001) >#                       'MXLDEPTH','SubMesLf','SubMpsiY','GM_PsiY ',
(PID.TID 0000.0001) >#                       'GM_Kwy  ','GM_Kwz  ','GM_Kvy  ','GM_Kvz  ',
(PID.TID 0000.0001) >##                      'GM_hTrsL','GM_baseS','GM_rLamb',
(PID.TID 0000.0001) >## stat_fName(1) = 'dynStDiag',
(PID.TID 0000.0001) >#   stat_freq(1) = 18000.,
(PID.TID 0000.0001) >## stat_phase(1) = 0.,
(PID.TID 0000.0001) > /
(PID.TID 0000.0001) 
(PID.TID 0000.0001) S/R DIAGNOSTICS_READPARMS, read namelist "diagnostics_list": start
(PID.TID 0000.0001) S/R DIAGNOSTICS_READPARMS, read namelist "diagnostics_list": OK
(PID.TID 0000.0001) S/R DIAGNOSTICS_READPARMS, read namelist "DIAG_STATIS_PARMS": start
(PID.TID 0000.0001) S/R DIAGNOSTICS_READPARMS, read namelist "DIAG_STATIS_PARMS": OK
(PID.TID 0000.0001)  DIAGNOSTICS_READPARMS: global parameter summary:
(PID.TID 0000.0001)  dumpAtLast = /* always write time-ave diags at the end */
(PID.TID 0000.0001)                   F
(PID.TID 0000.0001)     ;
(PID.TID 0000.0001)  diag_mnc =   /* write NetCDF output files */
(PID.TID 0000.0001)                   F
(PID.TID 0000.0001)     ;
(PID.TID 0000.0001)  useMissingValue = /* put MissingValue where mask = 0 */
(PID.TID 0000.0001)                   F
(PID.TID 0000.0001)     ;
(PID.TID 0000.0001)  diagCG_maxIters = /* max number of iters in diag_cg2d */
(PID.TID 0000.0001)                    1000
(PID.TID 0000.0001)     ;
(PID.TID 0000.0001)  diagCG_resTarget = /* residual target for diag_cg2d */
(PID.TID 0000.0001)                 1.000000000000000E-13
(PID.TID 0000.0001)     ;
(PID.TID 0000.0001)  diagCG_pcOffDFac = /* preconditioner off-diagonal factor */
(PID.TID 0000.0001)                 9.611687812379854E-01
(PID.TID 0000.0001)     ;
(PID.TID 0000.0001) -----------------------------------------------------
(PID.TID 0000.0001)  DIAGNOSTICS_READPARMS: active diagnostics summary:
(PID.TID 0000.0001) -----------------------------------------------------
(PID.TID 0000.0001) Creating Output Stream: surfDiag
(PID.TID 0000.0001) Output Frequency:     -86400.000000 ; Phase:           0.000000
(PID.TID 0000.0001)  Averaging Freq.:          0.000000 , Phase:           0.000000 , Cycle:   1
(PID.TID 0000.0001)  missing value: -9.990000000000E+02
(PID.TID 0000.0001)  Levels:       1.
(PID.TID 0000.0001)  Fields:    ETAN     DETADT2  PHIBOT   MXLDEPTH
(PID.TID 0000.0001) Creating Output Stream: oceDiag
(PID.TID 0000.0001) Output Frequency:     -86400.000000 ; Phase:           0.000000
(PID.TID 0000.0001)  Averaging Freq.:          0.000000 , Phase:           0.000000 , Cycle:   1
(PID.TID 0000.0001)  missing value: -9.990000000000E+02
(PID.TID 0000.0001)  Levels:    will be set later
(PID.TID 0000.0001)  Fields:    DRHODR   RHOAnoma GM_Kwy   GM_Kwz   GM_Kvy   GM_Kvz   GM_PsiY  THETA
(PID.TID 0000.0001) -----------------------------------------------------
(PID.TID 0000.0001)  DIAGNOSTICS_READPARMS: statistics diags. summary:
(PID.TID 0000.0001) -----------------------------------------------------
(PID.TID 0000.0001) 
(PID.TID 0000.0001) SET_PARMS: done
(PID.TID 0000.0001) Enter INI_VERTICAL_GRID: setInterFDr=    T ; setCenterDr=    F
(PID.TID 0000.0001) %MON XC_max                       =   5.0000000000000E+04
(PID.TID 0000.0001) %MON XC_min                       =   5.0000000000000E+04
(PID.TID 0000.0001) %MON XC_mean                      =   5.0000000000000E+04
(PID.TID 0000.0001) %MON XC_sd                        =   0.0000000000000E+00
(PID.TID 0000.0001) %MON XG_max                       =   0.0000000000000E+00
(PID.TID 0000.0001) %MON XG_min                       =   0.0000000000000E+00
(PID.TID 0000.0001) %MON XG_mean                      =   0.0000000000000E+00
(PID.TID 0000.0001) %MON XG_sd                        =   0.0000000000000E+00
(PID.TID 0000.0001) %MON DXC_max                      =   1.0000000000000E+05
(PID.TID 0000.0001) %MON DXC_min                      =   1.0000000000000E+05
(PID.TID 0000.0001) %MON DXC_mean                     =   1.0000000000000E+05
(PID.TID 0000.0001) %MON DXC_sd                       =   0.0000000000000E+00
(PID.TID 0000.0001) %MON DXF_max                      =   1.0000000000000E+05
(PID.TID 0000.0001) %MON DXF_min                      =   1.0000000000000E+05
(PID.TID 0000.0001) %MON DXF_mean                     =   1.0000000000000E+05
(PID.TID 0000.0001) %MON DXF_sd                       =   0.0000000000000E+00
(PID.TID 0000.0001) %MON DXG_max                      =   1.0000000000000E+05
(PID.TID 0000.0001) %MON DXG_min                      =   1.0000000000000E+05
(PID.TID 0000.0001) %MON DXG_mean                     =   1.0000000000000E+05
(PID.TID 0000.0001) %MON DXG_sd                       =   0.0000000000000E+00
(PID.TID 0000.0001) %MON DXV_max                      =   1.0000000000000E+05
(PID.TID 0000.0001) %MON DXV_min                      =   1.0000000000000E+05
(PID.TID 0000.0001) %MON DXV_mean                     =   1.0000000000000E+05
(PID.TID 0000.0001) %MON DXV_sd                       =   0.0000000000000E+00
(PID.TID 0000.0001) %MON YC_max                       =   3.1500000000000E+06
(PID.TID 0000.0001) %MON YC_min                       =   5.0000000000000E+04
(PID.TID 0000.0001) %MON YC_mean                      =   1.6000000000000E+06
(PID.TID 0000.0001) %MON YC_sd                        =   9.2330926563097E+05
(PID.TID 0000.0001) %MON YG_max                       =   3.1000000000000E+06
(PID.TID 0000.0001) %MON YG_min                       =   0.0000000000000E+00
(PID.TID 0000.0001) %MON YG_mean                      =   1.5500000000000E+06
(PID.TID 0000.0001) %MON YG_sd                        =   9.2330926563097E+05
(PID.TID 0000.0001) %MON DYC_max                      =   1.0000000000000E+05
(PID.TID 0000.0001) %MON DYC_min                      =   1.0000000000000E+05
(PID.TID 0000.0001) %MON DYC_mean                     =   1.0000000000000E+05
(PID.TID 0000.0001) %MON DYC_sd                       =   0.0000000000000E+00
(PID.TID 0000.0001) %MON DYF_max                      =   1.0000000000000E+05
(PID.TID 0000.0001) %MON DYF_min                      =   1.0000000000000E+05
(PID.TID 0000.0001) %MON DYF_mean                     =   1.0000000000000E+05
(PID.TID 0000.0001) %MON DYF_sd                       =   0.0000000000000E+00
(PID.TID 0000.0001) %MON DYG_max                      =   1.0000000000000E+05
(PID.TID 0000.0001) %MON DYG_min                      =   1.0000000000000E+05
(PID.TID 0000.0001) %MON DYG_mean                     =   1.0000000000000E+05
(PID.TID 0000.0001) %MON DYG_sd                       =   0.0000000000000E+00
(PID.TID 0000.0001) %MON DYU_max                      =   1.0000000000000E+05
(PID.TID 0000.0001) %MON DYU_min                      =   1.0000000000000E+05
(PID.TID 0000.0001) %MON DYU_mean                     =   1.0000000000000E+05
(PID.TID 0000.0001) %MON DYU_sd                       =   0.0000000000000E+00
(PID.TID 0000.0001) %MON RA_max                       =   1.0000000000000E+10
(PID.TID 0000.0001) %MON RA_min                       =   1.0000000000000E+10
(PID.TID 0000.0001) %MON RA_mean                      =   1.0000000000000E+10
(PID.TID 0000.0001) %MON RA_sd                        =   0.0000000000000E+00
(PID.TID 0000.0001) %MON RAW_max                      =   1.0000000000000E+10
(PID.TID 0000.0001) %MON RAW_min                      =   1.0000000000000E+10
(PID.TID 0000.0001) %MON RAW_mean                     =   1.0000000000000E+10
(PID.TID 0000.0001) %MON RAW_sd                       =   0.0000000000000E+00
(PID.TID 0000.0001) %MON RAS_max                      =   1.0000000000000E+10
(PID.TID 0000.0001) %MON RAS_min                      =   1.0000000000000E+10
(PID.TID 0000.0001) %MON RAS_mean                     =   1.0000000000000E+10
(PID.TID 0000.0001) %MON RAS_sd                       =   0.0000000000000E+00
(PID.TID 0000.0001) %MON RAZ_max                      =   1.0000000000000E+10
(PID.TID 0000.0001) %MON RAZ_min                      =   1.0000000000000E+10
(PID.TID 0000.0001) %MON RAZ_mean                     =   1.0000000000000E+10
(PID.TID 0000.0001) %MON RAZ_sd                       =   0.0000000000000E+00
(PID.TID 0000.0001) %MON AngleCS_max                  =   1.0000000000000E+00
(PID.TID 0000.0001) %MON AngleCS_min                  =   1.0000000000000E+00
(PID.TID 0000.0001) %MON AngleCS_mean                 =   1.0000000000000E+00
(PID.TID 0000.0001) %MON AngleCS_sd                   =   0.0000000000000E+00
(PID.TID 0000.0001) %MON AngleSN_max                  =   0.0000000000000E+00
(PID.TID 0000.0001) %MON AngleSN_min                  =   0.0000000000000E+00
(PID.TID 0000.0001) %MON AngleSN_mean                 =   0.0000000000000E+00
(PID.TID 0000.0001) %MON AngleSN_sd                   =   0.0000000000000E+00
(PID.TID 0000.0001)  MDS_WRITEVEC_LOC: open file: RhoRef.data
(PID.TID 0000.0001)  MDS_READ_FIELD: opening global file: topo_slp.bin
(PID.TID 0000.0001)  MDS_READ_FIELD: opening global file: top_bump.bin
(PID.TID 0000.0001) GAD_INIT_FIXED: GAD_OlMinSize=  1  0  1
(PID.TID 0000.0001) 
(PID.TID 0000.0001) // ===================================
(PID.TID 0000.0001) // GAD parameters :
(PID.TID 0000.0001) // ===================================
(PID.TID 0000.0001) tempAdvScheme =   /* Temp. Horiz.Advection scheme selector */
(PID.TID 0000.0001)                       2
(PID.TID 0000.0001)     ;
(PID.TID 0000.0001) tempVertAdvScheme =   /* Temp. Vert. Advection scheme selector */
(PID.TID 0000.0001)                       2
(PID.TID 0000.0001)     ;
(PID.TID 0000.0001) tempMultiDimAdvec =   /* use Muti-Dim Advec method for Temp */
(PID.TID 0000.0001)                   F
(PID.TID 0000.0001)     ;
(PID.TID 0000.0001) tempSOM_Advection = /* use 2nd Order Moment Advection for Temp */
(PID.TID 0000.0001)                   F
(PID.TID 0000.0001)     ;
(PID.TID 0000.0001) AdamsBashforthGt = /* apply Adams-Bashforth extrapolation on Gt */
(PID.TID 0000.0001)                   T
(PID.TID 0000.0001)     ;
(PID.TID 0000.0001) AdamsBashforth_T = /* apply Adams-Bashforth extrapolation on Temp */
(PID.TID 0000.0001)                   F
(PID.TID 0000.0001)     ;
(PID.TID 0000.0001) saltAdvScheme =   /* Salt. Horiz.advection scheme selector */
(PID.TID 0000.0001)                       2
(PID.TID 0000.0001)     ;
(PID.TID 0000.0001) saltVertAdvScheme =   /* Salt. Vert. Advection scheme selector */
(PID.TID 0000.0001)                       2
(PID.TID 0000.0001)     ;
(PID.TID 0000.0001) saltMultiDimAdvec =   /* use Muti-Dim Advec method for Salt */
(PID.TID 0000.0001)                   F
(PID.TID 0000.0001)     ;
(PID.TID 0000.0001) saltSOM_Advection = /* use 2nd Order Moment Advection for Salt */
(PID.TID 0000.0001)                   F
(PID.TID 0000.0001)     ;
(PID.TID 0000.0001) AdamsBashforthGs = /* apply Adams-Bashforth extrapolation on Gs */
(PID.TID 0000.0001)                   T
(PID.TID 0000.0001)     ;
(PID.TID 0000.0001) AdamsBashforth_S = /* apply Adams-Bashforth extrapolation on Salt */
(PID.TID 0000.0001)                   F
(PID.TID 0000.0001)     ;
(PID.TID 0000.0001) // ===================================
(PID.TID 0000.0001) ------------------------------------------------------------
(PID.TID 0000.0001) DIAGNOSTICS_SET_LEVELS: done
(PID.TID 0000.0001)  Total Nb of available Diagnostics: ndiagt=   212
(PID.TID 0000.0001)  write list of available Diagnostics to file: available_diagnostics.log
(PID.TID 0000.0001) SETDIAG: Allocate  1 x  1 Levels for Diagnostic #    23 ETAN
(PID.TID 0000.0001) SETDIAG: Allocate  1 x  1 Levels for Diagnostic #    25 DETADT2
(PID.TID 0000.0001) SETDIAG: Allocate  1 x  1 Levels for Diagnostic #    73 PHIBOT
(PID.TID 0000.0001) SETDIAG: Allocate  1 x  1 Levels for Diagnostic #    76 MXLDEPTH
(PID.TID 0000.0001) SETDIAG: Allocate 25 x  1 Levels for Diagnostic #    77 DRHODR
(PID.TID 0000.0001) SETDIAG: Allocate 25 x  1 Levels for Diagnostic #    64 RHOAnoma
(PID.TID 0000.0001) SETDIAG: Allocate 25 x  1 Levels for Diagnostic #   202 GM_Kwy
(PID.TID 0000.0001) SETDIAG: Allocate 25 x  1 Levels for Diagnostic #   203 GM_Kwz
(PID.TID 0000.0001) SETDIAG: Allocate 25 x  1 Levels for Diagnostic #   198 GM_Kvy
(PID.TID 0000.0001) SETDIAG: Allocate 25 x  1 Levels for Diagnostic #   200 GM_Kvz
(PID.TID 0000.0001) SETDIAG: Allocate 25 x  1 Levels for Diagnostic #   205 GM_PsiY
(PID.TID 0000.0001) SETDIAG: Allocate 25 x  1 Levels for Diagnostic #    26 THETA
(PID.TID 0000.0001)   space allocated for all diagnostics:     204 levels
(PID.TID 0000.0001) DIAGNOSTICS_SET_POINTERS: Set levels for Outp.Stream: oceDiag
(PID.TID 0000.0001)  Levels:       1.   2.   3.   4.   5.   6.   7.   8.   9.  10.  11.  12.  13.  14.  15.  16.  17.  18.  19.  20.
(PID.TID 0000.0001)  Levels:      21.  22.  23.  24.  25.
(PID.TID 0000.0001) DIAGNOSTICS_SET_POINTERS: done
(PID.TID 0000.0001) ------------------------------------------------------------
(PID.TID 0000.0001) DIAGSTATS_SET_REGIONS: define no region
(PID.TID 0000.0001) ------------------------------------------------------------
(PID.TID 0000.0001)   space allocated for all stats-diags:       0 levels
(PID.TID 0000.0001) DIAGSTATS_SET_POINTERS: done
(PID.TID 0000.0001) ------------------------------------------------------------
(PID.TID 0000.0001) %MON fCori_max                    =   1.0000000000000E-04
(PID.TID 0000.0001) %MON fCori_min                    =   1.0000000000000E-04
(PID.TID 0000.0001) %MON fCori_mean                   =   1.0000000000000E-04
(PID.TID 0000.0001) %MON fCori_sd                     =   2.7105054312138E-20
(PID.TID 0000.0001) %MON fCoriG_max                   =   1.0000000000000E-04
(PID.TID 0000.0001) %MON fCoriG_min                   =   1.0000000000000E-04
(PID.TID 0000.0001) %MON fCoriG_mean                  =   1.0000000000000E-04
(PID.TID 0000.0001) %MON fCoriG_sd                    =   2.7105054312138E-20
(PID.TID 0000.0001) %MON fCoriCos_max                 =   0.0000000000000E+00
(PID.TID 0000.0001) %MON fCoriCos_min                 =   0.0000000000000E+00
(PID.TID 0000.0001) %MON fCoriCos_mean                =   0.0000000000000E+00
(PID.TID 0000.0001) %MON fCoriCos_sd                  =   0.0000000000000E+00
(PID.TID 0000.0001) INI_CG2D: CG2D normalisation factor =  4.0004203225612011E-04
(PID.TID 0000.0001) 
(PID.TID 0000.0001) // =======================================================
(PID.TID 0000.0001) // Model configuration
(PID.TID 0000.0001) // =======================================================
(PID.TID 0000.0001) //
(PID.TID 0000.0001) // "Physical" paramters ( PARM01 in namelist )
(PID.TID 0000.0001) //
(PID.TID 0000.0001) buoyancyRelation = /* Type of relation to get Buoyancy */
(PID.TID 0000.0001)               'OCEANIC'
(PID.TID 0000.0001)     ;
(PID.TID 0000.0001) fluidIsAir   =  /* fluid major constituent is Air */
(PID.TID 0000.0001)                   F
(PID.TID 0000.0001)     ;
(PID.TID 0000.0001) fluidIsWater =  /* fluid major constituent is Water */
(PID.TID 0000.0001)                   T
(PID.TID 0000.0001)     ;
(PID.TID 0000.0001) usingPCoords =  /* use p (or p*) vertical coordinate */
(PID.TID 0000.0001)                   F
(PID.TID 0000.0001)     ;
(PID.TID 0000.0001) usingZCoords =  /* use z (or z*) vertical coordinate */
(PID.TID 0000.0001)                   T
(PID.TID 0000.0001)     ;
(PID.TID 0000.0001) tRef =   /* Reference temperature profile ( oC or K ) */
(PID.TID 0000.0001)    10 @  1.000000000000000E+01,             /* K =  1: 10 */
(PID.TID 0000.0001)                 9.900000000000000E+00,      /* K = 11 */
(PID.TID 0000.0001)                 9.800000000000001E+00,      /* K = 12 */
(PID.TID 0000.0001)                 9.699999999999999E+00,      /* K = 13 */
(PID.TID 0000.0001)                 9.500000000000000E+00,      /* K = 14 */
(PID.TID 0000.0001)                 9.400000000000000E+00,      /* K = 15 */
(PID.TID 0000.0001)                 9.199999999999999E+00,      /* K = 16 */
(PID.TID 0000.0001)                 9.000000000000000E+00,      /* K = 17 */
(PID.TID 0000.0001)                 8.699999999999999E+00,      /* K = 18 */
(PID.TID 0000.0001)                 8.400000000000000E+00,      /* K = 19 */
(PID.TID 0000.0001)                 8.000000000000000E+00,      /* K = 20 */
(PID.TID 0000.0001)                 7.600000000000000E+00,      /* K = 21 */
(PID.TID 0000.0001)                 7.100000000000000E+00,      /* K = 22 */
(PID.TID 0000.0001)                 6.500000000000000E+00,      /* K = 23 */
(PID.TID 0000.0001)                 5.800000000000000E+00,      /* K = 24 */
(PID.TID 0000.0001)                 5.200000000000000E+00       /* K = 25 */
(PID.TID 0000.0001)     ;
(PID.TID 0000.0001) sRef =   /* Reference salinity profile ( g/kg ) */
(PID.TID 0000.0001)    25 @  3.000000000000000E+01              /* K =  1: 25 */
(PID.TID 0000.0001)     ;
(PID.TID 0000.0001) useStrainTensionVisc= /* Use StrainTension Form of Viscous Operator */
(PID.TID 0000.0001)                   F
(PID.TID 0000.0001)     ;
(PID.TID 0000.0001) useVariableVisc = /* Use variable horizontal viscosity */
(PID.TID 0000.0001)                   F
(PID.TID 0000.0001)     ;
(PID.TID 0000.0001) useHarmonicVisc = /* Use harmonic horizontal viscosity */
(PID.TID 0000.0001)                   F
(PID.TID 0000.0001)     ;
(PID.TID 0000.0001) useBiharmonicVisc= /* Use biharmonic horiz.  viscosity */
(PID.TID 0000.0001)                   T
(PID.TID 0000.0001)     ;
(PID.TID 0000.0001) useSmag3D = /* Use isotropic 3-D Smagorinsky viscosity */
(PID.TID 0000.0001)                   F
(PID.TID 0000.0001)     ;
(PID.TID 0000.0001) viscAh  =   /* Lateral harmonic viscosity ( m^2/s ) */
(PID.TID 0000.0001)                 0.000000000000000E+00
(PID.TID 0000.0001)     ;
(PID.TID 0000.0001) viscA4  =   /* Lateral biharmonic viscosity ( m^4/s ) */
(PID.TID 0000.0001)                 1.200000000000000E+06
(PID.TID 0000.0001)     ;
(PID.TID 0000.0001) no_slip_sides =  /* Viscous BCs: No-slip sides */
(PID.TID 0000.0001)                   F
(PID.TID 0000.0001)     ;
(PID.TID 0000.0001) sideDragFactor = /* side-drag scaling factor (non-dim) */
(PID.TID 0000.0001)                 2.000000000000000E+00
(PID.TID 0000.0001)     ;
(PID.TID 0000.0001) viscArNr = /* vertical profile of vertical viscosity ( m^2/s )*/
(PID.TID 0000.0001)    25 @  2.000000000000000E-04              /* K =  1: 25 */
(PID.TID 0000.0001)     ;
(PID.TID 0000.0001) no_slip_bottom =  /* Viscous BCs: No-slip bottom */
(PID.TID 0000.0001)                   T
(PID.TID 0000.0001)     ;
(PID.TID 0000.0001) bottomVisc_pCell = /* Partial-cell in bottom Visc. BC */
(PID.TID 0000.0001)                   F
(PID.TID 0000.0001)     ;
(PID.TID 0000.0001) bottomDragLinear = /* linear bottom-drag coefficient ( m/s ) */
(PID.TID 0000.0001)                 1.000000000000000E-03
(PID.TID 0000.0001)     ;
(PID.TID 0000.0001) bottomDragQuadratic = /* quadratic bottom-drag coefficient (-) */
(PID.TID 0000.0001)                 0.000000000000000E+00
(PID.TID 0000.0001)     ;
(PID.TID 0000.0001) selectBotDragQuadr = /* select quadratic bottom drag options */
(PID.TID 0000.0001)                      -1
(PID.TID 0000.0001)     ;
(PID.TID 0000.0001) diffKhT =   /* Laplacian diffusion of heat laterally ( m^2/s ) */
(PID.TID 0000.0001)                 0.000000000000000E+00
(PID.TID 0000.0001)     ;
(PID.TID 0000.0001) diffK4T =   /* Biharmonic diffusion of heat laterally ( m^4/s ) */
(PID.TID 0000.0001)                 0.000000000000000E+00
(PID.TID 0000.0001)     ;
(PID.TID 0000.0001) diffKhS =   /* Laplacian diffusion of salt laterally ( m^2/s ) */
(PID.TID 0000.0001)                 0.000000000000000E+00
(PID.TID 0000.0001)     ;
(PID.TID 0000.0001) diffK4S =   /* Biharmonic diffusion of salt laterally ( m^4/s ) */
(PID.TID 0000.0001)                 0.000000000000000E+00
(PID.TID 0000.0001)     ;
(PID.TID 0000.0001) diffKrNrT = /* vertical profile of vertical diffusion of Temp ( m^2/s )*/
(PID.TID 0000.0001)    25 @  2.000000000000000E-05              /* K =  1: 25 */
(PID.TID 0000.0001)     ;
(PID.TID 0000.0001) diffKrNrS = /* vertical profile of vertical diffusion of Salt ( m^2/s )*/
(PID.TID 0000.0001)    25 @  2.000000000000000E-05              /* K =  1: 25 */
(PID.TID 0000.0001)     ;
(PID.TID 0000.0001) diffKrBL79surf = /* Surface diffusion for Bryan and Lewis 79 ( m^2/s ) */
(PID.TID 0000.0001)                 0.000000000000000E+00
(PID.TID 0000.0001)     ;
(PID.TID 0000.0001) diffKrBL79deep = /* Deep diffusion for Bryan and Lewis 1979 ( m^2/s ) */
(PID.TID 0000.0001)                 0.000000000000000E+00
(PID.TID 0000.0001)     ;
(PID.TID 0000.0001) diffKrBL79scl = /* Depth scale for Bryan and Lewis 1979 ( m ) */
(PID.TID 0000.0001)                 2.000000000000000E+02
(PID.TID 0000.0001)     ;
(PID.TID 0000.0001) diffKrBL79Ho = /* Turning depth for Bryan and Lewis 1979 ( m ) */
(PID.TID 0000.0001)                -2.000000000000000E+03
(PID.TID 0000.0001)     ;
(PID.TID 0000.0001) ivdc_kappa = /* Implicit Vertical Diffusivity for Convection ( m^2/s) */
(PID.TID 0000.0001)                 0.000000000000000E+00
(PID.TID 0000.0001)     ;
(PID.TID 0000.0001) hMixCriteria=  /* Criteria for mixed-layer diagnostic */
(PID.TID 0000.0001)                 1.500000000000000E+00
(PID.TID 0000.0001)     ;
(PID.TID 0000.0001) dRhoSmall =  /* Parameter for mixed-layer diagnostic */
(PID.TID 0000.0001)                 1.000000000000000E-06
(PID.TID 0000.0001)     ;
(PID.TID 0000.0001) hMixSmooth=  /* Smoothing parameter for mixed-layer diagnostic */
(PID.TID 0000.0001)                 0.000000000000000E+00
(PID.TID 0000.0001)     ;
(PID.TID 0000.0001) eosType =  /* Type of Equation of State */
(PID.TID 0000.0001)               'LINEAR'
(PID.TID 0000.0001)     ;
(PID.TID 0000.0001) tAlpha = /* Linear EOS thermal expansion coefficient ( 1/oC ) */
(PID.TID 0000.0001)                 2.000000000000000E-04
(PID.TID 0000.0001)     ;
(PID.TID 0000.0001) sBeta  = /* Linear EOS haline contraction coefficient ( 1/(g/kg) ) */
(PID.TID 0000.0001)                 0.000000000000000E+00
(PID.TID 0000.0001)     ;
(PID.TID 0000.0001) rhoNil    = /* Reference density for Linear EOS ( kg/m^3 ) */
(PID.TID 0000.0001)                 1.000000000000000E+03
(PID.TID 0000.0001)     ;
(PID.TID 0000.0001) selectP_inEOS_Zc = /* select pressure to use in EOS (0,1,2,3) */
(PID.TID 0000.0001)                       0
(PID.TID 0000.0001)     0= -g*rhoConst*z ; 1= pRef (from tRef,sRef); 2= Hyd P ; 3= Hyd+NH P
(PID.TID 0000.0001)     ;
(PID.TID 0000.0001) surf_pRef = /* Surface reference pressure ( Pa ) */
(PID.TID 0000.0001)                 1.013250000000000E+05
(PID.TID 0000.0001)     ;
(PID.TID 0000.0001) HeatCapacity_Cp =  /* Specific heat capacity ( J/kg/K ) */
(PID.TID 0000.0001)                 3.994000000000000E+03
(PID.TID 0000.0001)     ;
(PID.TID 0000.0001) celsius2K = /* 0 degree Celsius converted to Kelvin ( K ) */
(PID.TID 0000.0001)                 2.731500000000000E+02
(PID.TID 0000.0001)     ;
(PID.TID 0000.0001) rhoConst  = /* Reference density (Boussinesq)  ( kg/m^3 ) */
(PID.TID 0000.0001)                 1.000000000000000E+03
(PID.TID 0000.0001)     ;
(PID.TID 0000.0001) rhoFacC = /* normalized Reference density @ cell-Center (-) */
(PID.TID 0000.0001)    25 @  1.000000000000000E+00              /* K =  1: 25 */
(PID.TID 0000.0001)     ;
(PID.TID 0000.0001) rhoFacF = /* normalized Reference density @ W-Interface (-) */
(PID.TID 0000.0001)    26 @  1.000000000000000E+00              /* K =  1: 26 */
(PID.TID 0000.0001)     ;
(PID.TID 0000.0001) rhoConstFresh = /* Fresh-water reference density ( kg/m^3 ) */
(PID.TID 0000.0001)                 1.000000000000000E+03
(PID.TID 0000.0001)     ;
(PID.TID 0000.0001) gravity =   /* Gravitational acceleration ( m/s^2 ) */
(PID.TID 0000.0001)                 9.810000000000000E+00
(PID.TID 0000.0001)     ;
(PID.TID 0000.0001) gBaro =   /* Barotropic gravity ( m/s^2 ) */
(PID.TID 0000.0001)                 9.810000000000000E+00
(PID.TID 0000.0001)     ;
(PID.TID 0000.0001) gravFacC = /* gravity factor (vs surf.) @ cell-Center (-) */
(PID.TID 0000.0001)    25 @  1.000000000000000E+00              /* K =  1: 25 */
(PID.TID 0000.0001)     ;
(PID.TID 0000.0001) gravFacF = /* gravity factor (vs surf.) @ W-Interface (-) */
(PID.TID 0000.0001)    26 @  1.000000000000000E+00              /* K =  1: 26 */
(PID.TID 0000.0001)     ;
(PID.TID 0000.0001) rotationPeriod =   /* Rotation Period ( s ) */
(PID.TID 0000.0001)                 8.616400000000000E+04
(PID.TID 0000.0001)     ;
(PID.TID 0000.0001) omega =   /* Angular velocity ( rad/s ) */
(PID.TID 0000.0001)                 7.292123516990375E-05
(PID.TID 0000.0001)     ;
(PID.TID 0000.0001) f0 =   /* Reference coriolis parameter ( 1/s ) */
(PID.TID 0000.0001)                 1.000000000000000E-04
(PID.TID 0000.0001)     ;
(PID.TID 0000.0001) beta =   /* Beta ( 1/(m.s) ) */
(PID.TID 0000.0001)                 0.000000000000000E+00
(PID.TID 0000.0001)     ;
(PID.TID 0000.0001) fPrime =   /* Second coriolis parameter ( 1/s ) */
(PID.TID 0000.0001)                 0.000000000000000E+00
(PID.TID 0000.0001)     ;
(PID.TID 0000.0001) rigidLid =   /* Rigid lid on/off flag */
(PID.TID 0000.0001)                   F
(PID.TID 0000.0001)     ;
(PID.TID 0000.0001) implicitFreeSurface =   /* Implicit free surface on/off flag */
(PID.TID 0000.0001)                   T
(PID.TID 0000.0001)     ;
(PID.TID 0000.0001) freeSurfFac =   /* Implicit free surface factor */
(PID.TID 0000.0001)                 1.000000000000000E+00
(PID.TID 0000.0001)     ;
(PID.TID 0000.0001) implicSurfPress =  /* Surface Pressure implicit factor (0-1) */
(PID.TID 0000.0001)                 1.000000000000000E+00
(PID.TID 0000.0001)     ;
(PID.TID 0000.0001) implicDiv2DFlow =  /* Barot. Flow Div. implicit factor (0-1) */
(PID.TID 0000.0001)                 1.000000000000000E+00
(PID.TID 0000.0001)     ;
(PID.TID 0000.0001) uniformLin_PhiSurf = /* use uniform Bo_surf on/off flag */
(PID.TID 0000.0001)                   T
(PID.TID 0000.0001)     ;
(PID.TID 0000.0001) uniformFreeSurfLev = /* free-surface level-index is uniform */
(PID.TID 0000.0001)                   F
(PID.TID 0000.0001)     ;
(PID.TID 0000.0001) sIceLoadFac =  /* scale factor for sIceLoad (0-1) */
(PID.TID 0000.0001)                 1.000000000000000E+00
(PID.TID 0000.0001)     ;
(PID.TID 0000.0001) hFacMin =   /* minimum partial cell factor (hFac) */
(PID.TID 0000.0001)                 5.000000000000000E-02
(PID.TID 0000.0001)     ;
(PID.TID 0000.0001) hFacMinDr = /* minimum partial cell thickness ( m) */
(PID.TID 0000.0001)                 0.000000000000000E+00
(PID.TID 0000.0001)     ;
(PID.TID 0000.0001) exactConserv =  /* Exact Volume Conservation on/off flag */
(PID.TID 0000.0001)                   F
(PID.TID 0000.0001)     ;
(PID.TID 0000.0001) linFSConserveTr = /* Tracer correction for Lin Free Surface on/off flag */
(PID.TID 0000.0001)                   F
(PID.TID 0000.0001)     ;
(PID.TID 0000.0001) nonlinFreeSurf = /* Non-linear Free Surf. options (-1,0,1,2,3)*/
(PID.TID 0000.0001)                       0
(PID.TID 0000.0001)      -1,0= Off ; 1,2,3= On, 2=+rescale gU,gV, 3=+update cg2d solv.
(PID.TID 0000.0001)     ;
(PID.TID 0000.0001) hFacInf =   /* lower threshold for hFac (nonlinFreeSurf only)*/
(PID.TID 0000.0001)                 2.000000000000000E-01
(PID.TID 0000.0001)     ;
(PID.TID 0000.0001) hFacSup =   /* upper threshold for hFac (nonlinFreeSurf only)*/
(PID.TID 0000.0001)                 2.000000000000000E+00
(PID.TID 0000.0001)     ;
(PID.TID 0000.0001) select_rStar = /* r* Vertical coord. options (=0 r coord.; >0 uses r*)*/
(PID.TID 0000.0001)                       0
(PID.TID 0000.0001)     ;
(PID.TID 0000.0001) useRealFreshWaterFlux = /* Real Fresh Water Flux on/off flag*/
(PID.TID 0000.0001)                   F
(PID.TID 0000.0001)     ;
(PID.TID 0000.0001) temp_EvPrRn = /* Temp. of Evap/Prec/R (UNSET=use local T)(oC)*/
(PID.TID 0000.0001)                 1.234567000000000E+05
(PID.TID 0000.0001)     ;
(PID.TID 0000.0001) salt_EvPrRn = /* Salin. of Evap/Prec/R (UNSET=use local S)(g/kg)*/
(PID.TID 0000.0001)                 0.000000000000000E+00
(PID.TID 0000.0001)     ;
(PID.TID 0000.0001) selectAddFluid = /* option for mass source/sink of fluid (=0: off) */
(PID.TID 0000.0001)                       0
(PID.TID 0000.0001)     ;
(PID.TID 0000.0001) temp_addMass = /* Temp. of addMass array (UNSET=use local T)(oC)*/
(PID.TID 0000.0001)                 1.234567000000000E+05
(PID.TID 0000.0001)     ;
(PID.TID 0000.0001) salt_addMass = /* Salin. of addMass array (UNSET=use local S)(g/kg)*/
(PID.TID 0000.0001)                 0.000000000000000E+00
(PID.TID 0000.0001)     ;
(PID.TID 0000.0001) convertFW2Salt = /* convert F.W. Flux to Salt Flux (-1=use local S)(g/kg)*/
(PID.TID 0000.0001)                 3.500000000000000E+01
(PID.TID 0000.0001)     ;
(PID.TID 0000.0001) use3Dsolver = /* use 3-D pressure solver on/off flag */
(PID.TID 0000.0001)                   F
(PID.TID 0000.0001)     ;
(PID.TID 0000.0001) nonHydrostatic =  /* Non-Hydrostatic on/off flag */
(PID.TID 0000.0001)                   F
(PID.TID 0000.0001)     ;
(PID.TID 0000.0001) nh_Am2 = /* Non-Hydrostatic terms scaling factor */
(PID.TID 0000.0001)                 1.000000000000000E+00
(PID.TID 0000.0001)     ;
(PID.TID 0000.0001) implicitNHPress = /* Non-Hyd Pressure implicit factor (0-1)*/
(PID.TID 0000.0001)                 1.000000000000000E+00
(PID.TID 0000.0001)     ;
(PID.TID 0000.0001) selectNHfreeSurf = /* Non-Hyd (free-)Surface option */
(PID.TID 0000.0001)                       0
(PID.TID 0000.0001)     ;
(PID.TID 0000.0001) quasiHydrostatic = /* Quasi-Hydrostatic on/off flag */
(PID.TID 0000.0001)                   F
(PID.TID 0000.0001)     ;
(PID.TID 0000.0001) calc_wVelocity = /* vertical velocity calculation on/off flag */
(PID.TID 0000.0001)                   T
(PID.TID 0000.0001)     ;
(PID.TID 0000.0001) momStepping =  /* Momentum equation on/off flag */
(PID.TID 0000.0001)                   T
(PID.TID 0000.0001)     ;
(PID.TID 0000.0001) vectorInvariantMomentum= /* Vector-Invariant Momentum on/off */
(PID.TID 0000.0001)                   F
(PID.TID 0000.0001)     ;
(PID.TID 0000.0001) momAdvection =  /* Momentum advection on/off flag */
(PID.TID 0000.0001)                   T
(PID.TID 0000.0001)     ;
(PID.TID 0000.0001) momViscosity =  /* Momentum viscosity on/off flag */
(PID.TID 0000.0001)                   T
(PID.TID 0000.0001)     ;
(PID.TID 0000.0001) momImplVertAdv= /* Momentum implicit vert. advection on/off*/
(PID.TID 0000.0001)                   F
(PID.TID 0000.0001)     ;
(PID.TID 0000.0001) implicitViscosity = /* Implicit viscosity on/off flag */
(PID.TID 0000.0001)                   F
(PID.TID 0000.0001)     ;
(PID.TID 0000.0001) selectImplicitDrag= /* Implicit bot Drag options (0,1,2)*/
(PID.TID 0000.0001)                       0
(PID.TID 0000.0001)     0= Expl. ; 1= Impl. on provis. Vel ; 2= Fully Impl (with surf.P)
(PID.TID 0000.0001)     ;
(PID.TID 0000.0001) metricTerms =  /* metric-Terms on/off flag */
(PID.TID 0000.0001)                   F
(PID.TID 0000.0001)     ;
(PID.TID 0000.0001) useNHMTerms = /* Non-Hydrostatic Metric-Terms on/off */
(PID.TID 0000.0001)                   F
(PID.TID 0000.0001)     ;
(PID.TID 0000.0001) selectCoriMap = /* Coriolis Map options (0,1,2,3)*/
(PID.TID 0000.0001)                       1
(PID.TID 0000.0001)     0= f-Plane ; 1= Beta-Plane ; 2= Spherical ; 3= read from file
(PID.TID 0000.0001)     ;
(PID.TID 0000.0001) use3dCoriolis = /* 3-D Coriolis on/off flag */
(PID.TID 0000.0001)                   F
(PID.TID 0000.0001)     ;
(PID.TID 0000.0001) useCoriolis =  /* Coriolis on/off flag */
(PID.TID 0000.0001)                   T
(PID.TID 0000.0001)     ;
(PID.TID 0000.0001) useCDscheme =  /* CD scheme on/off flag */
(PID.TID 0000.0001)                   F
(PID.TID 0000.0001)     ;
(PID.TID 0000.0001) selectCoriScheme= /* Scheme selector for Coriolis-Term */
(PID.TID 0000.0001)                       0
(PID.TID 0000.0001)    = 0 : original discretization (simple averaging, no hFac)
(PID.TID 0000.0001)    = 1 : Wet-point averaging (Jamar & Ozer 1986)
(PID.TID 0000.0001)    = 2 : energy conserving scheme (no hFac weight)
(PID.TID 0000.0001)    = 3 : energy conserving scheme using Wet-point averaging
(PID.TID 0000.0001)     ;
(PID.TID 0000.0001) momForcing =  /* Momentum forcing on/off flag */
(PID.TID 0000.0001)                   T
(PID.TID 0000.0001)     ;
(PID.TID 0000.0001) momTidalForcing = /* Momentum Tidal forcing on/off flag */
(PID.TID 0000.0001)                   T
(PID.TID 0000.0001)     ;
(PID.TID 0000.0001) momPressureForcing =  /* Momentum pressure term on/off flag */
(PID.TID 0000.0001)                   T
(PID.TID 0000.0001)     ;
(PID.TID 0000.0001) implicitIntGravWave= /* Implicit Internal Gravity Wave flag */
(PID.TID 0000.0001)                   F
(PID.TID 0000.0001)     ;
(PID.TID 0000.0001) staggerTimeStep =    /* Stagger time stepping on/off flag */
(PID.TID 0000.0001)                   F
(PID.TID 0000.0001)     ;
(PID.TID 0000.0001) doResetHFactors = /* reset thickness factors @ each time-step */
(PID.TID 0000.0001)                   F
(PID.TID 0000.0001)     ;
(PID.TID 0000.0001) multiDimAdvection =  /* enable/disable Multi-Dim Advection */
(PID.TID 0000.0001)                   T
(PID.TID 0000.0001)     ;
(PID.TID 0000.0001) useMultiDimAdvec =   /* Multi-Dim Advection is/is-not used */
(PID.TID 0000.0001)                   F
(PID.TID 0000.0001)     ;
(PID.TID 0000.0001) implicitDiffusion = /* Implicit Diffusion on/off flag */
(PID.TID 0000.0001)                   T
(PID.TID 0000.0001)     ;
(PID.TID 0000.0001) tempStepping =  /* Temperature equation on/off flag */
(PID.TID 0000.0001)                   T
(PID.TID 0000.0001)     ;
(PID.TID 0000.0001) tempAdvection = /* Temperature advection on/off flag */
(PID.TID 0000.0001)                   T
(PID.TID 0000.0001)     ;
(PID.TID 0000.0001) tempImplVertAdv = /* Temp. implicit vert. advection on/off */
(PID.TID 0000.0001)                   F
(PID.TID 0000.0001)     ;
(PID.TID 0000.0001) tempForcing  =  /* Temperature forcing on/off flag */
(PID.TID 0000.0001)                   T
(PID.TID 0000.0001)     ;
(PID.TID 0000.0001) doThetaClimRelax = /* apply SST relaxation on/off flag */
(PID.TID 0000.0001)                   F
(PID.TID 0000.0001)     ;
(PID.TID 0000.0001) tempIsActiveTr = /* Temp. is a dynamically Active Tracer */
(PID.TID 0000.0001)                   T
(PID.TID 0000.0001)     ;
(PID.TID 0000.0001) saltStepping =  /* Salinity equation on/off flag */
(PID.TID 0000.0001)                   T
(PID.TID 0000.0001)     ;
(PID.TID 0000.0001) saltAdvection = /* Salinity advection on/off flag */
(PID.TID 0000.0001)                   T
(PID.TID 0000.0001)     ;
(PID.TID 0000.0001) saltImplVertAdv = /* Sali. implicit vert. advection on/off */
(PID.TID 0000.0001)                   F
(PID.TID 0000.0001)     ;
(PID.TID 0000.0001) saltForcing  =  /* Salinity forcing on/off flag */
(PID.TID 0000.0001)                   T
(PID.TID 0000.0001)     ;
(PID.TID 0000.0001) doSaltClimRelax = /* apply SSS relaxation on/off flag */
(PID.TID 0000.0001)                   F
(PID.TID 0000.0001)     ;
(PID.TID 0000.0001) saltIsActiveTr = /* Salt  is a dynamically Active Tracer */
(PID.TID 0000.0001)                   F
(PID.TID 0000.0001)     ;
(PID.TID 0000.0001)  readBinaryPrec = /* Precision used for reading binary files */
(PID.TID 0000.0001)                      64
(PID.TID 0000.0001)     ;
(PID.TID 0000.0001) writeBinaryPrec = /* Precision used for writing binary files */
(PID.TID 0000.0001)                      64
(PID.TID 0000.0001)     ;
(PID.TID 0000.0001)  rwSuffixType =   /* select format of mds file suffix */
(PID.TID 0000.0001)                       0
(PID.TID 0000.0001)    = 0 : myIter (I10.10) ;   = 1 : 100*myTime (100th sec) ;
(PID.TID 0000.0001)    = 2 : myTime (seconds);   = 3 : myTime/360 (10th of hr);
(PID.TID 0000.0001)    = 4 : myTime/3600 (hours)
(PID.TID 0000.0001)     ;
(PID.TID 0000.0001)  globalFiles = /* write "global" (=not per tile) files */
(PID.TID 0000.0001)                   F
(PID.TID 0000.0001)     ;
(PID.TID 0000.0001)  useSingleCpuIO = /* only master MPI process does I/O */
(PID.TID 0000.0001)                   F
(PID.TID 0000.0001)     ;
(PID.TID 0000.0001)  useSingleCpuInput = /* only master process reads input */
(PID.TID 0000.0001)                   F
(PID.TID 0000.0001)     ;
(PID.TID 0000.0001) /* debLev[*]  : level of debug & auxiliary message printing */
(PID.TID 0000.0001) debLevZero =  0 ; /* level of disabled aux. msg printing */
(PID.TID 0000.0001)    debLevA =  1 ; /* level of minimum  aux. msg printing */
(PID.TID 0000.0001)    debLevB =  2 ; /* level of low aux. print (report read-file opening)*/
(PID.TID 0000.0001)    debLevC =  3 ; /* level of moderate debug prt (most pkgs debug msg) */
(PID.TID 0000.0001)    debLevD =  4 ; /* level of enhanced debug prt (add DEBUG_STATS prt) */
(PID.TID 0000.0001)    debLevE =  5 ; /* level of extensive debug printing */
(PID.TID 0000.0001) debugLevel =  /* select debug printing level */
(PID.TID 0000.0001)                       3
(PID.TID 0000.0001)     ;
(PID.TID 0000.0001)  plotLevel =  /* select PLOT_FIELD printing level */
(PID.TID 0000.0001)                       0
(PID.TID 0000.0001)     ;
(PID.TID 0000.0001) //
(PID.TID 0000.0001) // Elliptic solver(s) paramters ( PARM02 in namelist )
(PID.TID 0000.0001) //
(PID.TID 0000.0001) cg2dMaxIters =   /* Upper limit on 2d con. grad iterations  */
(PID.TID 0000.0001)                    1000
(PID.TID 0000.0001)     ;
(PID.TID 0000.0001) cg2dMinItersNSA =   /* Minimum number of iterations of 2d con. grad solver  */
(PID.TID 0000.0001)                       0
(PID.TID 0000.0001)     ;
(PID.TID 0000.0001) cg2dUseMinResSol= /* use cg2d last-iter(=0) / min-resid.(=1) solution */
(PID.TID 0000.0001)                       0
(PID.TID 0000.0001)     ;
(PID.TID 0000.0001) cg2dTargetResidual =   /* 2d con. grad target residual  */
(PID.TID 0000.0001)                 1.000000000000000E-13
(PID.TID 0000.0001)     ;
(PID.TID 0000.0001) cg2dTargetResWunit =   /* CG2d target residual [W units] */
(PID.TID 0000.0001)                -1.000000000000000E+00
(PID.TID 0000.0001)     ;
(PID.TID 0000.0001) cg2dPreCondFreq =   /* Freq. for updating cg2d preconditioner */
(PID.TID 0000.0001)                       1
(PID.TID 0000.0001)     ;
(PID.TID 0000.0001) useSRCGSolver =  /* use single reduction CG solver(s) */
(PID.TID 0000.0001)                   F
(PID.TID 0000.0001)     ;
(PID.TID 0000.0001) useNSACGSolver =  /* use not-self-adjoint CG solver */
(PID.TID 0000.0001)                   F
(PID.TID 0000.0001)     ;
(PID.TID 0000.0001) printResidualFreq = /* Freq. for printing CG residual */
(PID.TID 0000.0001)                       0
(PID.TID 0000.0001)     ;
(PID.TID 0000.0001) //
(PID.TID 0000.0001) // Time stepping paramters ( PARM03 in namelist )
(PID.TID 0000.0001) //
(PID.TID 0000.0001) deltaTMom =   /* Momentum equation timestep ( s ) */
(PID.TID 0000.0001)                 3.600000000000000E+03
(PID.TID 0000.0001)     ;
(PID.TID 0000.0001) deltaTFreeSurf = /* FreeSurface equation timestep ( s ) */
(PID.TID 0000.0001)                 3.600000000000000E+03
(PID.TID 0000.0001)     ;
(PID.TID 0000.0001) dTtracerLev =  /* Tracer equation timestep ( s ) */
(PID.TID 0000.0001)    25 @  3.600000000000000E+03              /* K =  1: 25 */
(PID.TID 0000.0001)     ;
(PID.TID 0000.0001) deltaTClock  =   /* Model clock timestep ( s ) */
(PID.TID 0000.0001)                 3.600000000000000E+03
(PID.TID 0000.0001)     ;
(PID.TID 0000.0001) cAdjFreq =   /* Convective adjustment interval ( s ) */
(PID.TID 0000.0001)                 3.600000000000000E+03
(PID.TID 0000.0001)     ;
(PID.TID 0000.0001) momForcingOutAB = /* =1: take Momentum Forcing out of Adams-Bash. stepping */
(PID.TID 0000.0001)                       0
(PID.TID 0000.0001)     ;
(PID.TID 0000.0001) tracForcingOutAB = /* =1: take T,S,pTr Forcing out of Adams-Bash. stepping */
(PID.TID 0000.0001)                       0
(PID.TID 0000.0001)     ;
(PID.TID 0000.0001) momDissip_In_AB = /* put Dissipation Tendency in Adams-Bash. stepping */
(PID.TID 0000.0001)                   T
(PID.TID 0000.0001)     ;
(PID.TID 0000.0001) doAB_onGtGs = /* apply AB on Tendencies (rather than on T,S)*/
(PID.TID 0000.0001)                   T
(PID.TID 0000.0001)     ;
(PID.TID 0000.0001) abEps =   /* Adams-Bashforth-2 stabilizing weight */
(PID.TID 0000.0001)                 1.000000000000000E-01
(PID.TID 0000.0001)     ;
(PID.TID 0000.0001) applyExchUV_early = /* Apply EXCH to U,V earlier in time-step */
(PID.TID 0000.0001)                   F
(PID.TID 0000.0001)     ;
(PID.TID 0000.0001) pickupStrictlyMatch= /* stop if pickup do not strictly match */
(PID.TID 0000.0001)                   T
(PID.TID 0000.0001)     ;
(PID.TID 0000.0001) nIter0   =   /* Run starting timestep number */
(PID.TID 0000.0001)                       0
(PID.TID 0000.0001)     ;
(PID.TID 0000.0001) nTimeSteps = /* Number of timesteps */
(PID.TID 0000.0001)                      25
(PID.TID 0000.0001)     ;
(PID.TID 0000.0001) nEndIter =   /* Run ending timestep number */
(PID.TID 0000.0001)                      25
(PID.TID 0000.0001)     ;
(PID.TID 0000.0001) baseTime =   /* Model base time ( s ) */
(PID.TID 0000.0001)                 0.000000000000000E+00
(PID.TID 0000.0001)     ;
(PID.TID 0000.0001) startTime =  /* Run start time ( s ) */
(PID.TID 0000.0001)                 0.000000000000000E+00
(PID.TID 0000.0001)     ;
(PID.TID 0000.0001) endTime  =   /* Integration ending time ( s ) */
(PID.TID 0000.0001)                 9.000000000000000E+04
(PID.TID 0000.0001)     ;
(PID.TID 0000.0001) pChkPtFreq = /* Permanent restart/pickup file interval ( s ) */
(PID.TID 0000.0001)                 0.000000000000000E+00
(PID.TID 0000.0001)     ;
(PID.TID 0000.0001) chkPtFreq  = /* Rolling restart/pickup file interval ( s ) */
(PID.TID 0000.0001)                 0.000000000000000E+00
(PID.TID 0000.0001)     ;
(PID.TID 0000.0001) pickup_write_mdsio =   /* Model IO flag. */
(PID.TID 0000.0001)                   T
(PID.TID 0000.0001)     ;
(PID.TID 0000.0001) pickup_read_mdsio =   /* Model IO flag. */
(PID.TID 0000.0001)                   T
(PID.TID 0000.0001)     ;
(PID.TID 0000.0001) writePickupAtEnd =   /* Model IO flag. */
(PID.TID 0000.0001)                   T
(PID.TID 0000.0001)     ;
(PID.TID 0000.0001) dumpFreq =   /* Model state write out interval ( s ). */
(PID.TID 0000.0001)                 2.592000000000000E+06
(PID.TID 0000.0001)     ;
(PID.TID 0000.0001) dumpInitAndLast= /* write out Initial & Last iter. model state */
(PID.TID 0000.0001)                   T
(PID.TID 0000.0001)     ;
(PID.TID 0000.0001) snapshot_mdsio =   /* Model IO flag. */
(PID.TID 0000.0001)                   T
(PID.TID 0000.0001)     ;
(PID.TID 0000.0001) monitorFreq =   /* Monitor output interval ( s ). */
(PID.TID 0000.0001)                 1.000000000000000E+00
(PID.TID 0000.0001)     ;
(PID.TID 0000.0001) monitorSelect = /* select group of variables to monitor */
(PID.TID 0000.0001)                       1
(PID.TID 0000.0001)     ;
(PID.TID 0000.0001) monitor_stdio =   /* Model IO flag. */
(PID.TID 0000.0001)                   T
(PID.TID 0000.0001)     ;
(PID.TID 0000.0001) externForcingPeriod =   /* forcing period (s) */
(PID.TID 0000.0001)                 0.000000000000000E+00
(PID.TID 0000.0001)     ;
(PID.TID 0000.0001) externForcingCycle =   /* period of the cyle (s). */
(PID.TID 0000.0001)                 0.000000000000000E+00
(PID.TID 0000.0001)     ;
(PID.TID 0000.0001) tauThetaClimRelax =   /* relaxation time scale (s) */
(PID.TID 0000.0001)                 0.000000000000000E+00
(PID.TID 0000.0001)     ;
(PID.TID 0000.0001) tauSaltClimRelax =   /* relaxation time scale (s) */
(PID.TID 0000.0001)                 0.000000000000000E+00
(PID.TID 0000.0001)     ;
(PID.TID 0000.0001) latBandClimRelax =   /* max. Lat. where relaxation */
(PID.TID 0000.0001)                 9.600000000000000E+06
(PID.TID 0000.0001)     ;
(PID.TID 0000.0001) //
(PID.TID 0000.0001) // Gridding paramters ( PARM04 in namelist )
(PID.TID 0000.0001) //
(PID.TID 0000.0001) usingCartesianGrid = /* Cartesian coordinates flag ( True/False ) */
(PID.TID 0000.0001)                   T
(PID.TID 0000.0001)     ;
(PID.TID 0000.0001) usingCylindricalGrid = /* Cylindrical coordinates flag ( True/False ) */
(PID.TID 0000.0001)                   F
(PID.TID 0000.0001)     ;
(PID.TID 0000.0001) usingSphericalPolarGrid = /* Spherical coordinates flag ( True/False ) */
(PID.TID 0000.0001)                   F
(PID.TID 0000.0001)     ;
(PID.TID 0000.0001) usingCurvilinearGrid = /* Curvilinear coordinates flag ( True/False ) */
(PID.TID 0000.0001)                   F
(PID.TID 0000.0001)     ;
(PID.TID 0000.0001) useMin4hFacEdges = /* set hFacW,S as minimum of adjacent hFacC factor */
(PID.TID 0000.0001)                   F
(PID.TID 0000.0001)     ;
(PID.TID 0000.0001) interViscAr_pCell = /* account for partial-cell in interior vert. viscosity */
(PID.TID 0000.0001)                   F
(PID.TID 0000.0001)     ;
(PID.TID 0000.0001) interDiffKr_pCell = /* account for partial-cell in interior vert. diffusion */
(PID.TID 0000.0001)                   F
(PID.TID 0000.0001)     ;
(PID.TID 0000.0001) pCellMix_select = /* option to enhance mixing near surface & bottom */
(PID.TID 0000.0001)                       0
(PID.TID 0000.0001)     ;
(PID.TID 0000.0001) selectSigmaCoord = /* Hybrid-Sigma Vert. Coordinate option */
(PID.TID 0000.0001)                       0
(PID.TID 0000.0001)     ;
(PID.TID 0000.0001) rSigmaBnd = /* r/sigma transition ( units of r ==  m ) */
(PID.TID 0000.0001)                 1.234567000000000E+05
(PID.TID 0000.0001)     ;
(PID.TID 0000.0001) rkSign =   /* index orientation relative to vertical coordinate */
(PID.TID 0000.0001)                -1.000000000000000E+00
(PID.TID 0000.0001)     ;
(PID.TID 0000.0001) gravitySign = /* gravity orientation relative to vertical coordinate */
(PID.TID 0000.0001)                -1.000000000000000E+00
(PID.TID 0000.0001)     ;
(PID.TID 0000.0001) seaLev_Z =  /* reference height of sea-level [m] */
(PID.TID 0000.0001)                 0.000000000000000E+00
(PID.TID 0000.0001)     ;
(PID.TID 0000.0001) top_Pres =  /* reference pressure at the top [Pa] */
(PID.TID 0000.0001)                 0.000000000000000E+00
(PID.TID 0000.0001)     ;
(PID.TID 0000.0001) mass2rUnit = /* convert mass per unit area [kg/m2] to r-units [m] */
(PID.TID 0000.0001)                 1.000000000000000E-03
(PID.TID 0000.0001)     ;
(PID.TID 0000.0001) rUnit2mass = /* convert r-units [m] to mass per unit area [kg/m2] */
(PID.TID 0000.0001)                 1.000000000000000E+03
(PID.TID 0000.0001)     ;
(PID.TID 0000.0001) drC =   /* C spacing ( units of r ) */
(PID.TID 0000.0001)                 1.000000000000000E+01,      /* K =  1 */
(PID.TID 0000.0001)     7 @  2.000000000000000E+01,             /* K =  2:  8 */
(PID.TID 0000.0001)                 2.200000000000000E+01,      /* K =  9 */
(PID.TID 0000.0001)                 2.650000000000000E+01,      /* K = 10 */
(PID.TID 0000.0001)                 3.200000000000000E+01,      /* K = 11 */
(PID.TID 0000.0001)                 3.800000000000000E+01,      /* K = 12 */
(PID.TID 0000.0001)                 4.550000000000000E+01,      /* K = 13 */
(PID.TID 0000.0001)                 5.500000000000000E+01,      /* K = 14 */
(PID.TID 0000.0001)                 6.600000000000000E+01,      /* K = 15 */
(PID.TID 0000.0001)                 7.900000000000000E+01,      /* K = 16 */
(PID.TID 0000.0001)                 9.450000000000000E+01,      /* K = 17 */
(PID.TID 0000.0001)                 1.135000000000000E+02,      /* K = 18 */
(PID.TID 0000.0001)                 1.360000000000000E+02,      /* K = 19 */
(PID.TID 0000.0001)                 1.630000000000000E+02,      /* K = 20 */
(PID.TID 0000.0001)                 1.955000000000000E+02,      /* K = 21 */
(PID.TID 0000.0001)                 2.345000000000000E+02,      /* K = 22 */
(PID.TID 0000.0001)                 2.815000000000000E+02,      /* K = 23 */
(PID.TID 0000.0001)     2 @  3.070000000000000E+02,             /* K = 24: 25 */
(PID.TID 0000.0001)                 1.535000000000000E+02       /* K = 26 */
(PID.TID 0000.0001)     ;
(PID.TID 0000.0001) drF =   /* W spacing ( units of r ) */
(PID.TID 0000.0001)     8 @  2.000000000000000E+01,             /* K =  1:  8 */
(PID.TID 0000.0001)                 2.400000000000000E+01,      /* K =  9 */
(PID.TID 0000.0001)                 2.900000000000000E+01,      /* K = 10 */
(PID.TID 0000.0001)                 3.500000000000000E+01,      /* K = 11 */
(PID.TID 0000.0001)                 4.100000000000000E+01,      /* K = 12 */
(PID.TID 0000.0001)                 5.000000000000000E+01,      /* K = 13 */
(PID.TID 0000.0001)                 6.000000000000000E+01,      /* K = 14 */
(PID.TID 0000.0001)                 7.200000000000000E+01,      /* K = 15 */
(PID.TID 0000.0001)                 8.600000000000000E+01,      /* K = 16 */
(PID.TID 0000.0001)                 1.030000000000000E+02,      /* K = 17 */
(PID.TID 0000.0001)                 1.240000000000000E+02,      /* K = 18 */
(PID.TID 0000.0001)                 1.480000000000000E+02,      /* K = 19 */
(PID.TID 0000.0001)                 1.780000000000000E+02,      /* K = 20 */
(PID.TID 0000.0001)                 2.130000000000000E+02,      /* K = 21 */
(PID.TID 0000.0001)                 2.560000000000000E+02,      /* K = 22 */
(PID.TID 0000.0001)     3 @  3.070000000000000E+02              /* K = 23: 25 */
(PID.TID 0000.0001)     ;
(PID.TID 0000.0001) delX = /* U spacing ( m - cartesian, degrees - spherical ) */
(PID.TID 0000.0001)                 1.000000000000000E+05       /* I =  1 */
(PID.TID 0000.0001)     ;
(PID.TID 0000.0001) delY = /* V spacing ( m - cartesian, degrees - spherical ) */
(PID.TID 0000.0001)    32 @  1.000000000000000E+05              /* J =  1: 32 */
(PID.TID 0000.0001)     ;
(PID.TID 0000.0001) xgOrigin = /* X-axis origin of West  edge (cartesian: m, lat-lon: deg) */
(PID.TID 0000.0001)                 0.000000000000000E+00
(PID.TID 0000.0001)     ;
(PID.TID 0000.0001) ygOrigin = /* Y-axis origin of South edge (cartesian: m, lat-lon: deg) */
(PID.TID 0000.0001)                 0.000000000000000E+00
(PID.TID 0000.0001)     ;
(PID.TID 0000.0001) rSphere =  /* Radius ( ignored - cartesian, m - spherical ) */
(PID.TID 0000.0001)                 6.370000000000000E+06
(PID.TID 0000.0001)     ;
(PID.TID 0000.0001) deepAtmosphere = /* Deep/Shallow Atmosphere flag (True/False) */
(PID.TID 0000.0001)                   F
(PID.TID 0000.0001)     ;
(PID.TID 0000.0001) xC =  /* xC(:,1,:,1) : P-point X coord ( deg. or m if cartesian) */
(PID.TID 0000.0001)                 5.000000000000000E+04       /* I =  1 */
(PID.TID 0000.0001)     ;
(PID.TID 0000.0001) yC =  /* yC(1,:,1,:) : P-point Y coord ( deg. or m if cartesian) */
(PID.TID 0000.0001)                 5.000000000000000E+04,      /* J =  1 */
(PID.TID 0000.0001)                 1.500000000000000E+05,      /* J =  2 */
(PID.TID 0000.0001)                 2.500000000000000E+05,      /* J =  3 */
(PID.TID 0000.0001)                 3.500000000000000E+05,      /* J =  4 */
(PID.TID 0000.0001)                 4.500000000000000E+05,      /* J =  5 */
(PID.TID 0000.0001)                 5.500000000000000E+05,      /* J =  6 */
(PID.TID 0000.0001)                 6.500000000000000E+05,      /* J =  7 */
(PID.TID 0000.0001)                 7.500000000000000E+05,      /* J =  8 */
(PID.TID 0000.0001)                 8.500000000000000E+05,      /* J =  9 */
(PID.TID 0000.0001)                 9.500000000000000E+05,      /* J = 10 */
(PID.TID 0000.0001)                 1.050000000000000E+06,      /* J = 11 */
(PID.TID 0000.0001)                 1.150000000000000E+06,      /* J = 12 */
(PID.TID 0000.0001)                 1.250000000000000E+06,      /* J = 13 */
(PID.TID 0000.0001)                 1.350000000000000E+06,      /* J = 14 */
(PID.TID 0000.0001)                 1.450000000000000E+06,      /* J = 15 */
(PID.TID 0000.0001)                 1.550000000000000E+06,      /* J = 16 */
(PID.TID 0000.0001)                 1.650000000000000E+06,      /* J = 17 */
(PID.TID 0000.0001)                 1.750000000000000E+06,      /* J = 18 */
(PID.TID 0000.0001)                 1.850000000000000E+06,      /* J = 19 */
(PID.TID 0000.0001)                 1.950000000000000E+06,      /* J = 20 */
(PID.TID 0000.0001)                 2.050000000000000E+06,      /* J = 21 */
(PID.TID 0000.0001)                 2.150000000000000E+06,      /* J = 22 */
(PID.TID 0000.0001)                 2.250000000000000E+06,      /* J = 23 */
(PID.TID 0000.0001)                 2.350000000000000E+06,      /* J = 24 */
(PID.TID 0000.0001)                 2.450000000000000E+06,      /* J = 25 */
(PID.TID 0000.0001)                 2.550000000000000E+06,      /* J = 26 */
(PID.TID 0000.0001)                 2.650000000000000E+06,      /* J = 27 */
(PID.TID 0000.0001)                 2.750000000000000E+06,      /* J = 28 */
(PID.TID 0000.0001)                 2.850000000000000E+06,      /* J = 29 */
(PID.TID 0000.0001)                 2.950000000000000E+06,      /* J = 30 */
(PID.TID 0000.0001)                 3.050000000000000E+06,      /* J = 31 */
(PID.TID 0000.0001)                 3.150000000000000E+06       /* J = 32 */
(PID.TID 0000.0001)     ;
(PID.TID 0000.0001) rcoord = /* P-point R coordinate (  units of r ) */
(PID.TID 0000.0001)                -1.000000000000000E+01,      /* K =  1 */
(PID.TID 0000.0001)                -3.000000000000000E+01,      /* K =  2 */
(PID.TID 0000.0001)                -5.000000000000000E+01,      /* K =  3 */
(PID.TID 0000.0001)                -7.000000000000000E+01,      /* K =  4 */
(PID.TID 0000.0001)                -9.000000000000000E+01,      /* K =  5 */
(PID.TID 0000.0001)                -1.100000000000000E+02,      /* K =  6 */
(PID.TID 0000.0001)                -1.300000000000000E+02,      /* K =  7 */
(PID.TID 0000.0001)                -1.500000000000000E+02,      /* K =  8 */
(PID.TID 0000.0001)                -1.720000000000000E+02,      /* K =  9 */
(PID.TID 0000.0001)                -1.985000000000000E+02,      /* K = 10 */
(PID.TID 0000.0001)                -2.305000000000000E+02,      /* K = 11 */
(PID.TID 0000.0001)                -2.685000000000000E+02,      /* K = 12 */
(PID.TID 0000.0001)                -3.140000000000000E+02,      /* K = 13 */
(PID.TID 0000.0001)                -3.690000000000000E+02,      /* K = 14 */
(PID.TID 0000.0001)                -4.350000000000000E+02,      /* K = 15 */
(PID.TID 0000.0001)                -5.140000000000000E+02,      /* K = 16 */
(PID.TID 0000.0001)                -6.085000000000000E+02,      /* K = 17 */
(PID.TID 0000.0001)                -7.220000000000000E+02,      /* K = 18 */
(PID.TID 0000.0001)                -8.580000000000000E+02,      /* K = 19 */
(PID.TID 0000.0001)                -1.021000000000000E+03,      /* K = 20 */
(PID.TID 0000.0001)                -1.216500000000000E+03,      /* K = 21 */
(PID.TID 0000.0001)                -1.451000000000000E+03,      /* K = 22 */
(PID.TID 0000.0001)                -1.732500000000000E+03,      /* K = 23 */
(PID.TID 0000.0001)                -2.039500000000000E+03,      /* K = 24 */
(PID.TID 0000.0001)                -2.346500000000000E+03       /* K = 25 */
(PID.TID 0000.0001)     ;
(PID.TID 0000.0001) rF =   /* W-Interf. R coordinate (  units of r ) */
(PID.TID 0000.0001)                 0.000000000000000E+00,      /* K =  1 */
(PID.TID 0000.0001)                -2.000000000000000E+01,      /* K =  2 */
(PID.TID 0000.0001)                -4.000000000000000E+01,      /* K =  3 */
(PID.TID 0000.0001)                -6.000000000000000E+01,      /* K =  4 */
(PID.TID 0000.0001)                -8.000000000000000E+01,      /* K =  5 */
(PID.TID 0000.0001)                -1.000000000000000E+02,      /* K =  6 */
(PID.TID 0000.0001)                -1.200000000000000E+02,      /* K =  7 */
(PID.TID 0000.0001)                -1.400000000000000E+02,      /* K =  8 */
(PID.TID 0000.0001)                -1.600000000000000E+02,      /* K =  9 */
(PID.TID 0000.0001)                -1.840000000000000E+02,      /* K = 10 */
(PID.TID 0000.0001)                -2.130000000000000E+02,      /* K = 11 */
(PID.TID 0000.0001)                -2.480000000000000E+02,      /* K = 12 */
(PID.TID 0000.0001)                -2.890000000000000E+02,      /* K = 13 */
(PID.TID 0000.0001)                -3.390000000000000E+02,      /* K = 14 */
(PID.TID 0000.0001)                -3.990000000000000E+02,      /* K = 15 */
(PID.TID 0000.0001)                -4.710000000000000E+02,      /* K = 16 */
(PID.TID 0000.0001)                -5.570000000000000E+02,      /* K = 17 */
(PID.TID 0000.0001)                -6.600000000000000E+02,      /* K = 18 */
(PID.TID 0000.0001)                -7.840000000000000E+02,      /* K = 19 */
(PID.TID 0000.0001)                -9.320000000000000E+02,      /* K = 20 */
(PID.TID 0000.0001)                -1.110000000000000E+03,      /* K = 21 */
(PID.TID 0000.0001)                -1.323000000000000E+03,      /* K = 22 */
(PID.TID 0000.0001)                -1.579000000000000E+03,      /* K = 23 */
(PID.TID 0000.0001)                -1.886000000000000E+03,      /* K = 24 */
(PID.TID 0000.0001)                -2.193000000000000E+03,      /* K = 25 */
(PID.TID 0000.0001)                -2.500000000000000E+03       /* K = 26 */
(PID.TID 0000.0001)     ;
(PID.TID 0000.0001) deepFacC = /* deep-model grid factor @ cell-Center (-) */
(PID.TID 0000.0001)    25 @  1.000000000000000E+00              /* K =  1: 25 */
(PID.TID 0000.0001)     ;
(PID.TID 0000.0001) deepFacF = /* deep-model grid factor @ W-Interface (-) */
(PID.TID 0000.0001)    26 @  1.000000000000000E+00              /* K =  1: 26 */
(PID.TID 0000.0001)     ;
(PID.TID 0000.0001) rVel2wUnit = /* convert units: rVel -> wSpeed (=1 if z-coord)*/
(PID.TID 0000.0001)    26 @  1.000000000000000E+00              /* K =  1: 26 */
(PID.TID 0000.0001)     ;
(PID.TID 0000.0001) wUnit2rVel = /* convert units: wSpeed -> rVel (=1 if z-coord)*/
(PID.TID 0000.0001)    26 @  1.000000000000000E+00              /* K =  1: 26 */
(PID.TID 0000.0001)     ;
(PID.TID 0000.0001) dBdrRef = /* Vertical grad. of reference buoyancy [(m/s/r)^2] */
(PID.TID 0000.0001)    10 @  0.000000000000000E+00,             /* K =  1: 10 */
(PID.TID 0000.0001)                 6.131249999999979E-06,      /* K = 11 */
(PID.TID 0000.0001)                 5.163157894736825E-06,      /* K = 12 */
(PID.TID 0000.0001)                 4.312087912087974E-06,      /* K = 13 */
(PID.TID 0000.0001)                 7.134545454545429E-06,      /* K = 14 */
(PID.TID 0000.0001)                 2.972727272727263E-06,      /* K = 15 */
(PID.TID 0000.0001)                 4.967088607594963E-06,      /* K = 16 */
(PID.TID 0000.0001)                 4.152380952380938E-06,      /* K = 17 */
(PID.TID 0000.0001)                 5.185903083700454E-06,      /* K = 18 */
(PID.TID 0000.0001)                 4.327941176470574E-06,      /* K = 19 */
(PID.TID 0000.0001)                 4.814723926380374E-06,      /* K = 20 */
(PID.TID 0000.0001)                 4.014322250639390E-06,      /* K = 21 */
(PID.TID 0000.0001)                 4.183368869936034E-06,      /* K = 22 */
(PID.TID 0000.0001)                 4.181882770870335E-06,      /* K = 23 */
(PID.TID 0000.0001)                 4.473615635179155E-06,      /* K = 24 */
(PID.TID 0000.0001)                 3.834527687296415E-06       /* K = 25 */
(PID.TID 0000.0001)     ;
(PID.TID 0000.0001) rotateGrid = /* use rotated grid ( True/False ) */
(PID.TID 0000.0001)                   F
(PID.TID 0000.0001)     ;
(PID.TID 0000.0001) phiEuler = /* Euler angle, rotation about original z-coordinate [rad] */
(PID.TID 0000.0001)                 0.000000000000000E+00
(PID.TID 0000.0001)     ;
(PID.TID 0000.0001) thetaEuler = /* Euler angle, rotation about new x-coordinate [rad] */
(PID.TID 0000.0001)                 0.000000000000000E+00
(PID.TID 0000.0001)     ;
(PID.TID 0000.0001) psiEuler = /* Euler angle, rotation about new z-coordinate [rad] */
(PID.TID 0000.0001)                 0.000000000000000E+00
(PID.TID 0000.0001)     ;
(PID.TID 0000.0001) dxF =  /* dxF(:,1,:,1) ( units: m ) */
(PID.TID 0000.0001)                 1.000000000000000E+05       /* I =  1 */
(PID.TID 0000.0001)     ;
(PID.TID 0000.0001) dxF =  /* dxF(1,:,1,:) ( units: m ) */
(PID.TID 0000.0001)    32 @  1.000000000000000E+05              /* J =  1: 32 */
(PID.TID 0000.0001)     ;
(PID.TID 0000.0001) dyF =  /* dyF(:,1,:,1) ( units: m ) */
(PID.TID 0000.0001)                 1.000000000000000E+05       /* I =  1 */
(PID.TID 0000.0001)     ;
(PID.TID 0000.0001) dyF =  /* dyF(1,:,1,:) ( units: m ) */
(PID.TID 0000.0001)    32 @  1.000000000000000E+05              /* J =  1: 32 */
(PID.TID 0000.0001)     ;
(PID.TID 0000.0001) dxG =  /* dxG(:,1,:,1) ( units: m ) */
(PID.TID 0000.0001)                 1.000000000000000E+05       /* I =  1 */
(PID.TID 0000.0001)     ;
(PID.TID 0000.0001) dxG =  /* dxG(1,:,1,:) ( units: m ) */
(PID.TID 0000.0001)    32 @  1.000000000000000E+05              /* J =  1: 32 */
(PID.TID 0000.0001)     ;
(PID.TID 0000.0001) dyG =  /* dyG(:,1,:,1) ( units: m ) */
(PID.TID 0000.0001)                 1.000000000000000E+05       /* I =  1 */
(PID.TID 0000.0001)     ;
(PID.TID 0000.0001) dyG =  /* dyG(1,:,1,:) ( units: m ) */
(PID.TID 0000.0001)    32 @  1.000000000000000E+05              /* J =  1: 32 */
(PID.TID 0000.0001)     ;
(PID.TID 0000.0001) dxC =  /* dxC(:,1,:,1) ( units: m ) */
(PID.TID 0000.0001)                 1.000000000000000E+05       /* I =  1 */
(PID.TID 0000.0001)     ;
(PID.TID 0000.0001) dxC =  /* dxC(1,:,1,:) ( units: m ) */
(PID.TID 0000.0001)    32 @  1.000000000000000E+05              /* J =  1: 32 */
(PID.TID 0000.0001)     ;
(PID.TID 0000.0001) dyC =  /* dyC(:,1,:,1) ( units: m ) */
(PID.TID 0000.0001)                 1.000000000000000E+05       /* I =  1 */
(PID.TID 0000.0001)     ;
(PID.TID 0000.0001) dyC =  /* dyC(1,:,1,:) ( units: m ) */
(PID.TID 0000.0001)    32 @  1.000000000000000E+05              /* J =  1: 32 */
(PID.TID 0000.0001)     ;
(PID.TID 0000.0001) dxV =  /* dxV(:,1,:,1) ( units: m ) */
(PID.TID 0000.0001)                 1.000000000000000E+05       /* I =  1 */
(PID.TID 0000.0001)     ;
(PID.TID 0000.0001) dxV =  /* dxV(1,:,1,:) ( units: m ) */
(PID.TID 0000.0001)    32 @  1.000000000000000E+05              /* J =  1: 32 */
(PID.TID 0000.0001)     ;
(PID.TID 0000.0001) dyU =  /* dyU(:,1,:,1) ( units: m ) */
(PID.TID 0000.0001)                 1.000000000000000E+05       /* I =  1 */
(PID.TID 0000.0001)     ;
(PID.TID 0000.0001) dyU =  /* dyU(1,:,1,:) ( units: m ) */
(PID.TID 0000.0001)    32 @  1.000000000000000E+05              /* J =  1: 32 */
(PID.TID 0000.0001)     ;
(PID.TID 0000.0001) rA  =  /* rA (:,1,:,1) ( units: m^2 ) */
(PID.TID 0000.0001)                 1.000000000000000E+10       /* I =  1 */
(PID.TID 0000.0001)     ;
(PID.TID 0000.0001) rA  =  /* rA (1,:,1,:) ( units: m^2 ) */
(PID.TID 0000.0001)    32 @  1.000000000000000E+10              /* J =  1: 32 */
(PID.TID 0000.0001)     ;
(PID.TID 0000.0001) rAw =  /* rAw(:,1,:,1) ( units: m^2 ) */
(PID.TID 0000.0001)                 1.000000000000000E+10       /* I =  1 */
(PID.TID 0000.0001)     ;
(PID.TID 0000.0001) rAw =  /* rAw(1,:,1,:) ( units: m^2 ) */
(PID.TID 0000.0001)    32 @  1.000000000000000E+10              /* J =  1: 32 */
(PID.TID 0000.0001)     ;
(PID.TID 0000.0001) rAs =  /* rAs(:,1,:,1) ( units: m^2 ) */
(PID.TID 0000.0001)                 1.000000000000000E+10       /* I =  1 */
(PID.TID 0000.0001)     ;
(PID.TID 0000.0001) rAs =  /* rAs(1,:,1,:) ( units: m^2 ) */
(PID.TID 0000.0001)    32 @  1.000000000000000E+10              /* J =  1: 32 */
(PID.TID 0000.0001)     ;
(PID.TID 0000.0001) globalArea = /* Integrated horizontal Area (m^2) */
(PID.TID 0000.0001)                 3.000000000000000E+11
(PID.TID 0000.0001)     ;
(PID.TID 0000.0001) // =======================================================
(PID.TID 0000.0001) // End of Model config. summary
(PID.TID 0000.0001) // =======================================================
(PID.TID 0000.0001) 
(PID.TID 0000.0001) == Packages configuration : Check & print summary ==
(PID.TID 0000.0001) 
(PID.TID 0000.0001) GMREDI_CHECK: #define GMREDI
(PID.TID 0000.0001) GM_AdvForm =     /* if FALSE => use SkewFlux Form */
(PID.TID 0000.0001)                   T
(PID.TID 0000.0001)     ;
(PID.TID 0000.0001) GM_InMomAsStress = /* if TRUE => apply as Eddy Stress */
(PID.TID 0000.0001)                   F
(PID.TID 0000.0001)     ;
(PID.TID 0000.0001) GM_AdvSeparate = /* Calc Bolus & Euler Adv. separately */
(PID.TID 0000.0001)                   F
(PID.TID 0000.0001)     ;
(PID.TID 0000.0001) GM_ExtraDiag =   /* Tensor Extra Diag (line 1&2) non 0 */
(PID.TID 0000.0001)                   T
(PID.TID 0000.0001)     ;
(PID.TID 0000.0001) GM_isopycK =    /* Background Isopyc. Diffusivity [m^2/s] */
(PID.TID 0000.0001)                 1.000000000000000E+03
(PID.TID 0000.0001)     ;
(PID.TID 0000.0001) GM_skewflx*K =  /* Background GM_SkewFlx Diffusivity [m^2/s] */
(PID.TID 0000.0001)                 0.000000000000000E+00
(PID.TID 0000.0001)     ;
(PID.TID 0000.0001) GM_advec*K =    /* Backg. GM-Advec(=Bolus) Diffusivity [m^2/s]*/
(PID.TID 0000.0001)                 1.000000000000000E+03
(PID.TID 0000.0001)     ;
(PID.TID 0000.0001) GM_Kmin_horiz = /* Minimum Horizontal Diffusivity [m^2/s] */
(PID.TID 0000.0001)                 0.000000000000000E+00
(PID.TID 0000.0001)     ;
(PID.TID 0000.0001) GM_Visbeck_alpha = /* Visbeck alpha coeff. [-] */
(PID.TID 0000.0001)                 0.000000000000000E+00
(PID.TID 0000.0001)     ;
(PID.TID 0000.0001) GM_Small_Number =  /* epsilon used in slope calc */
(PID.TID 0000.0001)                 9.999999999999999E-21
(PID.TID 0000.0001)     ;
(PID.TID 0000.0001) GM_slopeSqCutoff = /* Slope^2 cut-off value */
(PID.TID 0000.0001)                 1.000000000000000E+48
(PID.TID 0000.0001)     ;
(PID.TID 0000.0001) GM_taper_scheme =  /* Type of Tapering/Clipping scheme */
(PID.TID 0000.0001)               'ac02                                    '
(PID.TID 0000.0001)     ;
(PID.TID 0000.0001) GM_maxSlope =  /* Maximum Slope (Tapering/Clipping) */
(PID.TID 0000.0001)                 1.000000000000000E-02
(PID.TID 0000.0001)     ;
(PID.TID 0000.0001) GM_facTrL2dz = /* Minimum Trans.Layer Thick. (factor of dz) */
(PID.TID 0000.0001)                 0.000000000000000E+00
(PID.TID 0000.0001)     ;
(PID.TID 0000.0001) GM_facTrL2ML = /* Max.Trans.Layer Thick. (factor of MxL Depth)*/
(PID.TID 0000.0001)                 5.000000000000000E+00
(PID.TID 0000.0001)     ;
(PID.TID 0000.0001) GM_maxTransLay = /* Maximum Transition Layer Thickness [m] */
(PID.TID 0000.0001)                 5.000000000000000E+02
(PID.TID 0000.0001)     ;
(PID.TID 0000.0001) GM_UseBVP = /* if TRUE => use bvp a la Ferrari et al. (2010) */
(PID.TID 0000.0001)                   F
(PID.TID 0000.0001)     ;
(PID.TID 0000.0001) GM_BVP_ModeNumber = /* Vertical mode number for BVP wave speed */
(PID.TID 0000.0001)                       5
(PID.TID 0000.0001)     ;
(PID.TID 0000.0001) GM_BVP_cMin = /* Minimum wave speed for BVP [m/s] */
(PID.TID 0000.0001)                 1.000000000000000E-01
(PID.TID 0000.0001)     ;
(PID.TID 0000.0001) GM_useSubMeso = /* if TRUE => use Sub-Meso param. (B.Fox-Kemper) */
(PID.TID 0000.0001)                   F
(PID.TID 0000.0001)     ;
(PID.TID 0000.0001) subMeso_Ceff = /* efficiency coeff. of Mixed-Layer Eddies [-] */
(PID.TID 0000.0001)                 7.000000000000001E-02
(PID.TID 0000.0001)     ;
(PID.TID 0000.0001) subMeso_invTau = /* inverse of Sub-Meso mixing time-scale [/s] */
(PID.TID 0000.0001)                 2.000000000000000E-06
(PID.TID 0000.0001)     ;
(PID.TID 0000.0001) subMeso_LfMin = /* minimum length-scale "Lf" [m] */
(PID.TID 0000.0001)                 1.000000000000000E+03
(PID.TID 0000.0001)     ;
(PID.TID 0000.0001) subMeso_Lmax = /* maximum grid-scale length [m] */
(PID.TID 0000.0001)                 1.100000000000000E+05
(PID.TID 0000.0001)     ;
(PID.TID 0000.0001) GM_useLeithQG = /* if TRUE => add QG Leith viscosity to GMRedi tensor */
(PID.TID 0000.0001)                   F
(PID.TID 0000.0001)     ;
(PID.TID 0000.0001) GAD_CHECK: #define ALLOW_GENERIC_ADVDIFF
(PID.TID 0000.0001) // =======================================================
(PID.TID 0000.0001) // Check Model config. (CONFIG_CHECK):
(PID.TID 0000.0001) // CONFIG_CHECK : Normal End
(PID.TID 0000.0001) // =======================================================
(PID.TID 0000.0001) 
(PID.TID 0000.0001)  MDS_WRITE_FIELD: it,rec,kS,kL,kH=      -1     1   1   1   1 file=XC
(PID.TID 0000.0001)  MDS_WRITE_FIELD: it,rec,kS,kL,kH=      -1     1   1   1   1 file=YC
(PID.TID 0000.0001)  MDS_WRITE_FIELD: it,rec,kS,kL,kH=      -1     1   1   1   1 file=XG
(PID.TID 0000.0001)  MDS_WRITE_FIELD: it,rec,kS,kL,kH=      -1     1   1   1   1 file=YG
(PID.TID 0000.0001)  MDS_WRITE_FIELD: it,rec,kS,kL,kH=      -1     1   1   1   1 file=RAC
(PID.TID 0000.0001)  MDS_WRITE_FIELD: it,rec,kS,kL,kH=      -1     1   1   1   1 file=RAW
(PID.TID 0000.0001)  MDS_WRITE_FIELD: it,rec,kS,kL,kH=      -1     1   1   1   1 file=RAS
(PID.TID 0000.0001)  MDS_WRITE_FIELD: it,rec,kS,kL,kH=      -1     1   1   1   1 file=RAZ
(PID.TID 0000.0001)  MDS_WRITE_FIELD: it,rec,kS,kL,kH=      -1     1   1   1   1 file=DXG
(PID.TID 0000.0001)  MDS_WRITE_FIELD: it,rec,kS,kL,kH=      -1     1   1   1   1 file=DYG
(PID.TID 0000.0001)  MDS_WRITE_FIELD: it,rec,kS,kL,kH=      -1     1   1   1   1 file=DXC
(PID.TID 0000.0001)  MDS_WRITE_FIELD: it,rec,kS,kL,kH=      -1     1   1   1   1 file=DYC
(PID.TID 0000.0001)  MDS_WRITE_FIELD: it,rec,kS,kL,kH=      -1     1   1   1   1 file=DXF
(PID.TID 0000.0001)  MDS_WRITE_FIELD: it,rec,kS,kL,kH=      -1     1   1   1   1 file=DYF
(PID.TID 0000.0001)  MDS_WRITE_FIELD: it,rec,kS,kL,kH=      -1     1   1   1   1 file=DXV
(PID.TID 0000.0001)  MDS_WRITE_FIELD: it,rec,kS,kL,kH=      -1     1   1   1   1 file=DYU
(PID.TID 0000.0001)  MDS_WRITE_FIELD: it,rec,kS,kL,kH=      -1     1   1   1   1 file=Depth
(PID.TID 0000.0001)  MDS_WRITE_FIELD: it,rec,kS,kL,kH=      -1     1   1   1   1 file=rLowC
(PID.TID 0000.0001)  MDS_WRITE_FIELD: it,rec,kS,kL,kH=      -1     1   1   1   1 file=rLowW
(PID.TID 0000.0001)  MDS_WRITE_FIELD: it,rec,kS,kL,kH=      -1     1   1   1   1 file=rLowS
(PID.TID 0000.0001)  MDS_WRITE_FIELD: it,rec,kS,kL,kH=      -1     1   1   1   1 file=rSurfC
(PID.TID 0000.0001)  MDS_WRITE_FIELD: it,rec,kS,kL,kH=      -1     1   1   1   1 file=rSurfW
(PID.TID 0000.0001)  MDS_WRITE_FIELD: it,rec,kS,kL,kH=      -1     1   1   1   1 file=rSurfS
(PID.TID 0000.0001)  MDS_WRITE_FIELD: it,rec,kS,kL,kH=       0     1  25   1  25 file=hFacC
(PID.TID 0000.0001)  MDS_WRITE_FIELD: it,rec,kS,kL,kH=       0     1  25   1  25 file=hFacW
(PID.TID 0000.0001)  MDS_WRITE_FIELD: it,rec,kS,kL,kH=       0     1  25   1  25 file=hFacS
(PID.TID 0000.0001)  MDS_WRITEVEC_LOC: open file: RC.data
(PID.TID 0000.0001)  MDS_WRITEVEC_LOC: open file: RF.data
(PID.TID 0000.0001)  MDS_WRITEVEC_LOC: open file: DRC.data
(PID.TID 0000.0001)  MDS_WRITEVEC_LOC: open file: DRF.data
(PID.TID 0000.0001)  MDS_WRITEVEC_LOC: open file: PHrefF.data
(PID.TID 0000.0001)  MDS_WRITEVEC_LOC: open file: PHrefC.data
(PID.TID 0000.0001)  MDS_READ_FIELD: opening global file: u_ini.bin
(PID.TID 0000.0001)  MDS_READ_FIELD: opening global file: t_ini.bin
(PID.TID 0000.0001)  MDS_READ_FIELD: opening global file: s_ini.bin
(PID.TID 0000.0001) Start initial hydrostatic pressure computation
(PID.TID 0000.0001) Pressure is predetermined for buoyancyRelation OCEANIC
(PID.TID 0000.0001) 
(PID.TID 0000.0001)  write diagnostics summary to file ioUnit:      6
Iter.Nb:         0 ; Time(s):  0.0000000000000E+00
------------------------------------------------------------------------
2D/3D diagnostics: Number of lists:     2
------------------------------------------------------------------------
listId=    1 ; file name: surfDiag
 nFlds, nActive,       freq     &     phase        , nLev               
    4  |    4  |    -86400.000000         0.000000 |   1
 levels:   1
 diag# | name   |   ipt  |  iMate | kLev|   count |   mate.C|           
    23 |ETAN    |      1 |      0 |   1 |       0 |
    25 |DETADT2 |      2 |      0 |   1 |       0 |
    73 |PHIBOT  |      3 |      0 |   1 |       0 |
    76 |MXLDEPTH|      4 |      0 |   1 |       0 |
------------------------------------------------------------------------
listId=    2 ; file name: oceDiag
 nFlds, nActive,       freq     &     phase        , nLev               
    8  |    8  |    -86400.000000         0.000000 |  25
 levels:   1   2   3   4   5   6   7   8   9  10  11  12  13  14  15  16  17  18  19  20  21  22  23  24  25
 diag# | name   |   ipt  |  iMate | kLev|   count |   mate.C|           
    77 |DRHODR  |      5 |      0 |  25 |       0 |
    64 |RHOAnoma|     30 |      0 |  25 |       0 |
   202 |GM_Kwy  |     55 |      0 |  25 |       0 |
   203 |GM_Kwz  |     80 |      0 |  25 |       0 |
   198 |GM_Kvy  |    105 |      0 |  25 |       0 |
   200 |GM_Kvz  |    130 |      0 |  25 |       0 |
   205 |GM_PsiY |    155 |      0 |  25 |       0 |
    26 |THETA   |    180 |      0 |  25 |       0 |
------------------------------------------------------------------------
Global & Regional Statistics diagnostics: Number of lists:     0
------------------------------------------------------------------------
(PID.TID 0000.0001) // =======================================================
(PID.TID 0000.0001) // Model current state
(PID.TID 0000.0001) // =======================================================
(PID.TID 0000.0001) 
(PID.TID 0000.0001) // =======================================================
(PID.TID 0000.0001) // Begin MONITOR dynamic field statistics
(PID.TID 0000.0001) // =======================================================
(PID.TID 0000.0001) %MON time_tsnumber                =                     0
(PID.TID 0000.0001) %MON time_secondsf                =   0.0000000000000E+00
(PID.TID 0000.0001) %MON dynstat_eta_max              =   0.0000000000000E+00
(PID.TID 0000.0001) %MON dynstat_eta_min              =   0.0000000000000E+00
(PID.TID 0000.0001) %MON dynstat_eta_mean             =   0.0000000000000E+00
(PID.TID 0000.0001) %MON dynstat_eta_sd               =   0.0000000000000E+00
(PID.TID 0000.0001) %MON dynstat_eta_del2             =   0.0000000000000E+00
(PID.TID 0000.0001) %MON dynstat_uvel_max             =   8.0895360642305E-02
(PID.TID 0000.0001) %MON dynstat_uvel_min             =  -8.0895360642305E-02
(PID.TID 0000.0001) %MON dynstat_uvel_mean            =  -3.3630965570878E-07
(PID.TID 0000.0001) %MON dynstat_uvel_sd              =   1.1329372896604E-02
(PID.TID 0000.0001) %MON dynstat_uvel_del2            =   2.9660365576266E-04
(PID.TID 0000.0001) %MON dynstat_vvel_max             =   0.0000000000000E+00
(PID.TID 0000.0001) %MON dynstat_vvel_min             =   0.0000000000000E+00
(PID.TID 0000.0001) %MON dynstat_vvel_mean            =   0.0000000000000E+00
(PID.TID 0000.0001) %MON dynstat_vvel_sd              =   0.0000000000000E+00
(PID.TID 0000.0001) %MON dynstat_vvel_del2            =   0.0000000000000E+00
(PID.TID 0000.0001) %MON dynstat_wvel_max             =  -0.0000000000000E+00
(PID.TID 0000.0001) %MON dynstat_wvel_min             =  -0.0000000000000E+00
(PID.TID 0000.0001) %MON dynstat_wvel_mean            =   0.0000000000000E+00
(PID.TID 0000.0001) %MON dynstat_wvel_sd              =   0.0000000000000E+00
(PID.TID 0000.0001) %MON dynstat_wvel_del2            =   0.0000000000000E+00
(PID.TID 0000.0001) %MON dynstat_theta_max            =   1.2067089603386E+01
(PID.TID 0000.0001) %MON dynstat_theta_min            =   5.2161060162421E+00
(PID.TID 0000.0001) %MON dynstat_theta_mean           =   7.8249931739521E+00
(PID.TID 0000.0001) %MON dynstat_theta_sd             =   1.4898784690958E+00
(PID.TID 0000.0001) %MON dynstat_theta_del2           =   4.1339219678210E-03
(PID.TID 0000.0001) %MON dynstat_salt_max             =   1.1996530790116E+01
(PID.TID 0000.0001) %MON dynstat_salt_min             =   1.0464440295541E+01
(PID.TID 0000.0001) %MON dynstat_salt_mean            =   1.1305187600793E+01
(PID.TID 0000.0001) %MON dynstat_salt_sd              =   5.1674738579154E-01
(PID.TID 0000.0001) %MON dynstat_salt_del2            =   5.5220927393398E-04
(PID.TID 0000.0001) %MON advcfl_uvel_max              =   2.9122329831230E-03
(PID.TID 0000.0001) %MON advcfl_vvel_max              =   0.0000000000000E+00
(PID.TID 0000.0001) %MON advcfl_wvel_max              =   0.0000000000000E+00
(PID.TID 0000.0001) %MON advcfl_W_hf_max              =   0.0000000000000E+00
(PID.TID 0000.0001) %MON pe_b_mean                    =   0.0000000000000E+00
(PID.TID 0000.0001) %MON ke_max                       =   3.2720296867243E-03
(PID.TID 0000.0001) %MON ke_mean                      =   6.4177345171703E-05
(PID.TID 0000.0001) %MON ke_vol                       =   6.5555965471909E+14
(PID.TID 0000.0001) // =======================================================
(PID.TID 0000.0001) // End MONITOR dynamic field statistics
(PID.TID 0000.0001) // =======================================================
(PID.TID 0000.0001)  MDS_WRITE_FIELD: it,rec,kS,kL,kH=       0     1  25   1  25 file=U.0000000000
(PID.TID 0000.0001)  MDS_WRITE_FIELD: it,rec,kS,kL,kH=       0     1  25   1  25 file=V.0000000000
(PID.TID 0000.0001)  MDS_WRITE_FIELD: it,rec,kS,kL,kH=       0     1  25   1  25 file=T.0000000000
(PID.TID 0000.0001)  MDS_WRITE_FIELD: it,rec,kS,kL,kH=       0     1  25   1  25 file=S.0000000000
(PID.TID 0000.0001)  MDS_WRITE_FIELD: it,rec,kS,kL,kH=       0     1   1   1   1 file=Eta.0000000000
(PID.TID 0000.0001)  MDS_WRITE_FIELD: it,rec,kS,kL,kH=       0     1  25   1  25 file=W.0000000000
(PID.TID 0000.0001) SOLVE_FOR_PRESSURE: putPmEinXvector =    F
 cg2d: Sum(rhs),rhsMax =   3.20530819768183E-16  4.72809962165514E-01
(PID.TID 0000.0001)      cg2d_init_res =   1.87956676727452E+00
(PID.TID 0000.0001)      cg2d_iters(min,last) =      -1      28
(PID.TID 0000.0001)      cg2d_last_res =   7.07280941086528E-15
(PID.TID 0000.0001) // =======================================================
(PID.TID 0000.0001) // Begin MONITOR dynamic field statistics
(PID.TID 0000.0001) // =======================================================
(PID.TID 0000.0001) %MON time_tsnumber                =                     1
(PID.TID 0000.0001) %MON time_secondsf                =   3.6000000000000E+03
(PID.TID 0000.0001) %MON dynstat_eta_max              =   1.7370868906469E-01
(PID.TID 0000.0001) %MON dynstat_eta_min              =  -4.6827726745094E-02
(PID.TID 0000.0001) %MON dynstat_eta_mean             =   2.0583470662435E-17
(PID.TID 0000.0001) %MON dynstat_eta_sd               =   6.3202107538264E-02
(PID.TID 0000.0001) %MON dynstat_eta_del2             =   3.2185313334451E-03
(PID.TID 0000.0001) %MON dynstat_uvel_max             =   8.0809684758399E-02
(PID.TID 0000.0001) %MON dynstat_uvel_min             =  -8.0809684758399E-02
(PID.TID 0000.0001) %MON dynstat_uvel_mean            =  -3.4239649523512E-07
(PID.TID 0000.0001) %MON dynstat_uvel_sd              =   1.1329339776381E-02
(PID.TID 0000.0001) %MON dynstat_uvel_del2            =   2.9660477402808E-04
(PID.TID 0000.0001) %MON dynstat_vvel_max             =   4.8714856924672E-03
(PID.TID 0000.0001) %MON dynstat_vvel_min             =  -5.2666960387447E-03
(PID.TID 0000.0001) %MON dynstat_vvel_mean            =   1.8923372957151E-04
(PID.TID 0000.0001) %MON dynstat_vvel_sd              =   2.7101231639958E-03
(PID.TID 0000.0001) %MON dynstat_vvel_del2            =   2.2332568962217E-05
(PID.TID 0000.0001) %MON dynstat_wvel_max             =   4.8252413629084E-05
(PID.TID 0000.0001) %MON dynstat_wvel_min             =  -1.3186049022111E-05
(PID.TID 0000.0001) %MON dynstat_wvel_mean            =  -7.6160806825161E-08
(PID.TID 0000.0001) %MON dynstat_wvel_sd              =   1.1167290727986E-05
(PID.TID 0000.0001) %MON dynstat_wvel_del2            =   1.9412848267137E-07
(PID.TID 0000.0001) %MON dynstat_theta_max            =   1.2068303623561E+01
(PID.TID 0000.0001) %MON dynstat_theta_min            =   5.2161064947941E+00
(PID.TID 0000.0001) %MON dynstat_theta_mean           =   7.8249931739522E+00
(PID.TID 0000.0001) %MON dynstat_theta_sd             =   1.4898782227379E+00
(PID.TID 0000.0001) %MON dynstat_theta_del2           =   4.1334947302589E-03
(PID.TID 0000.0001) %MON dynstat_salt_max             =   1.1996652309510E+01
(PID.TID 0000.0001) %MON dynstat_salt_min             =   1.0464424066477E+01
(PID.TID 0000.0001) %MON dynstat_salt_mean            =   1.1305187600793E+01
(PID.TID 0000.0001) %MON dynstat_salt_sd              =   5.1673897501143E-01
(PID.TID 0000.0001) %MON dynstat_salt_del2            =   5.5225696952702E-04
(PID.TID 0000.0001) %MON advcfl_uvel_max              =   2.9091486513024E-03
(PID.TID 0000.0001) %MON advcfl_vvel_max              =   1.8960105739481E-04
(PID.TID 0000.0001) %MON advcfl_wvel_max              =   8.6854344532351E-03
(PID.TID 0000.0001) %MON advcfl_W_hf_max              =   5.1807659859517E-02
(PID.TID 0000.0001) %MON pe_b_mean                    =   8.9662567262680E-06
(PID.TID 0000.0001) %MON ke_max                       =   3.2678807473900E-03
(PID.TID 0000.0001) %MON ke_mean                      =   6.7723728143941E-05
(PID.TID 0000.0001) %MON ke_vol                       =   6.5555965471909E+14
(PID.TID 0000.0001) // =======================================================
(PID.TID 0000.0001) // End MONITOR dynamic field statistics
(PID.TID 0000.0001) // =======================================================
 Computing Diagnostic #     23  ETAN         Counter:       1   Parms: SM      M1      
(PID.TID 0000.0001)  MDS_WRITE_FIELD: it,rec,kS,kL,kH=       0    -1  50   1   1 file=surfDiag.0000000000
 Computing Diagnostic #     25  DETADT2      Counter:       1   Parms: SM      M1      
(PID.TID 0000.0001)  MDS_WRITE_FIELD: it,rec,kS,kL,kH=       0    -2  50   1   1 file=surfDiag.0000000000
 Computing Diagnostic #     73  PHIBOT       Counter:       1   Parms: SM      M1      
(PID.TID 0000.0001)  MDS_WRITE_FIELD: it,rec,kS,kL,kH=       0    -3  50   1   1 file=surfDiag.0000000000
 Computing Diagnostic #     76  MXLDEPTH     Counter:       1   Parms: SM      M1      
(PID.TID 0000.0001)  MDS_WRITE_FIELD: it,rec,kS,kL,kH=       0    -4  50   1   1 file=surfDiag.0000000000
 Computing Diagnostic #     77  DRHODR       Counter:       1   Parms: SM      LR      
(PID.TID 0000.0001)  MDS_WRITE_FIELD: it,rec,kS,kL,kH=       0    -1  50   1  25 file=oceDiag.0000000000
 Computing Diagnostic #     64  RHOAnoma     Counter:       1   Parms: SMR     MR      
(PID.TID 0000.0001)  MDS_WRITE_FIELD: it,rec,kS,kL,kH=       0    -2  50   1  25 file=oceDiag.0000000000
 Computing Diagnostic #    202  GM_Kwy       Counter:       1   Parms: VM      LR      
           Vector  Mate for  GM_Kwy       Diagnostic #    201  GM_Kwx   not enabled
(PID.TID 0000.0001)  MDS_WRITE_FIELD: it,rec,kS,kL,kH=       0    -3  50   1  25 file=oceDiag.0000000000
 Computing Diagnostic #    203  GM_Kwz       Counter:       1   Parms: WM P    LR      
(PID.TID 0000.0001)  MDS_WRITE_FIELD: it,rec,kS,kL,kH=       0    -4  50   1  25 file=oceDiag.0000000000
 Computing Diagnostic #    198  GM_Kvy       Counter:       1   Parms: VV P    MR      
           Vector  Mate for  GM_Kvy       Diagnostic #    197  GM_Kux   not enabled
(PID.TID 0000.0001)  MDS_WRITE_FIELD: it,rec,kS,kL,kH=       0    -5  50   1  25 file=oceDiag.0000000000
 Computing Diagnostic #    200  GM_Kvz       Counter:       1   Parms: VV      MR      
           Vector  Mate for  GM_Kvz       Diagnostic #    199  GM_Kuz   not enabled
(PID.TID 0000.0001)  MDS_WRITE_FIELD: it,rec,kS,kL,kH=       0    -6  50   1  25 file=oceDiag.0000000000
 Computing Diagnostic #    205  GM_PsiY      Counter:       1   Parms: VV      LR      
           Vector  Mate for  GM_PsiY      Diagnostic #    204  GM_PsiX  not enabled
(PID.TID 0000.0001)  MDS_WRITE_FIELD: it,rec,kS,kL,kH=       0    -7  50   1  25 file=oceDiag.0000000000
 Computing Diagnostic #     26  THETA        Counter:       1   Parms: SMR     MR      
(PID.TID 0000.0001)  MDS_WRITE_FIELD: it,rec,kS,kL,kH=       0    -8  50   1  25 file=oceDiag.0000000000
(PID.TID 0000.0001)  write diagnostics summary to file: diagnostics_status.0000000001.txt
 cg2d: Sum(rhs),rhsMax =  -1.83880688453542E-16  5.79761418238553E-01
(PID.TID 0000.0001)      cg2d_init_res =   3.67850670054568E-01
(PID.TID 0000.0001)      cg2d_iters(min,last) =      -1      28
(PID.TID 0000.0001)      cg2d_last_res =   4.97014432568468E-16
(PID.TID 0000.0001) // =======================================================
(PID.TID 0000.0001) // Begin MONITOR dynamic field statistics
(PID.TID 0000.0001) // =======================================================
(PID.TID 0000.0001) %MON time_tsnumber                =                     2
(PID.TID 0000.0001) %MON time_secondsf                =   7.2000000000000E+03
(PID.TID 0000.0001) %MON dynstat_eta_max              =   2.4903625588713E-01
(PID.TID 0000.0001) %MON dynstat_eta_min              =  -5.9726478936201E-02
(PID.TID 0000.0001) %MON dynstat_eta_mean             =  -3.7193298339844E-17
(PID.TID 0000.0001) %MON dynstat_eta_sd               =   9.5953332915983E-02
(PID.TID 0000.0001) %MON dynstat_eta_del2             =   3.7847971964942E-03
(PID.TID 0000.0001) %MON dynstat_uvel_max             =   7.9673941524124E-02
(PID.TID 0000.0001) %MON dynstat_uvel_min             =  -7.9780069502322E-02
(PID.TID 0000.0001) %MON dynstat_uvel_mean            =   1.0428601290118E-04
(PID.TID 0000.0001) %MON dynstat_uvel_sd              =   1.0846970768057E-02
(PID.TID 0000.0001) %MON dynstat_uvel_del2            =   2.9986295209911E-04
(PID.TID 0000.0001) %MON dynstat_vvel_max             =   4.5886995118145E-03
(PID.TID 0000.0001) %MON dynstat_vvel_min             =  -4.9002118126398E-03
(PID.TID 0000.0001) %MON dynstat_vvel_mean            =   7.8963818242392E-05
(PID.TID 0000.0001) %MON dynstat_vvel_sd              =   2.2593512575840E-03
(PID.TID 0000.0001) %MON dynstat_vvel_del2            =   4.4217191326493E-05
(PID.TID 0000.0001) %MON dynstat_wvel_max             =   2.7928915870619E-05
(PID.TID 0000.0001) %MON dynstat_wvel_min             =  -9.2703366140483E-06
(PID.TID 0000.0001) %MON dynstat_wvel_mean            =  -4.3581873514199E-08
(PID.TID 0000.0001) %MON dynstat_wvel_sd              =   7.5423461259758E-06
(PID.TID 0000.0001) %MON dynstat_wvel_del2            =   1.7571982289883E-07
(PID.TID 0000.0001) %MON dynstat_theta_max            =   1.2068696794663E+01
(PID.TID 0000.0001) %MON dynstat_theta_min            =   5.2161112666634E+00
(PID.TID 0000.0001) %MON dynstat_theta_mean           =   7.8249624431720E+00
(PID.TID 0000.0001) %MON dynstat_theta_sd             =   1.4898147784871E+00
(PID.TID 0000.0001) %MON dynstat_theta_del2           =   4.1301567692433E-03
(PID.TID 0000.0001) %MON dynstat_salt_max             =   1.1996760266645E+01
(PID.TID 0000.0001) %MON dynstat_salt_min             =   1.0464111173739E+01
(PID.TID 0000.0001) %MON dynstat_salt_mean            =   1.1305174699818E+01
(PID.TID 0000.0001) %MON dynstat_salt_sd              =   5.1672595748783E-01
(PID.TID 0000.0001) %MON dynstat_salt_del2            =   5.5236482818383E-04
(PID.TID 0000.0001) %MON advcfl_uvel_max              =   2.8720825020836E-03
(PID.TID 0000.0001) %MON advcfl_vvel_max              =   1.7640762525503E-04
(PID.TID 0000.0001) %MON advcfl_wvel_max              =   4.2252628827785E-03
(PID.TID 0000.0001) %MON advcfl_W_hf_max              =   4.9951738984974E-02
(PID.TID 0000.0001) %MON pe_b_mean                    =   2.0666559250889E-05
(PID.TID 0000.0001) %MON ke_max                       =   3.1825070610206E-03
(PID.TID 0000.0001) %MON ke_mean                      =   6.1289885023911E-05
(PID.TID 0000.0001) %MON ke_vol                       =   6.5555965471909E+14
(PID.TID 0000.0001) // =======================================================
(PID.TID 0000.0001) // End MONITOR dynamic field statistics
(PID.TID 0000.0001) // =======================================================
 cg2d: Sum(rhs),rhsMax =   4.85722573273506E-16  5.55053764158290E-01
(PID.TID 0000.0001)      cg2d_init_res =   1.35014981960376E-01
(PID.TID 0000.0001)      cg2d_iters(min,last) =      -1      28
(PID.TID 0000.0001)      cg2d_last_res =   3.58046376983830E-16
(PID.TID 0000.0001) // =======================================================
(PID.TID 0000.0001) // Begin MONITOR dynamic field statistics
(PID.TID 0000.0001) // =======================================================
(PID.TID 0000.0001) %MON time_tsnumber                =                     3
(PID.TID 0000.0001) %MON time_secondsf                =   1.0800000000000E+04
(PID.TID 0000.0001) %MON dynstat_eta_max              =   2.4970228332610E-01
(PID.TID 0000.0001) %MON dynstat_eta_min              =  -6.7801246762726E-02
(PID.TID 0000.0001) %MON dynstat_eta_mean             =  -4.8478444417318E-16
(PID.TID 0000.0001) %MON dynstat_eta_sd               =   9.8730237457949E-02
(PID.TID 0000.0001) %MON dynstat_eta_del2             =   3.5609676914481E-03
(PID.TID 0000.0001) %MON dynstat_uvel_max             =   7.9929371747736E-02
(PID.TID 0000.0001) %MON dynstat_uvel_min             =  -8.0126522344931E-02
(PID.TID 0000.0001) %MON dynstat_uvel_mean            =   1.0858064837612E-04
(PID.TID 0000.0001) %MON dynstat_uvel_sd              =   1.1035111245488E-02
(PID.TID 0000.0001) %MON dynstat_uvel_del2            =   3.1454014707482E-04
(PID.TID 0000.0001) %MON dynstat_vvel_max             =   8.6440372742584E-03
(PID.TID 0000.0001) %MON dynstat_vvel_min             =  -9.2314197739910E-03
(PID.TID 0000.0001) %MON dynstat_vvel_mean            =  -1.1276426007399E-04
(PID.TID 0000.0001) %MON dynstat_vvel_sd              =   1.2065564489002E-03
(PID.TID 0000.0001) %MON dynstat_vvel_del2            =   6.2097005260626E-05
(PID.TID 0000.0001) %MON dynstat_wvel_max             =   1.7165838349389E-05
(PID.TID 0000.0001) %MON dynstat_wvel_min             =  -1.6167276359952E-05
(PID.TID 0000.0001) %MON dynstat_wvel_mean            =  -3.7154161771268E-09
(PID.TID 0000.0001) %MON dynstat_wvel_sd              =   5.4848691650155E-06
(PID.TID 0000.0001) %MON dynstat_wvel_del2            =   2.3379439559141E-07
(PID.TID 0000.0001) %MON dynstat_theta_max            =   1.2069721707167E+01
(PID.TID 0000.0001) %MON dynstat_theta_min            =   5.2161156222956E+00
(PID.TID 0000.0001) %MON dynstat_theta_mean           =   7.8249569770110E+00
(PID.TID 0000.0001) %MON dynstat_theta_sd             =   1.4898044227790E+00
(PID.TID 0000.0001) %MON dynstat_theta_del2           =   4.1292114348616E-03
(PID.TID 0000.0001) %MON dynstat_salt_max             =   1.1996865975297E+01
(PID.TID 0000.0001) %MON dynstat_salt_min             =   1.0464477381427E+01
(PID.TID 0000.0001) %MON dynstat_salt_mean            =   1.1305167419260E+01
(PID.TID 0000.0001) %MON dynstat_salt_sd              =   5.1671787966048E-01
(PID.TID 0000.0001) %MON dynstat_salt_del2            =   5.5239358180753E-04
(PID.TID 0000.0001) %MON advcfl_uvel_max              =   2.8845548044175E-03
(PID.TID 0000.0001) %MON advcfl_vvel_max              =   3.3233111186367E-04
(PID.TID 0000.0001) %MON advcfl_wvel_max              =   1.7070126839052E-03
(PID.TID 0000.0001) %MON advcfl_W_hf_max              =   8.5391507665842E-03
(PID.TID 0000.0001) %MON pe_b_mean                    =   2.1880055118597E-05
(PID.TID 0000.0001) %MON ke_max                       =   3.2138147127806E-03
(PID.TID 0000.0001) %MON ke_mean                      =   6.1598424252198E-05
(PID.TID 0000.0001) %MON ke_vol                       =   6.5555965471909E+14
(PID.TID 0000.0001) // =======================================================
(PID.TID 0000.0001) // End MONITOR dynamic field statistics
(PID.TID 0000.0001) // =======================================================
 cg2d: Sum(rhs),rhsMax =   8.24340595784179E-15  5.37248443227340E-01
(PID.TID 0000.0001)      cg2d_init_res =   8.32116196389891E-02
(PID.TID 0000.0001)      cg2d_iters(min,last) =      -1      28
(PID.TID 0000.0001)      cg2d_last_res =   1.78289654582397E-16
(PID.TID 0000.0001) // =======================================================
(PID.TID 0000.0001) // Begin MONITOR dynamic field statistics
(PID.TID 0000.0001) // =======================================================
(PID.TID 0000.0001) %MON time_tsnumber                =                     4
(PID.TID 0000.0001) %MON time_secondsf                =   1.4400000000000E+04
(PID.TID 0000.0001) %MON dynstat_eta_max              =   2.3261620078224E-01
(PID.TID 0000.0001) %MON dynstat_eta_min              =  -5.8416999673759E-02
(PID.TID 0000.0001) %MON dynstat_eta_mean             =  -5.7601928710937E-16
(PID.TID 0000.0001) %MON dynstat_eta_sd               =   9.0382632051604E-02
(PID.TID 0000.0001) %MON dynstat_eta_del2             =   3.4852872391029E-03
(PID.TID 0000.0001) %MON dynstat_uvel_max             =   8.2001550536770E-02
(PID.TID 0000.0001) %MON dynstat_uvel_min             =  -8.2528339049054E-02
(PID.TID 0000.0001) %MON dynstat_uvel_mean            =   2.9241491823699E-05
(PID.TID 0000.0001) %MON dynstat_uvel_sd              =   1.1400412347318E-02
(PID.TID 0000.0001) %MON dynstat_uvel_del2            =   3.3212149576181E-04
(PID.TID 0000.0001) %MON dynstat_vvel_max             =   1.0422738425381E-02
(PID.TID 0000.0001) %MON dynstat_vvel_min             =  -1.1176700257695E-02
(PID.TID 0000.0001) %MON dynstat_vvel_mean            =  -1.5490852520629E-04
(PID.TID 0000.0001) %MON dynstat_vvel_sd              =   1.3386106752362E-03
(PID.TID 0000.0001) %MON dynstat_vvel_del2            =   7.3693017810250E-05
(PID.TID 0000.0001) %MON dynstat_wvel_max             =   1.5946413887346E-05
(PID.TID 0000.0001) %MON dynstat_wvel_min             =  -2.2568300302673E-05
(PID.TID 0000.0001) %MON dynstat_wvel_mean            =   1.0451995240681E-08
(PID.TID 0000.0001) %MON dynstat_wvel_sd              =   6.4972267955477E-06
(PID.TID 0000.0001) %MON dynstat_wvel_del2            =   2.8783757565443E-07
(PID.TID 0000.0001) %MON dynstat_theta_max            =   1.2070883616790E+01
(PID.TID 0000.0001) %MON dynstat_theta_min            =   5.2161120922471E+00
(PID.TID 0000.0001) %MON dynstat_theta_mean           =   7.8249620919036E+00
(PID.TID 0000.0001) %MON dynstat_theta_sd             =   1.4898146607920E+00
(PID.TID 0000.0001) %MON dynstat_theta_del2           =   4.1280339123773E-03
(PID.TID 0000.0001) %MON dynstat_salt_max             =   1.1996968573894E+01
(PID.TID 0000.0001) %MON dynstat_salt_min             =   1.0464560318236E+01
(PID.TID 0000.0001) %MON dynstat_salt_mean            =   1.1305168842415E+01
(PID.TID 0000.0001) %MON dynstat_salt_sd              =   5.1671066403509E-01
(PID.TID 0000.0001) %MON dynstat_salt_del2            =   5.5245974792242E-04
(PID.TID 0000.0001) %MON advcfl_uvel_max              =   2.9710202057660E-03
(PID.TID 0000.0001) %MON advcfl_vvel_max              =   4.0236120927701E-04
(PID.TID 0000.0001) %MON advcfl_wvel_max              =   1.5765900857718E-03
(PID.TID 0000.0001) %MON advcfl_W_hf_max              =   1.3129659998216E-02
(PID.TID 0000.0001) %MON pe_b_mean                    =   1.8336566479189E-05
(PID.TID 0000.0001) %MON ke_max                       =   3.4327686118640E-03
(PID.TID 0000.0001) %MON ke_mean                      =   6.5857752597617E-05
(PID.TID 0000.0001) %MON ke_vol                       =   6.5555965471909E+14
(PID.TID 0000.0001) // =======================================================
(PID.TID 0000.0001) // End MONITOR dynamic field statistics
(PID.TID 0000.0001) // =======================================================
 cg2d: Sum(rhs),rhsMax =   9.32587340685131E-15  5.29639505907390E-01
(PID.TID 0000.0001)      cg2d_init_res =   6.79987065422486E-02
(PID.TID 0000.0001)      cg2d_iters(min,last) =      -1      28
(PID.TID 0000.0001)      cg2d_last_res =   4.01133830009813E-16
(PID.TID 0000.0001) // =======================================================
(PID.TID 0000.0001) // Begin MONITOR dynamic field statistics
(PID.TID 0000.0001) // =======================================================
(PID.TID 0000.0001) %MON time_tsnumber                =                     5
(PID.TID 0000.0001) %MON time_secondsf                =   1.8000000000000E+04
(PID.TID 0000.0001) %MON dynstat_eta_max              =   2.1970499496620E-01
(PID.TID 0000.0001) %MON dynstat_eta_min              =  -4.8620219794136E-02
(PID.TID 0000.0001) %MON dynstat_eta_mean             =  -8.0744425455729E-16
(PID.TID 0000.0001) %MON dynstat_eta_sd               =   8.3476042863949E-02
(PID.TID 0000.0001) %MON dynstat_eta_del2             =   3.4851817219948E-03
(PID.TID 0000.0001) %MON dynstat_uvel_max             =   8.4945222503654E-02
(PID.TID 0000.0001) %MON dynstat_uvel_min             =  -8.5721985658312E-02
(PID.TID 0000.0001) %MON dynstat_uvel_mean            =  -3.3899766300306E-05
(PID.TID 0000.0001) %MON dynstat_uvel_sd              =   1.1749358480292E-02
(PID.TID 0000.0001) %MON dynstat_uvel_del2            =   3.5048480473652E-04
(PID.TID 0000.0001) %MON dynstat_vvel_max             =   1.0671912769948E-02
(PID.TID 0000.0001) %MON dynstat_vvel_min             =  -1.1259083028459E-02
(PID.TID 0000.0001) %MON dynstat_vvel_mean            =  -6.0503693853687E-05
(PID.TID 0000.0001) %MON dynstat_vvel_sd              =   1.3719815273106E-03
(PID.TID 0000.0001) %MON dynstat_vvel_del2            =   7.9490351159095E-05
(PID.TID 0000.0001) %MON dynstat_wvel_max             =   1.6080782472247E-05
(PID.TID 0000.0001) %MON dynstat_wvel_min             =  -2.3388528103519E-05
(PID.TID 0000.0001) %MON dynstat_wvel_mean            =   9.0049183079325E-09
(PID.TID 0000.0001) %MON dynstat_wvel_sd              =   6.7814906829506E-06
(PID.TID 0000.0001) %MON dynstat_wvel_del2            =   3.2103992018786E-07
(PID.TID 0000.0001) %MON dynstat_theta_max            =   1.2071966409334E+01
(PID.TID 0000.0001) %MON dynstat_theta_min            =   5.2161116433650E+00
(PID.TID 0000.0001) %MON dynstat_theta_mean           =   7.8249666115030E+00
(PID.TID 0000.0001) %MON dynstat_theta_sd             =   1.4898232195382E+00
(PID.TID 0000.0001) %MON dynstat_theta_del2           =   4.1264775797299E-03
(PID.TID 0000.0001) %MON dynstat_salt_max             =   1.1997066683532E+01
(PID.TID 0000.0001) %MON dynstat_salt_min             =   1.0464420140565E+01
(PID.TID 0000.0001) %MON dynstat_salt_mean            =   1.1305173130994E+01
(PID.TID 0000.0001) %MON dynstat_salt_sd              =   5.1670227145534E-01
(PID.TID 0000.0001) %MON dynstat_salt_del2            =   5.5256194290110E-04
(PID.TID 0000.0001) %MON advcfl_uvel_max              =   3.0859914836992E-03
(PID.TID 0000.0001) %MON advcfl_vvel_max              =   4.0532698902451E-04
(PID.TID 0000.0001) %MON advcfl_wvel_max              =   1.6263039513176E-03
(PID.TID 0000.0001) %MON advcfl_W_hf_max              =   1.2430358683842E-02
(PID.TID 0000.0001) %MON pe_b_mean                    =   1.5641260726091E-05
(PID.TID 0000.0001) %MON ke_max                       =   3.7008245227847E-03
(PID.TID 0000.0001) %MON ke_mean                      =   6.9930606973071E-05
(PID.TID 0000.0001) %MON ke_vol                       =   6.5555965471909E+14
(PID.TID 0000.0001) // =======================================================
(PID.TID 0000.0001) // End MONITOR dynamic field statistics
(PID.TID 0000.0001) // =======================================================
 cg2d: Sum(rhs),rhsMax =   1.55812862612237E-14  5.27379048542406E-01
(PID.TID 0000.0001)      cg2d_init_res =   2.58573219533937E-02
(PID.TID 0000.0001)      cg2d_iters(min,last) =      -1      28
(PID.TID 0000.0001)      cg2d_last_res =   1.52027298286504E-16
(PID.TID 0000.0001) // =======================================================
(PID.TID 0000.0001) // Begin MONITOR dynamic field statistics
(PID.TID 0000.0001) // =======================================================
(PID.TID 0000.0001) %MON time_tsnumber                =                     6
(PID.TID 0000.0001) %MON time_secondsf                =   2.1600000000000E+04
(PID.TID 0000.0001) %MON dynstat_eta_max              =   2.1567425220402E-01
(PID.TID 0000.0001) %MON dynstat_eta_min              =  -4.9587461331360E-02
(PID.TID 0000.0001) %MON dynstat_eta_mean             =  -9.7084045410156E-16
(PID.TID 0000.0001) %MON dynstat_eta_sd               =   8.1390580617425E-02
(PID.TID 0000.0001) %MON dynstat_eta_del2             =   3.4862492895568E-03
(PID.TID 0000.0001) %MON dynstat_uvel_max             =   8.7582409160670E-02
(PID.TID 0000.0001) %MON dynstat_uvel_min             =  -8.8487073981706E-02
(PID.TID 0000.0001) %MON dynstat_uvel_mean            =  -3.5748565685136E-05
(PID.TID 0000.0001) %MON dynstat_uvel_sd              =   1.2050757486971E-02
(PID.TID 0000.0001) %MON dynstat_uvel_del2            =   3.6835048968054E-04
(PID.TID 0000.0001) %MON dynstat_vvel_max             =   9.7622233484589E-03
(PID.TID 0000.0001) %MON dynstat_vvel_min             =  -9.9924625998219E-03
(PID.TID 0000.0001) %MON dynstat_vvel_mean            =   5.1946949829537E-05
(PID.TID 0000.0001) %MON dynstat_vvel_sd              =   1.1255742258879E-03
(PID.TID 0000.0001) %MON dynstat_vvel_del2            =   7.9667171244716E-05
(PID.TID 0000.0001) %MON dynstat_wvel_max             =   1.5248830597227E-05
(PID.TID 0000.0001) %MON dynstat_wvel_min             =  -2.1560275720404E-05
(PID.TID 0000.0001) %MON dynstat_wvel_mean            =   2.9187029094621E-09
(PID.TID 0000.0001) %MON dynstat_wvel_sd              =   6.1823508538569E-06
(PID.TID 0000.0001) %MON dynstat_wvel_del2            =   3.3538049723256E-07
(PID.TID 0000.0001) %MON dynstat_theta_max            =   1.2072961478937E+01
(PID.TID 0000.0001) %MON dynstat_theta_min            =   5.2161115665763E+00
(PID.TID 0000.0001) %MON dynstat_theta_mean           =   7.8249685225155E+00
(PID.TID 0000.0001) %MON dynstat_theta_sd             =   1.4898266428153E+00
(PID.TID 0000.0001) %MON dynstat_theta_del2           =   4.1249320968539E-03
(PID.TID 0000.0001) %MON dynstat_salt_max             =   1.1997159694731E+01
(PID.TID 0000.0001) %MON dynstat_salt_min             =   1.0464574808204E+01
(PID.TID 0000.0001) %MON dynstat_salt_mean            =   1.1305175571138E+01
(PID.TID 0000.0001) %MON dynstat_salt_sd              =   5.1669353248787E-01
(PID.TID 0000.0001) %MON dynstat_salt_del2            =   5.5265463535163E-04
(PID.TID 0000.0001) %MON advcfl_uvel_max              =   3.1855346633414E-03
(PID.TID 0000.0001) %MON advcfl_vvel_max              =   3.5972865359359E-04
(PID.TID 0000.0001) %MON advcfl_wvel_max              =   1.2682723763589E-03
(PID.TID 0000.0001) %MON advcfl_W_hf_max              =   4.0557110462163E-03
(PID.TID 0000.0001) %MON pe_b_mean                    =   1.4869499199980E-05
(PID.TID 0000.0001) %MON ke_max                       =   3.9346953936856E-03
(PID.TID 0000.0001) %MON ke_mean                      =   7.3221134642830E-05
(PID.TID 0000.0001) %MON ke_vol                       =   6.5555965471909E+14
(PID.TID 0000.0001) // =======================================================
(PID.TID 0000.0001) // End MONITOR dynamic field statistics
(PID.TID 0000.0001) // =======================================================
 cg2d: Sum(rhs),rhsMax =   1.76005043872607E-14  5.28677053007575E-01
(PID.TID 0000.0001)      cg2d_init_res =   1.21809912187597E-02
(PID.TID 0000.0001)      cg2d_iters(min,last) =      -1      28
(PID.TID 0000.0001)      cg2d_last_res =   4.88576138071473E-16
(PID.TID 0000.0001) // =======================================================
(PID.TID 0000.0001) // Begin MONITOR dynamic field statistics
(PID.TID 0000.0001) // =======================================================
(PID.TID 0000.0001) %MON time_tsnumber                =                     7
(PID.TID 0000.0001) %MON time_secondsf                =   2.5200000000000E+04
(PID.TID 0000.0001) %MON dynstat_eta_max              =   2.1775288608211E-01
(PID.TID 0000.0001) %MON dynstat_eta_min              =  -4.9612572374163E-02
(PID.TID 0000.0001) %MON dynstat_eta_mean             =  -1.0137557983398E-15
(PID.TID 0000.0001) %MON dynstat_eta_sd               =   8.2474440664401E-02
(PID.TID 0000.0001) %MON dynstat_eta_del2             =   3.4855733256433E-03
(PID.TID 0000.0001) %MON dynstat_uvel_max             =   8.9684094754103E-02
(PID.TID 0000.0001) %MON dynstat_uvel_min             =  -9.0562187486835E-02
(PID.TID 0000.0001) %MON dynstat_uvel_mean            =   5.5273906366384E-06
(PID.TID 0000.0001) %MON dynstat_uvel_sd              =   1.2272412935549E-02
(PID.TID 0000.0001) %MON dynstat_uvel_del2            =   3.8386993614182E-04
(PID.TID 0000.0001) %MON dynstat_vvel_max             =   7.9074310462833E-03
(PID.TID 0000.0001) %MON dynstat_vvel_min             =  -7.8464748396643E-03
(PID.TID 0000.0001) %MON dynstat_vvel_mean            =   1.0494915340098E-04
(PID.TID 0000.0001) %MON dynstat_vvel_sd              =   8.6438628350072E-04
(PID.TID 0000.0001) %MON dynstat_vvel_del2            =   7.5458200696725E-05
(PID.TID 0000.0001) %MON dynstat_wvel_max             =   1.5335632192306E-05
(PID.TID 0000.0001) %MON dynstat_wvel_min             =  -1.8510267917741E-05
(PID.TID 0000.0001) %MON dynstat_wvel_mean            =  -1.4905800952094E-09
(PID.TID 0000.0001) %MON dynstat_wvel_sd              =   5.2101166240477E-06
(PID.TID 0000.0001) %MON dynstat_wvel_del2            =   3.3389648467043E-07
(PID.TID 0000.0001) %MON dynstat_theta_max            =   1.2073879266427E+01
(PID.TID 0000.0001) %MON dynstat_theta_min            =   5.2161111568471E+00
(PID.TID 0000.0001) %MON dynstat_theta_mean           =   7.8249683439425E+00
(PID.TID 0000.0001) %MON dynstat_theta_sd             =   1.4898260350577E+00
(PID.TID 0000.0001) %MON dynstat_theta_del2           =   4.1235429259540E-03
(PID.TID 0000.0001) %MON dynstat_salt_max             =   1.1997247653887E+01
(PID.TID 0000.0001) %MON dynstat_salt_min             =   1.0464535065017E+01
(PID.TID 0000.0001) %MON dynstat_salt_mean            =   1.1305175506942E+01
(PID.TID 0000.0001) %MON dynstat_salt_sd              =   5.1668502027016E-01
(PID.TID 0000.0001) %MON dynstat_salt_del2            =   5.5272599437142E-04
(PID.TID 0000.0001) %MON advcfl_uvel_max              =   3.2602387495261E-03
(PID.TID 0000.0001) %MON advcfl_vvel_max              =   2.8466751766620E-04
(PID.TID 0000.0001) %MON advcfl_wvel_max              =   9.5816205446909E-04
(PID.TID 0000.0001) %MON advcfl_W_hf_max              =   2.5049543391348E-03
(PID.TID 0000.0001) %MON pe_b_mean                    =   1.5268163654465E-05
(PID.TID 0000.0001) %MON ke_max                       =   4.1120200302967E-03
(PID.TID 0000.0001) %MON ke_mean                      =   7.5670419584431E-05
(PID.TID 0000.0001) %MON ke_vol                       =   6.5555965471909E+14
(PID.TID 0000.0001) // =======================================================
(PID.TID 0000.0001) // End MONITOR dynamic field statistics
(PID.TID 0000.0001) // =======================================================
 cg2d: Sum(rhs),rhsMax =   1.76247905159244E-14  5.30850369849857E-01
(PID.TID 0000.0001)      cg2d_init_res =   1.85139983446492E-02
(PID.TID 0000.0001)      cg2d_iters(min,last) =      -1      28
(PID.TID 0000.0001)      cg2d_last_res =   7.33778843151839E-16
(PID.TID 0000.0001) // =======================================================
(PID.TID 0000.0001) // Begin MONITOR dynamic field statistics
(PID.TID 0000.0001) // =======================================================
(PID.TID 0000.0001) %MON time_tsnumber                =                     8
(PID.TID 0000.0001) %MON time_secondsf                =   2.8800000000000E+04
(PID.TID 0000.0001) %MON dynstat_eta_max              =   2.2111405083425E-01
(PID.TID 0000.0001) %MON dynstat_eta_min              =  -5.0549423075670E-02
(PID.TID 0000.0001) %MON dynstat_eta_mean             =  -1.1409123738607E-15
(PID.TID 0000.0001) %MON dynstat_eta_sd               =   8.4224799623817E-02
(PID.TID 0000.0001) %MON dynstat_eta_del2             =   3.4857813393647E-03
(PID.TID 0000.0001) %MON dynstat_uvel_max             =   9.1067447047492E-02
(PID.TID 0000.0001) %MON dynstat_uvel_min             =  -9.1840146361425E-02
(PID.TID 0000.0001) %MON dynstat_uvel_mean            =   5.3038173082735E-05
(PID.TID 0000.0001) %MON dynstat_uvel_sd              =   1.2398458379024E-02
(PID.TID 0000.0001) %MON dynstat_uvel_del2            =   3.9540703410869E-04
(PID.TID 0000.0001) %MON dynstat_vvel_max             =   5.3605863934601E-03
(PID.TID 0000.0001) %MON dynstat_vvel_min             =  -5.1949666716302E-03
(PID.TID 0000.0001) %MON dynstat_vvel_mean            =   9.0915450695546E-05
(PID.TID 0000.0001) %MON dynstat_vvel_sd              =   5.8225396835188E-04
(PID.TID 0000.0001) %MON dynstat_vvel_del2            =   6.9097921498939E-05
(PID.TID 0000.0001) %MON dynstat_wvel_max             =   1.3652822143481E-05
(PID.TID 0000.0001) %MON dynstat_wvel_min             =  -1.4881021920619E-05
(PID.TID 0000.0001) %MON dynstat_wvel_mean            =  -2.3712071460512E-09
(PID.TID 0000.0001) %MON dynstat_wvel_sd              =   4.0327997417267E-06
(PID.TID 0000.0001) %MON dynstat_wvel_del2            =   3.2099076236327E-07
(PID.TID 0000.0001) %MON dynstat_theta_max            =   1.2074738949267E+01
(PID.TID 0000.0001) %MON dynstat_theta_min            =   5.2161111421938E+00
(PID.TID 0000.0001) %MON dynstat_theta_mean           =   7.8249673571511E+00
(PID.TID 0000.0001) %MON dynstat_theta_sd             =   1.4898238616070E+00
(PID.TID 0000.0001) %MON dynstat_theta_del2           =   4.1223894195318E-03
(PID.TID 0000.0001) %MON dynstat_salt_max             =   1.1997330921240E+01
(PID.TID 0000.0001) %MON dynstat_salt_min             =   1.0464495807474E+01
(PID.TID 0000.0001) %MON dynstat_salt_mean            =   1.1305174446594E+01
(PID.TID 0000.0001) %MON dynstat_salt_sd              =   5.1667664080941E-01
(PID.TID 0000.0001) %MON dynstat_salt_del2            =   5.5281532989777E-04
(PID.TID 0000.0001) %MON advcfl_uvel_max              =   3.3062452690113E-03
(PID.TID 0000.0001) %MON advcfl_vvel_max              =   1.9298111016456E-04
(PID.TID 0000.0001) %MON advcfl_wvel_max              =   8.8167233831073E-04
(PID.TID 0000.0001) %MON advcfl_W_hf_max              =   3.8239392647747E-03
(PID.TID 0000.0001) %MON pe_b_mean                    =   1.5923114626599E-05
(PID.TID 0000.0001) %MON ke_max                       =   4.2219768377641E-03
(PID.TID 0000.0001) %MON ke_mean                      =   7.7029180596678E-05
(PID.TID 0000.0001) %MON ke_vol                       =   6.5555965471909E+14
(PID.TID 0000.0001) // =======================================================
(PID.TID 0000.0001) // End MONITOR dynamic field statistics
(PID.TID 0000.0001) // =======================================================
 cg2d: Sum(rhs),rhsMax =   2.02372840707454E-14  5.32027742920738E-01
(PID.TID 0000.0001)      cg2d_init_res =   8.93819970537901E-03
(PID.TID 0000.0001)      cg2d_iters(min,last) =      -1      28
(PID.TID 0000.0001)      cg2d_last_res =   7.32637502066610E-16
(PID.TID 0000.0001) // =======================================================
(PID.TID 0000.0001) // Begin MONITOR dynamic field statistics
(PID.TID 0000.0001) // =======================================================
(PID.TID 0000.0001) %MON time_tsnumber                =                     9
(PID.TID 0000.0001) %MON time_secondsf                =   3.2400000000000E+04
(PID.TID 0000.0001) %MON dynstat_eta_max              =   2.2281700952001E-01
(PID.TID 0000.0001) %MON dynstat_eta_min              =  -5.1164279227426E-02
(PID.TID 0000.0001) %MON dynstat_eta_mean             =  -1.0945002237956E-15
(PID.TID 0000.0001) %MON dynstat_eta_sd               =   8.5073487260986E-02
(PID.TID 0000.0001) %MON dynstat_eta_del2             =   3.4858494197764E-03
(PID.TID 0000.0001) %MON dynstat_uvel_max             =   9.1625063935484E-02
(PID.TID 0000.0001) %MON dynstat_uvel_min             =  -9.2301318224580E-02
(PID.TID 0000.0001) %MON dynstat_uvel_mean            =   8.1758491415317E-05
(PID.TID 0000.0001) %MON dynstat_uvel_sd              =   1.2423476411327E-02
(PID.TID 0000.0001) %MON dynstat_uvel_del2            =   4.0186616214325E-04
(PID.TID 0000.0001) %MON dynstat_vvel_max             =   4.4593533887480E-03
(PID.TID 0000.0001) %MON dynstat_vvel_min             =  -4.5143128198942E-03
(PID.TID 0000.0001) %MON dynstat_vvel_mean            =   4.0393207837965E-05
(PID.TID 0000.0001) %MON dynstat_vvel_sd              =   3.7550742256692E-04
(PID.TID 0000.0001) %MON dynstat_vvel_del2            =   6.3509376091714E-05
(PID.TID 0000.0001) %MON dynstat_wvel_max             =   1.0915038333076E-05
(PID.TID 0000.0001) %MON dynstat_wvel_min             =  -1.0714599471827E-05
(PID.TID 0000.0001) %MON dynstat_wvel_mean            =  -1.1253486952279E-09
(PID.TID 0000.0001) %MON dynstat_wvel_sd              =   3.1138808614151E-06
(PID.TID 0000.0001) %MON dynstat_wvel_del2            =   3.0233566680146E-07
(PID.TID 0000.0001) %MON dynstat_theta_max            =   1.2075560313525E+01
(PID.TID 0000.0001) %MON dynstat_theta_min            =   5.2161103174647E+00
(PID.TID 0000.0001) %MON dynstat_theta_mean           =   7.8249666629018E+00
(PID.TID 0000.0001) %MON dynstat_theta_sd             =   1.4898222559561E+00
(PID.TID 0000.0001) %MON dynstat_theta_del2           =   4.1215326821863E-03
(PID.TID 0000.0001) %MON dynstat_salt_max             =   1.1997410017940E+01
(PID.TID 0000.0001) %MON dynstat_salt_min             =   1.0464458559481E+01
(PID.TID 0000.0001) %MON dynstat_salt_mean            =   1.1305173709913E+01
(PID.TID 0000.0001) %MON dynstat_salt_sd              =   5.1666824166369E-01
(PID.TID 0000.0001) %MON dynstat_salt_del2            =   5.5292139041327E-04
(PID.TID 0000.0001) %MON advcfl_uvel_max              =   3.3228474560849E-03
(PID.TID 0000.0001) %MON advcfl_vvel_max              =   1.6251526151619E-04
(PID.TID 0000.0001) %MON advcfl_wvel_max              =   6.9266651719496E-04
(PID.TID 0000.0001) %MON advcfl_W_hf_max              =   1.9428967706984E-03
(PID.TID 0000.0001) %MON pe_b_mean                    =   1.6245628564484E-05
(PID.TID 0000.0001) %MON ke_max                       =   4.2612328611706E-03
(PID.TID 0000.0001) %MON ke_mean                      =   7.7243270140544E-05
(PID.TID 0000.0001) %MON ke_vol                       =   6.5555965471909E+14
(PID.TID 0000.0001) // =======================================================
(PID.TID 0000.0001) // End MONITOR dynamic field statistics
(PID.TID 0000.0001) // =======================================================
 cg2d: Sum(rhs),rhsMax =   1.91444082808800E-14  5.32122413852794E-01
(PID.TID 0000.0001)      cg2d_init_res =   2.54948116214806E-03
(PID.TID 0000.0001)      cg2d_iters(min,last) =      -1      28
(PID.TID 0000.0001)      cg2d_last_res =   6.78325983782281E-16
(PID.TID 0000.0001) // =======================================================
(PID.TID 0000.0001) // Begin MONITOR dynamic field statistics
(PID.TID 0000.0001) // =======================================================
(PID.TID 0000.0001) %MON time_tsnumber                =                    10
(PID.TID 0000.0001) %MON time_secondsf                =   3.6000000000000E+04
(PID.TID 0000.0001) %MON dynstat_eta_max              =   2.2256152243371E-01
(PID.TID 0000.0001) %MON dynstat_eta_min              =  -5.1008639098498E-02
(PID.TID 0000.0001) %MON dynstat_eta_mean             =  -1.2041727701823E-15
(PID.TID 0000.0001) %MON dynstat_eta_sd               =   8.4940636865233E-02
(PID.TID 0000.0001) %MON dynstat_eta_del2             =   3.4853402881241E-03
(PID.TID 0000.0001) %MON dynstat_uvel_max             =   9.1333590668532E-02
(PID.TID 0000.0001) %MON dynstat_uvel_min             =  -9.1957413580537E-02
(PID.TID 0000.0001) %MON dynstat_uvel_mean            =   8.5339149866547E-05
(PID.TID 0000.0001) %MON dynstat_uvel_sd              =   1.2347472971950E-02
(PID.TID 0000.0001) %MON dynstat_uvel_del2            =   4.0278439320893E-04
(PID.TID 0000.0001) %MON dynstat_vvel_max             =   3.7882791023923E-03
(PID.TID 0000.0001) %MON dynstat_vvel_min             =  -3.7485345392662E-03
(PID.TID 0000.0001) %MON dynstat_vvel_mean            =  -1.1560568585961E-05
(PID.TID 0000.0001) %MON dynstat_vvel_sd              =   5.1157506567813E-04
(PID.TID 0000.0001) %MON dynstat_vvel_del2            =   6.1277694773703E-05
(PID.TID 0000.0001) %MON dynstat_wvel_max             =   9.8278047379988E-06
(PID.TID 0000.0001) %MON dynstat_wvel_min             =  -1.1493855577736E-05
(PID.TID 0000.0001) %MON dynstat_wvel_mean            =   1.7717351980889E-10
(PID.TID 0000.0001) %MON dynstat_wvel_sd              =   3.1660832701322E-06
(PID.TID 0000.0001) %MON dynstat_wvel_del2            =   2.8344641572549E-07
(PID.TID 0000.0001) %MON dynstat_theta_max            =   1.2076352113161E+01
(PID.TID 0000.0001) %MON dynstat_theta_min            =   5.2161103787090E+00
(PID.TID 0000.0001) %MON dynstat_theta_mean           =   7.8249665712137E+00
(PID.TID 0000.0001) %MON dynstat_theta_sd             =   1.4898218248054E+00
(PID.TID 0000.0001) %MON dynstat_theta_del2           =   4.1209943830724E-03
(PID.TID 0000.0001) %MON dynstat_salt_max             =   1.1997485392615E+01
(PID.TID 0000.0001) %MON dynstat_salt_min             =   1.0464421603059E+01
(PID.TID 0000.0001) %MON dynstat_salt_mean            =   1.1305173618769E+01
(PID.TID 0000.0001) %MON dynstat_salt_sd              =   5.1665979924942E-01
(PID.TID 0000.0001) %MON dynstat_salt_del2            =   5.5304461405992E-04
(PID.TID 0000.0001) %MON advcfl_uvel_max              =   3.3104668888993E-03
(PID.TID 0000.0001) %MON advcfl_vvel_max              =   1.3637804768612E-04
(PID.TID 0000.0001) %MON advcfl_wvel_max              =   6.2456666778220E-04
(PID.TID 0000.0001) %MON advcfl_W_hf_max              =   6.8702333456042E-04
(PID.TID 0000.0001) %MON pe_b_mean                    =   1.6194929971874E-05
(PID.TID 0000.0001) %MON ke_max                       =   4.2301460965268E-03
(PID.TID 0000.0001) %MON ke_mean                      =   7.6359515066969E-05
(PID.TID 0000.0001) %MON ke_vol                       =   6.5555965471909E+14
(PID.TID 0000.0001) // =======================================================
(PID.TID 0000.0001) // End MONITOR dynamic field statistics
(PID.TID 0000.0001) // =======================================================
 cg2d: Sum(rhs),rhsMax =   2.17950657521726E-14  5.31948576874445E-01
(PID.TID 0000.0001)      cg2d_init_res =   5.16848123283704E-03
(PID.TID 0000.0001)      cg2d_iters(min,last) =      -1      28
(PID.TID 0000.0001)      cg2d_last_res =   6.10837350163162E-16
(PID.TID 0000.0001) // =======================================================
(PID.TID 0000.0001) // Begin MONITOR dynamic field statistics
(PID.TID 0000.0001) // =======================================================
(PID.TID 0000.0001) %MON time_tsnumber                =                    11
(PID.TID 0000.0001) %MON time_secondsf                =   3.9600000000000E+04
(PID.TID 0000.0001) %MON dynstat_eta_max              =   2.2167233896117E-01
(PID.TID 0000.0001) %MON dynstat_eta_min              =  -5.0516963049270E-02
(PID.TID 0000.0001) %MON dynstat_eta_mean             =  -1.2884140014648E-15
(PID.TID 0000.0001) %MON dynstat_eta_sd               =   8.4493432955173E-02
(PID.TID 0000.0001) %MON dynstat_eta_del2             =   3.4849673237553E-03
(PID.TID 0000.0001) %MON dynstat_uvel_max             =   9.0264837670642E-02
(PID.TID 0000.0001) %MON dynstat_uvel_min             =  -9.0864838452209E-02
(PID.TID 0000.0001) %MON dynstat_uvel_mean            =   7.0637694007167E-05
(PID.TID 0000.0001) %MON dynstat_uvel_sd              =   1.2180205869603E-02
(PID.TID 0000.0001) %MON dynstat_uvel_del2            =   3.9835739714938E-04
(PID.TID 0000.0001) %MON dynstat_vvel_max             =   5.7261700695635E-03
(PID.TID 0000.0001) %MON dynstat_vvel_min             =  -5.7609158946415E-03
(PID.TID 0000.0001) %MON dynstat_vvel_mean            =  -4.3069479357154E-05
(PID.TID 0000.0001) %MON dynstat_vvel_sd              =   7.8058617374208E-04
(PID.TID 0000.0001) %MON dynstat_vvel_del2            =   6.2917305577587E-05
(PID.TID 0000.0001) %MON dynstat_wvel_max             =   1.0311219936763E-05
(PID.TID 0000.0001) %MON dynstat_wvel_min             =  -1.7634717642824E-05
(PID.TID 0000.0001) %MON dynstat_wvel_mean            =   5.9125103083041E-10
(PID.TID 0000.0001) %MON dynstat_wvel_sd              =   4.0106696376114E-06
(PID.TID 0000.0001) %MON dynstat_wvel_del2            =   2.6793139954541E-07
(PID.TID 0000.0001) %MON dynstat_theta_max            =   1.2077111887462E+01
(PID.TID 0000.0001) %MON dynstat_theta_min            =   5.2161116512927E+00
(PID.TID 0000.0001) %MON dynstat_theta_mean           =   7.8249668003613E+00
(PID.TID 0000.0001) %MON dynstat_theta_sd             =   1.4898220206458E+00
(PID.TID 0000.0001) %MON dynstat_theta_del2           =   4.1207528921349E-03
(PID.TID 0000.0001) %MON dynstat_salt_max             =   1.1997557229353E+01
(PID.TID 0000.0001) %MON dynstat_salt_min             =   1.0464384410925E+01
(PID.TID 0000.0001) %MON dynstat_salt_mean            =   1.1305173857952E+01
(PID.TID 0000.0001) %MON dynstat_salt_sd              =   5.1665134339115E-01
(PID.TID 0000.0001) %MON dynstat_salt_del2            =   5.5316644076428E-04
(PID.TID 0000.0001) %MON advcfl_uvel_max              =   3.2711341842795E-03
(PID.TID 0000.0001) %MON advcfl_vvel_max              =   2.0739297220709E-04
(PID.TID 0000.0001) %MON advcfl_wvel_max              =   9.7047203852513E-04
(PID.TID 0000.0001) %MON advcfl_W_hf_max              =   1.0675192423776E-03
(PID.TID 0000.0001) %MON pe_b_mean                    =   1.6024849526881E-05
(PID.TID 0000.0001) %MON ke_max                       =   4.1338729219781E-03
(PID.TID 0000.0001) %MON ke_mean                      =   7.4474901797179E-05
(PID.TID 0000.0001) %MON ke_vol                       =   6.5555965471909E+14
(PID.TID 0000.0001) // =======================================================
(PID.TID 0000.0001) // End MONITOR dynamic field statistics
(PID.TID 0000.0001) // =======================================================
 cg2d: Sum(rhs),rhsMax =   2.27283469822481E-14  5.32116907063542E-01
(PID.TID 0000.0001)      cg2d_init_res =   3.73984576578029E-03
(PID.TID 0000.0001)      cg2d_iters(min,last) =      -1      28
(PID.TID 0000.0001)      cg2d_last_res =   5.45161577886277E-16
(PID.TID 0000.0001) // =======================================================
(PID.TID 0000.0001) // Begin MONITOR dynamic field statistics
(PID.TID 0000.0001) // =======================================================
(PID.TID 0000.0001) %MON time_tsnumber                =                    12
(PID.TID 0000.0001) %MON time_secondsf                =   4.3200000000000E+04
(PID.TID 0000.0001) %MON dynstat_eta_max              =   2.2118263946745E-01
(PID.TID 0000.0001) %MON dynstat_eta_min              =  -5.0046991470269E-02
(PID.TID 0000.0001) %MON dynstat_eta_mean             =  -1.2241999308268E-15
(PID.TID 0000.0001) %MON dynstat_eta_sd               =   8.4239289172554E-02
(PID.TID 0000.0001) %MON dynstat_eta_del2             =   3.4853290002342E-03
(PID.TID 0000.0001) %MON dynstat_uvel_max             =   8.8657101999411E-02
(PID.TID 0000.0001) %MON dynstat_uvel_min             =  -8.9241073867230E-02
(PID.TID 0000.0001) %MON dynstat_uvel_mean            =   4.9361594910256E-05
(PID.TID 0000.0001) %MON dynstat_uvel_sd              =   1.1943901914958E-02
(PID.TID 0000.0001) %MON dynstat_uvel_del2            =   3.8939023516983E-04
(PID.TID 0000.0001) %MON dynstat_vvel_max             =   7.1381615761024E-03
(PID.TID 0000.0001) %MON dynstat_vvel_min             =  -7.1688618606374E-03
(PID.TID 0000.0001) %MON dynstat_vvel_mean            =  -4.8749662051265E-05
(PID.TID 0000.0001) %MON dynstat_vvel_sd              =   9.9623139458899E-04
(PID.TID 0000.0001) %MON dynstat_vvel_del2            =   6.6504109733887E-05
(PID.TID 0000.0001) %MON dynstat_wvel_max             =   1.5224850988346E-05
(PID.TID 0000.0001) %MON dynstat_wvel_min             =  -2.1711954436350E-05
(PID.TID 0000.0001) %MON dynstat_wvel_mean            =   3.3526554274527E-10
(PID.TID 0000.0001) %MON dynstat_wvel_sd              =   4.9201707566221E-06
(PID.TID 0000.0001) %MON dynstat_wvel_del2            =   2.5628068557025E-07
(PID.TID 0000.0001) %MON dynstat_theta_max            =   1.2077838537267E+01
(PID.TID 0000.0001) %MON dynstat_theta_min            =   5.2161140481429E+00
(PID.TID 0000.0001) %MON dynstat_theta_mean           =   7.8249670015132E+00
(PID.TID 0000.0001) %MON dynstat_theta_sd             =   1.4898221626507E+00
(PID.TID 0000.0001) %MON dynstat_theta_del2           =   4.1207510735290E-03
(PID.TID 0000.0001) %MON dynstat_salt_max             =   1.1997625893121E+01
(PID.TID 0000.0001) %MON dynstat_salt_min             =   1.0464347349474E+01
(PID.TID 0000.0001) %MON dynstat_salt_mean            =   1.1305174065460E+01
(PID.TID 0000.0001) %MON dynstat_salt_sd              =   5.1664289087654E-01
(PID.TID 0000.0001) %MON dynstat_salt_del2            =   5.5329883540902E-04
(PID.TID 0000.0001) %MON advcfl_uvel_max              =   3.2126786592203E-03
(PID.TID 0000.0001) %MON advcfl_vvel_max              =   2.5807902698295E-04
(PID.TID 0000.0001) %MON advcfl_wvel_max              =   1.1813049745791E-03
(PID.TID 0000.0001) %MON advcfl_W_hf_max              =   1.2994354720371E-03
(PID.TID 0000.0001) %MON pe_b_mean                    =   1.5928593739454E-05
(PID.TID 0000.0001) %MON ke_max                       =   3.9850654244022E-03
(PID.TID 0000.0001) %MON ke_mean                      =   7.1807694577369E-05
(PID.TID 0000.0001) %MON ke_vol                       =   6.5555965471909E+14
(PID.TID 0000.0001) // =======================================================
(PID.TID 0000.0001) // End MONITOR dynamic field statistics
(PID.TID 0000.0001) // =======================================================
 cg2d: Sum(rhs),rhsMax =   2.23085439010617E-14  5.32680857781279E-01
(PID.TID 0000.0001)      cg2d_init_res =   2.30541574443954E-03
(PID.TID 0000.0001)      cg2d_iters(min,last) =      -1      28
(PID.TID 0000.0001)      cg2d_last_res =   4.92125869161270E-16
(PID.TID 0000.0001) // =======================================================
(PID.TID 0000.0001) // Begin MONITOR dynamic field statistics
(PID.TID 0000.0001) // =======================================================
(PID.TID 0000.0001) %MON time_tsnumber                =                    13
(PID.TID 0000.0001) %MON time_secondsf                =   4.6800000000000E+04
(PID.TID 0000.0001) %MON dynstat_eta_max              =   2.2128230337581E-01
(PID.TID 0000.0001) %MON dynstat_eta_min              =  -4.9738716620239E-02
(PID.TID 0000.0001) %MON dynstat_eta_mean             =  -1.3182957967122E-15
(PID.TID 0000.0001) %MON dynstat_eta_sd               =   8.4255331272029E-02
(PID.TID 0000.0001) %MON dynstat_eta_del2             =   3.4863775811646E-03
(PID.TID 0000.0001) %MON dynstat_uvel_max             =   8.8730877064347E-02
(PID.TID 0000.0001) %MON dynstat_uvel_min             =  -8.9317717689851E-02
(PID.TID 0000.0001) %MON dynstat_uvel_mean            =   3.1599414423562E-05
(PID.TID 0000.0001) %MON dynstat_uvel_sd              =   1.1671597697972E-02
(PID.TID 0000.0001) %MON dynstat_uvel_del2            =   3.7717342130661E-04
(PID.TID 0000.0001) %MON dynstat_vvel_max             =   7.8320843503097E-03
(PID.TID 0000.0001) %MON dynstat_vvel_min             =  -7.8127907504047E-03
(PID.TID 0000.0001) %MON dynstat_vvel_mean            =  -3.4880489412322E-05
(PID.TID 0000.0001) %MON dynstat_vvel_sd              =   1.1071672926220E-03
(PID.TID 0000.0001) %MON dynstat_vvel_del2            =   6.9382974728745E-05
(PID.TID 0000.0001) %MON dynstat_wvel_max             =   1.8651584402028E-05
(PID.TID 0000.0001) %MON dynstat_wvel_min             =  -2.3373817273285E-05
(PID.TID 0000.0001) %MON dynstat_wvel_mean            =  -2.3986467960453E-11
(PID.TID 0000.0001) %MON dynstat_wvel_sd              =   5.4936044881766E-06
(PID.TID 0000.0001) %MON dynstat_wvel_del2            =   2.4629046004210E-07
(PID.TID 0000.0001) %MON dynstat_theta_max            =   1.2078535897789E+01
(PID.TID 0000.0001) %MON dynstat_theta_min            =   5.2161174778058E+00
(PID.TID 0000.0001) %MON dynstat_theta_mean           =   7.8249670447999E+00
(PID.TID 0000.0001) %MON dynstat_theta_sd             =   1.4898219966573E+00
(PID.TID 0000.0001) %MON dynstat_theta_del2           =   4.1209086621973E-03
(PID.TID 0000.0001) %MON dynstat_salt_max             =   1.1997691851785E+01
(PID.TID 0000.0001) %MON dynstat_salt_min             =   1.0464310752377E+01
(PID.TID 0000.0001) %MON dynstat_salt_mean            =   1.1305174111135E+01
(PID.TID 0000.0001) %MON dynstat_salt_sd              =   5.1663444642275E-01
(PID.TID 0000.0001) %MON dynstat_salt_del2            =   5.5343238502454E-04
(PID.TID 0000.0001) %MON advcfl_uvel_max              =   3.2154378368346E-03
(PID.TID 0000.0001) %MON advcfl_vvel_max              =   2.8195503661115E-04
(PID.TID 0000.0001) %MON advcfl_wvel_max              =   1.2641414838567E-03
(PID.TID 0000.0001) %MON advcfl_W_hf_max              =   1.3905556322424E-03
(PID.TID 0000.0001) %MON pe_b_mean                    =   1.5934661036994E-05
(PID.TID 0000.0001) %MON ke_max                       =   3.9888431467194E-03
(PID.TID 0000.0001) %MON ke_mean                      =   6.8703251500305E-05
(PID.TID 0000.0001) %MON ke_vol                       =   6.5555965471909E+14
(PID.TID 0000.0001) // =======================================================
(PID.TID 0000.0001) // End MONITOR dynamic field statistics
(PID.TID 0000.0001) // =======================================================
 cg2d: Sum(rhs),rhsMax =   2.31273333817228E-14  5.33378934077335E-01
(PID.TID 0000.0001)      cg2d_init_res =   2.21822284698632E-03
(PID.TID 0000.0001)      cg2d_iters(min,last) =      -1      28
(PID.TID 0000.0001)      cg2d_last_res =   4.41628044911053E-16
(PID.TID 0000.0001) // =======================================================
(PID.TID 0000.0001) // Begin MONITOR dynamic field statistics
(PID.TID 0000.0001) // =======================================================
(PID.TID 0000.0001) %MON time_tsnumber                =                    14
(PID.TID 0000.0001) %MON time_secondsf                =   5.0400000000000E+04
(PID.TID 0000.0001) %MON dynstat_eta_max              =   2.2157665012143E-01
(PID.TID 0000.0001) %MON dynstat_eta_min              =  -4.9644433930111E-02
(PID.TID 0000.0001) %MON dynstat_eta_mean             =  -1.4549891153971E-15
(PID.TID 0000.0001) %MON dynstat_eta_sd               =   8.4382572529160E-02
(PID.TID 0000.0001) %MON dynstat_eta_del2             =   3.4876947403521E-03
(PID.TID 0000.0001) %MON dynstat_uvel_max             =   8.8543649737755E-02
(PID.TID 0000.0001) %MON dynstat_uvel_min             =  -8.9110856404107E-02
(PID.TID 0000.0001) %MON dynstat_uvel_mean            =   2.2779894175399E-05
(PID.TID 0000.0001) %MON dynstat_uvel_sd              =   1.1401432966247E-02
(PID.TID 0000.0001) %MON dynstat_uvel_del2            =   3.6330186798858E-04
(PID.TID 0000.0001) %MON dynstat_vvel_max             =   7.7038763253093E-03
(PID.TID 0000.0001) %MON dynstat_vvel_min             =  -7.6297476511548E-03
(PID.TID 0000.0001) %MON dynstat_vvel_mean            =  -1.2492103127340E-05
(PID.TID 0000.0001) %MON dynstat_vvel_sd              =   1.0972261602661E-03
(PID.TID 0000.0001) %MON dynstat_vvel_del2            =   6.9673331299949E-05
(PID.TID 0000.0001) %MON dynstat_wvel_max             =   2.0053539227254E-05
(PID.TID 0000.0001) %MON dynstat_wvel_min             =  -2.2488457955441E-05
(PID.TID 0000.0001) %MON dynstat_wvel_mean            =  -1.7089326257448E-10
(PID.TID 0000.0001) %MON dynstat_wvel_sd              =   5.5761944767530E-06
(PID.TID 0000.0001) %MON dynstat_wvel_del2            =   2.3506587136895E-07
(PID.TID 0000.0001) %MON dynstat_theta_max            =   1.2079211709152E+01
(PID.TID 0000.0001) %MON dynstat_theta_min            =   5.2161195365232E+00
(PID.TID 0000.0001) %MON dynstat_theta_mean           =   7.8249669868353E+00
(PID.TID 0000.0001) %MON dynstat_theta_sd             =   1.4898216328311E+00
(PID.TID 0000.0001) %MON dynstat_theta_del2           =   4.1211319135347E-03
(PID.TID 0000.0001) %MON dynstat_salt_max             =   1.1997755645070E+01
(PID.TID 0000.0001) %MON dynstat_salt_min             =   1.0464274741511E+01
(PID.TID 0000.0001) %MON dynstat_salt_mean            =   1.1305174053580E+01
(PID.TID 0000.0001) %MON dynstat_salt_sd              =   5.1662600841221E-01
(PID.TID 0000.0001) %MON dynstat_salt_del2            =   5.5355304895878E-04
(PID.TID 0000.0001) %MON advcfl_uvel_max              =   3.2079908305479E-03
(PID.TID 0000.0001) %MON advcfl_vvel_max              =   2.7733954771114E-04
(PID.TID 0000.0001) %MON advcfl_wvel_max              =   1.2256715554940E-03
(PID.TID 0000.0001) %MON advcfl_W_hf_max              =   1.3482387110434E-03
(PID.TID 0000.0001) %MON pe_b_mean                    =   1.5982825996009E-05
(PID.TID 0000.0001) %MON ke_max                       =   3.9705046156739E-03
(PID.TID 0000.0001) %MON ke_mean                      =   6.5575211540212E-05
(PID.TID 0000.0001) %MON ke_vol                       =   6.5555965471909E+14
(PID.TID 0000.0001) // =======================================================
(PID.TID 0000.0001) // End MONITOR dynamic field statistics
(PID.TID 0000.0001) // =======================================================
 cg2d: Sum(rhs),rhsMax =   2.54275767108680E-14  5.33961176215479E-01
(PID.TID 0000.0001)      cg2d_init_res =   1.87423366692824E-03
(PID.TID 0000.0001)      cg2d_iters(min,last) =      -1      28
(PID.TID 0000.0001)      cg2d_last_res =   3.59949231405612E-16
(PID.TID 0000.0001) // =======================================================
(PID.TID 0000.0001) // Begin MONITOR dynamic field statistics
(PID.TID 0000.0001) // =======================================================
(PID.TID 0000.0001) %MON time_tsnumber                =                    15
(PID.TID 0000.0001) %MON time_secondsf                =   5.4000000000000E+04
(PID.TID 0000.0001) %MON dynstat_eta_max              =   2.2177791787306E-01
(PID.TID 0000.0001) %MON dynstat_eta_min              =  -4.9726233643855E-02
(PID.TID 0000.0001) %MON dynstat_eta_mean             =  -1.8291473388672E-15
(PID.TID 0000.0001) %MON dynstat_eta_sd               =   8.4472483321028E-02
(PID.TID 0000.0001) %MON dynstat_eta_del2             =   3.4888821139511E-03
(PID.TID 0000.0001) %MON dynstat_uvel_max             =   8.8148386359568E-02
(PID.TID 0000.0001) %MON dynstat_uvel_min             =  -8.8677662550722E-02
(PID.TID 0000.0001) %MON dynstat_uvel_mean            =   2.3491356503314E-05
(PID.TID 0000.0001) %MON dynstat_uvel_sd              =   1.1169313741675E-02
(PID.TID 0000.0001) %MON dynstat_uvel_del2            =   3.4946302344404E-04
(PID.TID 0000.0001) %MON dynstat_vvel_max             =   6.7560999390704E-03
(PID.TID 0000.0001) %MON dynstat_vvel_min             =  -6.6528515324857E-03
(PID.TID 0000.0001) %MON dynstat_vvel_mean            =   8.0640587829135E-06
(PID.TID 0000.0001) %MON dynstat_vvel_sd              =   9.7310913872575E-04
(PID.TID 0000.0001) %MON dynstat_vvel_del2            =   6.6721427478063E-05
(PID.TID 0000.0001) %MON dynstat_wvel_max             =   1.9387020578764E-05
(PID.TID 0000.0001) %MON dynstat_wvel_min             =  -1.9143851025424E-05
(PID.TID 0000.0001) %MON dynstat_wvel_mean            =  -1.1926607962031E-10
(PID.TID 0000.0001) %MON dynstat_wvel_sd              =   5.1556872722232E-06
(PID.TID 0000.0001) %MON dynstat_wvel_del2            =   2.2124975224103E-07
(PID.TID 0000.0001) %MON dynstat_theta_max            =   1.2079874315564E+01
(PID.TID 0000.0001) %MON dynstat_theta_min            =   5.2161188273519E+00
(PID.TID 0000.0001) %MON dynstat_theta_mean           =   7.8249669242291E+00
(PID.TID 0000.0001) %MON dynstat_theta_sd             =   1.4898212597663E+00
(PID.TID 0000.0001) %MON dynstat_theta_del2           =   4.1213227834944E-03
(PID.TID 0000.0001) %MON dynstat_salt_max             =   1.1997817803670E+01
(PID.TID 0000.0001) %MON dynstat_salt_min             =   1.0464239334172E+01
(PID.TID 0000.0001) %MON dynstat_salt_mean            =   1.1305173990888E+01
(PID.TID 0000.0001) %MON dynstat_salt_sd              =   5.1661757209223E-01
(PID.TID 0000.0001) %MON dynstat_salt_del2            =   5.5366619074175E-04
(PID.TID 0000.0001) %MON advcfl_uvel_max              =   3.1923958518260E-03
(PID.TID 0000.0001) %MON advcfl_vvel_max              =   2.4321959780653E-04
(PID.TID 0000.0001) %MON advcfl_wvel_max              =   1.0790246408892E-03
(PID.TID 0000.0001) %MON advcfl_W_hf_max              =   1.1869271049781E-03
(PID.TID 0000.0001) %MON pe_b_mean                    =   1.6016903983568E-05
(PID.TID 0000.0001) %MON ke_max                       =   3.9323846834670E-03
(PID.TID 0000.0001) %MON ke_mean                      =   6.2832147404376E-05
(PID.TID 0000.0001) %MON ke_vol                       =   6.5555965471909E+14
(PID.TID 0000.0001) // =======================================================
(PID.TID 0000.0001) // End MONITOR dynamic field statistics
(PID.TID 0000.0001) // =======================================================
 cg2d: Sum(rhs),rhsMax =   3.12319614614864E-14  5.34323669539976E-01
(PID.TID 0000.0001)      cg2d_init_res =   1.55416669974251E-03
(PID.TID 0000.0001)      cg2d_iters(min,last) =      -1      27
(PID.TID 0000.0001)      cg2d_last_res =   2.17310808178273E-14
(PID.TID 0000.0001) // =======================================================
(PID.TID 0000.0001) // Begin MONITOR dynamic field statistics
(PID.TID 0000.0001) // =======================================================
(PID.TID 0000.0001) %MON time_tsnumber                =                    16
(PID.TID 0000.0001) %MON time_secondsf                =   5.7600000000000E+04
(PID.TID 0000.0001) %MON dynstat_eta_max              =   2.2181161314724E-01
(PID.TID 0000.0001) %MON dynstat_eta_min              =  -4.9904499000049E-02
(PID.TID 0000.0001) %MON dynstat_eta_mean             =  -2.1400451660156E-15
(PID.TID 0000.0001) %MON dynstat_eta_sd               =   8.4485051239429E-02
(PID.TID 0000.0001) %MON dynstat_eta_del2             =   3.4897242316679E-03
(PID.TID 0000.0001) %MON dynstat_uvel_max             =   8.7615158767223E-02
(PID.TID 0000.0001) %MON dynstat_uvel_min             =  -8.8096498131220E-02
(PID.TID 0000.0001) %MON dynstat_uvel_mean            =   3.0876419765110E-05
(PID.TID 0000.0001) %MON dynstat_uvel_sd              =   1.1003060410147E-02
(PID.TID 0000.0001) %MON dynstat_uvel_del2            =   3.3722708392968E-04
(PID.TID 0000.0001) %MON dynstat_vvel_max             =   5.0931516595138E-03
(PID.TID 0000.0001) %MON dynstat_vvel_min             =  -5.0011212517055E-03
(PID.TID 0000.0001) %MON dynstat_vvel_mean            =   2.0142107120014E-05
(PID.TID 0000.0001) %MON dynstat_vvel_sd              =   7.6432580839393E-04
(PID.TID 0000.0001) %MON dynstat_vvel_del2            =   6.1130297568497E-05
(PID.TID 0000.0001) %MON dynstat_wvel_max             =   1.6858781012549E-05
(PID.TID 0000.0001) %MON dynstat_wvel_min             =  -1.3780348548366E-05
(PID.TID 0000.0001) %MON dynstat_wvel_mean            =  -1.4597239270752E-11
(PID.TID 0000.0001) %MON dynstat_wvel_sd              =   4.3388178690896E-06
(PID.TID 0000.0001) %MON dynstat_wvel_del2            =   2.0642421677629E-07
(PID.TID 0000.0001) %MON dynstat_theta_max            =   1.2080530338731E+01
(PID.TID 0000.0001) %MON dynstat_theta_min            =   5.2161191314432E+00
(PID.TID 0000.0001) %MON dynstat_theta_mean           =   7.8249669028835E+00
(PID.TID 0000.0001) %MON dynstat_theta_sd             =   1.4898209672348E+00
(PID.TID 0000.0001) %MON dynstat_theta_del2           =   4.1213895523749E-03
(PID.TID 0000.0001) %MON dynstat_salt_max             =   1.1997878779539E+01
(PID.TID 0000.0001) %MON dynstat_salt_min             =   1.0464204534153E+01
(PID.TID 0000.0001) %MON dynstat_salt_mean            =   1.1305173969520E+01
(PID.TID 0000.0001) %MON dynstat_salt_sd              =   5.1660913332086E-01
(PID.TID 0000.0001) %MON dynstat_salt_del2            =   5.5377196166156E-04
(PID.TID 0000.0001) %MON advcfl_uvel_max              =   3.1714739327239E-03
(PID.TID 0000.0001) %MON advcfl_vvel_max              =   1.8335345974250E-04
(PID.TID 0000.0001) %MON advcfl_wvel_max              =   9.5542639234462E-04
(PID.TID 0000.0001) %MON advcfl_W_hf_max              =   1.0509690315791E-03
(PID.TID 0000.0001) %MON pe_b_mean                    =   1.6021670366872E-05
(PID.TID 0000.0001) %MON ke_max                       =   3.8813481308484E-03
(PID.TID 0000.0001) %MON ke_mean                      =   6.0815076968858E-05
(PID.TID 0000.0001) %MON ke_vol                       =   6.5555965471909E+14
(PID.TID 0000.0001) // =======================================================
(PID.TID 0000.0001) // End MONITOR dynamic field statistics
(PID.TID 0000.0001) // =======================================================
 cg2d: Sum(rhs),rhsMax =   3.69114461218345E-14  5.34471069236959E-01
(PID.TID 0000.0001)      cg2d_init_res =   1.35539622560337E-03
(PID.TID 0000.0001)      cg2d_iters(min,last) =      -1      27
(PID.TID 0000.0001)      cg2d_last_res =   5.00017806319736E-14
(PID.TID 0000.0001) // =======================================================
(PID.TID 0000.0001) // Begin MONITOR dynamic field statistics
(PID.TID 0000.0001) // =======================================================
(PID.TID 0000.0001) %MON time_tsnumber                =                    17
(PID.TID 0000.0001) %MON time_secondsf                =   6.1200000000000E+04
(PID.TID 0000.0001) %MON dynstat_eta_max              =   2.2175031970836E-01
(PID.TID 0000.0001) %MON dynstat_eta_min              =  -5.0092851131274E-02
(PID.TID 0000.0001) %MON dynstat_eta_mean             =  -2.3082097371419E-15
(PID.TID 0000.0001) %MON dynstat_eta_sd               =   8.4455482394811E-02
(PID.TID 0000.0001) %MON dynstat_eta_del2             =   3.4901515397032E-03
(PID.TID 0000.0001) %MON dynstat_uvel_max             =   8.7021274720239E-02
(PID.TID 0000.0001) %MON dynstat_uvel_min             =  -8.7454507038925E-02
(PID.TID 0000.0001) %MON dynstat_uvel_mean            =   4.0565156364787E-05
(PID.TID 0000.0001) %MON dynstat_uvel_sd              =   1.0919510862308E-02
(PID.TID 0000.0001) %MON dynstat_uvel_del2            =   3.2787323303487E-04
(PID.TID 0000.0001) %MON dynstat_vvel_max             =   4.0271710794494E-03
(PID.TID 0000.0001) %MON dynstat_vvel_min             =  -4.1236402256143E-03
(PID.TID 0000.0001) %MON dynstat_vvel_mean            =   2.1771919283266E-05
(PID.TID 0000.0001) %MON dynstat_vvel_sd              =   5.3437424407468E-04
(PID.TID 0000.0001) %MON dynstat_vvel_del2            =   5.4749093198930E-05
(PID.TID 0000.0001) %MON dynstat_wvel_max             =   1.2863947353828E-05
(PID.TID 0000.0001) %MON dynstat_wvel_min             =  -8.9815149441858E-06
(PID.TID 0000.0001) %MON dynstat_wvel_mean            =   4.2024356957367E-11
(PID.TID 0000.0001) %MON dynstat_wvel_sd              =   3.3771432044158E-06
(PID.TID 0000.0001) %MON dynstat_wvel_del2            =   1.9526370753142E-07
(PID.TID 0000.0001) %MON dynstat_theta_max            =   1.2081184103935E+01
(PID.TID 0000.0001) %MON dynstat_theta_min            =   5.2161209731066E+00
(PID.TID 0000.0001) %MON dynstat_theta_mean           =   7.8249669146180E+00
(PID.TID 0000.0001) %MON dynstat_theta_sd             =   1.4898207394791E+00
(PID.TID 0000.0001) %MON dynstat_theta_del2           =   4.1212573094620E-03
(PID.TID 0000.0001) %MON dynstat_salt_max             =   1.1997938912041E+01
(PID.TID 0000.0001) %MON dynstat_salt_min             =   1.0464170362001E+01
(PID.TID 0000.0001) %MON dynstat_salt_mean            =   1.1305173981129E+01
(PID.TID 0000.0001) %MON dynstat_salt_sd              =   5.1660069296793E-01
(PID.TID 0000.0001) %MON dynstat_salt_del2            =   5.5388930503689E-04
(PID.TID 0000.0001) %MON advcfl_uvel_max              =   3.1483622534013E-03
(PID.TID 0000.0001) %MON advcfl_vvel_max              =   1.4845104812212E-04
(PID.TID 0000.0001) %MON advcfl_wvel_max              =   7.5441092300368E-04
(PID.TID 0000.0001) %MON advcfl_W_hf_max              =   8.2985201530405E-04
(PID.TID 0000.0001) %MON pe_b_mean                    =   1.6010457510341E-05
(PID.TID 0000.0001) %MON ke_max                       =   3.8250696176707E-03
(PID.TID 0000.0001) %MON ke_mean                      =   5.9756133996249E-05
(PID.TID 0000.0001) %MON ke_vol                       =   6.5555965471909E+14
(PID.TID 0000.0001) // =======================================================
(PID.TID 0000.0001) // End MONITOR dynamic field statistics
(PID.TID 0000.0001) // =======================================================
 cg2d: Sum(rhs),rhsMax =   3.98535371370912E-14  5.34434577188891E-01
(PID.TID 0000.0001)      cg2d_init_res =   1.08863501736812E-03
(PID.TID 0000.0001)      cg2d_iters(min,last) =      -1      28
(PID.TID 0000.0001)      cg2d_last_res =   5.84328671325410E-17
(PID.TID 0000.0001) // =======================================================
(PID.TID 0000.0001) // Begin MONITOR dynamic field statistics
(PID.TID 0000.0001) // =======================================================
(PID.TID 0000.0001) %MON time_tsnumber                =                    18
(PID.TID 0000.0001) %MON time_secondsf                =   6.4800000000000E+04
(PID.TID 0000.0001) %MON dynstat_eta_max              =   2.2168376521822E-01
(PID.TID 0000.0001) %MON dynstat_eta_min              =  -5.0224171801757E-02
(PID.TID 0000.0001) %MON dynstat_eta_mean             =  -2.1918614705404E-15
(PID.TID 0000.0001) %MON dynstat_eta_sd               =   8.4427597329244E-02
(PID.TID 0000.0001) %MON dynstat_eta_del2             =   3.4901515746569E-03
(PID.TID 0000.0001) %MON dynstat_uvel_max             =   8.6443908458933E-02
(PID.TID 0000.0001) %MON dynstat_uvel_min             =  -8.6837778957822E-02
(PID.TID 0000.0001) %MON dynstat_uvel_mean            =   4.8505357494937E-05
(PID.TID 0000.0001) %MON dynstat_uvel_sd              =   1.0924235320686E-02
(PID.TID 0000.0001) %MON dynstat_uvel_del2            =   3.2227588391793E-04
(PID.TID 0000.0001) %MON dynstat_vvel_max             =   3.5546348804135E-03
(PID.TID 0000.0001) %MON dynstat_vvel_min             =  -3.6840472403814E-03
(PID.TID 0000.0001) %MON dynstat_vvel_mean            =   1.5068363874704E-05
(PID.TID 0000.0001) %MON dynstat_vvel_sd              =   4.2395290478787E-04
(PID.TID 0000.0001) %MON dynstat_vvel_del2            =   5.0430661688219E-05
(PID.TID 0000.0001) %MON dynstat_wvel_max             =   8.0536717167642E-06
(PID.TID 0000.0001) %MON dynstat_wvel_min             =  -9.8803866737158E-06
(PID.TID 0000.0001) %MON dynstat_wvel_mean            =   3.8570151413311E-11
(PID.TID 0000.0001) %MON dynstat_wvel_sd              =   2.7523509285267E-06
(PID.TID 0000.0001) %MON dynstat_wvel_del2            =   1.9360555554012E-07
(PID.TID 0000.0001) %MON dynstat_theta_max            =   1.2081838001961E+01
(PID.TID 0000.0001) %MON dynstat_theta_min            =   5.2161212828076E+00
(PID.TID 0000.0001) %MON dynstat_theta_mean           =   7.8249669332181E+00
(PID.TID 0000.0001) %MON dynstat_theta_sd             =   1.4898205254685E+00
(PID.TID 0000.0001) %MON dynstat_theta_del2           =   4.1208943704986E-03
(PID.TID 0000.0001) %MON dynstat_salt_max             =   1.1997998421130E+01
(PID.TID 0000.0001) %MON dynstat_salt_min             =   1.0464136847762E+01
(PID.TID 0000.0001) %MON dynstat_salt_mean            =   1.1305173999176E+01
(PID.TID 0000.0001) %MON dynstat_salt_sd              =   5.1659225276128E-01
(PID.TID 0000.0001) %MON dynstat_salt_del2            =   5.5400930751314E-04
(PID.TID 0000.0001) %MON advcfl_uvel_max              =   3.1261600424816E-03
(PID.TID 0000.0001) %MON advcfl_vvel_max              =   1.3262570065373E-04
(PID.TID 0000.0001) %MON advcfl_wvel_max              =   6.0112826202927E-04
(PID.TID 0000.0001) %MON advcfl_W_hf_max              =   6.6124108823219E-04
(PID.TID 0000.0001) %MON pe_b_mean                    =   1.5999886758956E-05
(PID.TID 0000.0001) %MON ke_max                       =   3.7711208559426E-03
(PID.TID 0000.0001) %MON ke_mean                      =   5.9757116868489E-05
(PID.TID 0000.0001) %MON ke_vol                       =   6.5555965471909E+14
(PID.TID 0000.0001) // =======================================================
(PID.TID 0000.0001) // End MONITOR dynamic field statistics
(PID.TID 0000.0001) // =======================================================
 cg2d: Sum(rhs),rhsMax =   3.77579911781112E-14  5.34229001475528E-01
(PID.TID 0000.0001)      cg2d_init_res =   1.05210478774211E-03
(PID.TID 0000.0001)      cg2d_iters(min,last) =      -1      28
(PID.TID 0000.0001)      cg2d_last_res =   2.28308701792265E-16
(PID.TID 0000.0001) // =======================================================
(PID.TID 0000.0001) // Begin MONITOR dynamic field statistics
(PID.TID 0000.0001) // =======================================================
(PID.TID 0000.0001) %MON time_tsnumber                =                    19
(PID.TID 0000.0001) %MON time_secondsf                =   6.8400000000000E+04
(PID.TID 0000.0001) %MON dynstat_eta_max              =   2.2164997817881E-01
(PID.TID 0000.0001) %MON dynstat_eta_min              =  -5.0267168927023E-02
(PID.TID 0000.0001) %MON dynstat_eta_mean             =  -2.1966298421224E-15
(PID.TID 0000.0001) %MON dynstat_eta_sd               =   8.4419371700720E-02
(PID.TID 0000.0001) %MON dynstat_eta_del2             =   3.4897240489806E-03
(PID.TID 0000.0001) %MON dynstat_uvel_max             =   8.5953431451879E-02
(PID.TID 0000.0001) %MON dynstat_uvel_min             =  -8.6322746399162E-02
(PID.TID 0000.0001) %MON dynstat_uvel_mean            =   5.2255231420128E-05
(PID.TID 0000.0001) %MON dynstat_uvel_sd              =   1.1012657759703E-02
(PID.TID 0000.0001) %MON dynstat_uvel_del2            =   3.2085381628956E-04
(PID.TID 0000.0001) %MON dynstat_vvel_max             =   3.2902181156705E-03
(PID.TID 0000.0001) %MON dynstat_vvel_min             =  -3.4192850574566E-03
(PID.TID 0000.0001) %MON dynstat_vvel_mean            =   4.5495513183010E-06
(PID.TID 0000.0001) %MON dynstat_vvel_sd              =   5.4526176412748E-04
(PID.TID 0000.0001) %MON dynstat_vvel_del2            =   5.0664074378117E-05
(PID.TID 0000.0001) %MON dynstat_wvel_max             =   8.6359019130954E-06
(PID.TID 0000.0001) %MON dynstat_wvel_min             =  -1.2727188902712E-05
(PID.TID 0000.0001) %MON dynstat_wvel_mean            =   1.0029956540745E-11
(PID.TID 0000.0001) %MON dynstat_wvel_sd              =   2.9680935031130E-06
(PID.TID 0000.0001) %MON dynstat_wvel_del2            =   2.0418410085978E-07
(PID.TID 0000.0001) %MON dynstat_theta_max            =   1.2082492890089E+01
(PID.TID 0000.0001) %MON dynstat_theta_min            =   5.2161213899580E+00
(PID.TID 0000.0001) %MON dynstat_theta_mean           =   7.8249669423912E+00
(PID.TID 0000.0001) %MON dynstat_theta_sd             =   1.4898202935172E+00
(PID.TID 0000.0001) %MON dynstat_theta_del2           =   4.1202778648802E-03
(PID.TID 0000.0001) %MON dynstat_salt_max             =   1.1998057411109E+01
(PID.TID 0000.0001) %MON dynstat_salt_min             =   1.0464104015193E+01
(PID.TID 0000.0001) %MON dynstat_salt_mean            =   1.1305174007256E+01
(PID.TID 0000.0001) %MON dynstat_salt_sd              =   5.1658381727588E-01
(PID.TID 0000.0001) %MON dynstat_salt_del2            =   5.5412974067520E-04
(PID.TID 0000.0001) %MON advcfl_uvel_max              =   3.1076188703698E-03
(PID.TID 0000.0001) %MON advcfl_vvel_max              =   1.2309426206844E-04
(PID.TID 0000.0001) %MON advcfl_wvel_max              =   6.3012724822040E-04
(PID.TID 0000.0001) %MON advcfl_W_hf_max              =   6.9334015261456E-04
(PID.TID 0000.0001) %MON pe_b_mean                    =   1.5996769230616E-05
(PID.TID 0000.0001) %MON ke_max                       =   3.7261851801159E-03
(PID.TID 0000.0001) %MON ke_mean                      =   6.0783564109814E-05
(PID.TID 0000.0001) %MON ke_vol                       =   6.5555965471909E+14
(PID.TID 0000.0001) // =======================================================
(PID.TID 0000.0001) // End MONITOR dynamic field statistics
(PID.TID 0000.0001) // =======================================================
 cg2d: Sum(rhs),rhsMax =   3.74492103993873E-14  5.33856599893064E-01
(PID.TID 0000.0001)      cg2d_init_res =   1.38143207839892E-03
(PID.TID 0000.0001)      cg2d_iters(min,last) =      -1      28
(PID.TID 0000.0001)      cg2d_last_res =   3.46268008238492E-16
(PID.TID 0000.0001) // =======================================================
(PID.TID 0000.0001) // Begin MONITOR dynamic field statistics
(PID.TID 0000.0001) // =======================================================
(PID.TID 0000.0001) %MON time_tsnumber                =                    20
(PID.TID 0000.0001) %MON time_secondsf                =   7.2000000000000E+04
(PID.TID 0000.0001) %MON dynstat_eta_max              =   2.2163952564952E-01
(PID.TID 0000.0001) %MON dynstat_eta_min              =  -5.0229345516979E-02
(PID.TID 0000.0001) %MON dynstat_eta_mean             =  -2.3504892985026E-15
(PID.TID 0000.0001) %MON dynstat_eta_sd               =   8.4425835443104E-02
(PID.TID 0000.0001) %MON dynstat_eta_del2             =   3.4888863371743E-03
(PID.TID 0000.0001) %MON dynstat_uvel_max             =   8.5606127540176E-02
(PID.TID 0000.0001) %MON dynstat_uvel_min             =  -8.5967967873335E-02
(PID.TID 0000.0001) %MON dynstat_uvel_mean            =   5.1460904711061E-05
(PID.TID 0000.0001) %MON dynstat_uvel_sd              =   1.1171497251914E-02
(PID.TID 0000.0001) %MON dynstat_uvel_del2            =   3.2356522624492E-04
(PID.TID 0000.0001) %MON dynstat_vvel_max             =   4.0664736077833E-03
(PID.TID 0000.0001) %MON dynstat_vvel_min             =  -4.2526799181261E-03
(PID.TID 0000.0001) %MON dynstat_vvel_mean            =  -4.9919623577640E-06
(PID.TID 0000.0001) %MON dynstat_vvel_sd              =   7.5060837888459E-04
(PID.TID 0000.0001) %MON dynstat_vvel_del2            =   5.5322099568509E-05
(PID.TID 0000.0001) %MON dynstat_wvel_max             =   1.5170059493437E-05
(PID.TID 0000.0001) %MON dynstat_wvel_min             =  -1.4463550944605E-05
(PID.TID 0000.0001) %MON dynstat_wvel_mean            =  -1.1697786371686E-11
(PID.TID 0000.0001) %MON dynstat_wvel_sd              =   3.7739529453243E-06
(PID.TID 0000.0001) %MON dynstat_wvel_del2            =   2.2390298215050E-07
(PID.TID 0000.0001) %MON dynstat_theta_max            =   1.2083148231181E+01
(PID.TID 0000.0001) %MON dynstat_theta_min            =   5.2161210913087E+00
(PID.TID 0000.0001) %MON dynstat_theta_mean           =   7.8249669410902E+00
(PID.TID 0000.0001) %MON dynstat_theta_sd             =   1.4898200411320E+00
(PID.TID 0000.0001) %MON dynstat_theta_del2           =   4.1194287954042E-03
(PID.TID 0000.0001) %MON dynstat_salt_max             =   1.1998115877359E+01
(PID.TID 0000.0001) %MON dynstat_salt_min             =   1.0464071875759E+01
(PID.TID 0000.0001) %MON dynstat_salt_mean            =   1.1305174004462E+01
(PID.TID 0000.0001) %MON dynstat_salt_sd              =   5.1657538010677E-01
(PID.TID 0000.0001) %MON dynstat_salt_del2            =   5.5424551036908E-04
(PID.TID 0000.0001) %MON advcfl_uvel_max              =   3.0948468434401E-03
(PID.TID 0000.0001) %MON advcfl_vvel_max              =   1.5309647705254E-04
(PID.TID 0000.0001) %MON advcfl_wvel_max              =   7.5509382762936E-04
(PID.TID 0000.0001) %MON advcfl_W_hf_max              =   8.3060321039230E-04
(PID.TID 0000.0001) %MON pe_b_mean                    =   1.5999218975306E-05
(PID.TID 0000.0001) %MON ke_max                       =   3.6953336975228E-03
(PID.TID 0000.0001) %MON ke_mean                      =   6.2673261274674E-05
(PID.TID 0000.0001) %MON ke_vol                       =   6.5555965471909E+14
(PID.TID 0000.0001) // =======================================================
(PID.TID 0000.0001) // End MONITOR dynamic field statistics
(PID.TID 0000.0001) // =======================================================
 cg2d: Sum(rhs),rhsMax =   4.11753964257855E-14  5.33327992314131E-01
(PID.TID 0000.0001)      cg2d_init_res =   1.77973176368105E-03
(PID.TID 0000.0001)      cg2d_iters(min,last) =      -1      28
(PID.TID 0000.0001)      cg2d_last_res =   1.59010246174419E-16
(PID.TID 0000.0001) // =======================================================
(PID.TID 0000.0001) // Begin MONITOR dynamic field statistics
(PID.TID 0000.0001) // =======================================================
(PID.TID 0000.0001) %MON time_tsnumber                =                    21
(PID.TID 0000.0001) %MON time_secondsf                =   7.5600000000000E+04
(PID.TID 0000.0001) %MON dynstat_eta_max              =   2.2162860730338E-01
(PID.TID 0000.0001) %MON dynstat_eta_min              =  -5.0145896554164E-02
(PID.TID 0000.0001) %MON dynstat_eta_mean             =  -2.4455388387044E-15
(PID.TID 0000.0001) %MON dynstat_eta_sd               =   8.4435629313751E-02
(PID.TID 0000.0001) %MON dynstat_eta_del2             =   3.4876953941704E-03
(PID.TID 0000.0001) %MON dynstat_uvel_max             =   8.5437464758205E-02
(PID.TID 0000.0001) %MON dynstat_uvel_min             =  -8.5807545347495E-02
(PID.TID 0000.0001) %MON dynstat_uvel_mean            =   4.7499846789878E-05
(PID.TID 0000.0001) %MON dynstat_uvel_sd              =   1.1380192078961E-02
(PID.TID 0000.0001) %MON dynstat_uvel_del2            =   3.2993000456195E-04
(PID.TID 0000.0001) %MON dynstat_vvel_max             =   5.7439442961519E-03
(PID.TID 0000.0001) %MON dynstat_vvel_min             =  -5.9682340737978E-03
(PID.TID 0000.0001) %MON dynstat_vvel_mean            =  -1.0284300511572E-05
(PID.TID 0000.0001) %MON dynstat_vvel_sd              =   9.1671818606385E-04
(PID.TID 0000.0001) %MON dynstat_vvel_del2            =   6.1835397243911E-05
(PID.TID 0000.0001) %MON dynstat_wvel_max             =   2.0102082327374E-05
(PID.TID 0000.0001) %MON dynstat_wvel_min             =  -1.4893427497312E-05
(PID.TID 0000.0001) %MON dynstat_wvel_mean            =  -1.7160042371906E-11
(PID.TID 0000.0001) %MON dynstat_wvel_sd              =   4.6050187066600E-06
(PID.TID 0000.0001) %MON dynstat_wvel_del2            =   2.4615044865765E-07
(PID.TID 0000.0001) %MON dynstat_theta_max            =   1.2083802130542E+01
(PID.TID 0000.0001) %MON dynstat_theta_min            =   5.2161195744822E+00
(PID.TID 0000.0001) %MON dynstat_theta_mean           =   7.8249669355467E+00
(PID.TID 0000.0001) %MON dynstat_theta_sd             =   1.4898197805315E+00
(PID.TID 0000.0001) %MON dynstat_theta_del2           =   4.1184031520083E-03
(PID.TID 0000.0001) %MON dynstat_salt_max             =   1.1998173717701E+01
(PID.TID 0000.0001) %MON dynstat_salt_min             =   1.0464040431897E+01
(PID.TID 0000.0001) %MON dynstat_salt_mean            =   1.1305173997233E+01
(PID.TID 0000.0001) %MON dynstat_salt_sd              =   5.1656694320141E-01
(PID.TID 0000.0001) %MON dynstat_salt_del2            =   5.5432763643668E-04
(PID.TID 0000.0001) %MON advcfl_uvel_max              =   3.0890716325098E-03
(PID.TID 0000.0001) %MON advcfl_vvel_max              =   2.1485642665672E-04
(PID.TID 0000.0001) %MON advcfl_wvel_max              =   9.8470315492386E-04
(PID.TID 0000.0001) %MON advcfl_W_hf_max              =   1.0831734704162E-03
(PID.TID 0000.0001) %MON pe_b_mean                    =   1.6002931188966E-05
(PID.TID 0000.0001) %MON ke_max                       =   3.6814704701562E-03
(PID.TID 0000.0001) %MON ke_mean                      =   6.5159408195729E-05
(PID.TID 0000.0001) %MON ke_vol                       =   6.5555965471909E+14
(PID.TID 0000.0001) // =======================================================
(PID.TID 0000.0001) // End MONITOR dynamic field statistics
(PID.TID 0000.0001) // =======================================================
 cg2d: Sum(rhs),rhsMax =   4.28927726670025E-14  5.32674890087575E-01
(PID.TID 0000.0001)      cg2d_init_res =   2.08261848438250E-03
(PID.TID 0000.0001)      cg2d_iters(min,last) =      -1      28
(PID.TID 0000.0001)      cg2d_last_res =   2.67156029019955E-16
(PID.TID 0000.0001) // =======================================================
(PID.TID 0000.0001) // Begin MONITOR dynamic field statistics
(PID.TID 0000.0001) // =======================================================
(PID.TID 0000.0001) %MON time_tsnumber                =                    22
(PID.TID 0000.0001) %MON time_secondsf                =   7.9200000000000E+04
(PID.TID 0000.0001) %MON dynstat_eta_max              =   2.2160291818577E-01
(PID.TID 0000.0001) %MON dynstat_eta_min              =  -5.0060387418514E-02
(PID.TID 0000.0001) %MON dynstat_eta_mean             =  -2.7043024698893E-15
(PID.TID 0000.0001) %MON dynstat_eta_sd               =   8.4442098095274E-02
(PID.TID 0000.0001) %MON dynstat_eta_del2             =   3.4862563316191E-03
(PID.TID 0000.0001) %MON dynstat_uvel_max             =   8.5457926211412E-02
(PID.TID 0000.0001) %MON dynstat_uvel_min             =  -8.5847946070270E-02
(PID.TID 0000.0001) %MON dynstat_uvel_mean            =   4.2570598399554E-05
(PID.TID 0000.0001) %MON dynstat_uvel_sd              =   1.1612652714275E-02
(PID.TID 0000.0001) %MON dynstat_uvel_del2            =   3.3907658330507E-04
(PID.TID 0000.0001) %MON dynstat_vvel_max             =   6.7935894514569E-03
(PID.TID 0000.0001) %MON dynstat_vvel_min             =  -7.0205110887841E-03
(PID.TID 0000.0001) %MON dynstat_vvel_mean            =  -1.0433357231196E-05
(PID.TID 0000.0001) %MON dynstat_vvel_sd              =   9.9826915254225E-04
(PID.TID 0000.0001) %MON dynstat_vvel_del2            =   6.7467804507773E-05
(PID.TID 0000.0001) %MON dynstat_wvel_max             =   2.2873019519812E-05
(PID.TID 0000.0001) %MON dynstat_wvel_min             =  -1.3963276859157E-05
(PID.TID 0000.0001) %MON dynstat_wvel_mean            =  -1.2585750221164E-11
(PID.TID 0000.0001) %MON dynstat_wvel_sd              =   5.1508047585586E-06
(PID.TID 0000.0001) %MON dynstat_wvel_del2            =   2.6452861626507E-07
(PID.TID 0000.0001) %MON dynstat_theta_max            =   1.2084452790149E+01
(PID.TID 0000.0001) %MON dynstat_theta_min            =   5.2161165707974E+00
(PID.TID 0000.0001) %MON dynstat_theta_mean           =   7.8249669310412E+00
(PID.TID 0000.0001) %MON dynstat_theta_sd             =   1.4898195213638E+00
(PID.TID 0000.0001) %MON dynstat_theta_del2           =   4.1172283607682E-03
(PID.TID 0000.0001) %MON dynstat_salt_max             =   1.1998230833732E+01
(PID.TID 0000.0001) %MON dynstat_salt_min             =   1.0464009682355E+01
(PID.TID 0000.0001) %MON dynstat_salt_mean            =   1.1305173991027E+01
(PID.TID 0000.0001) %MON dynstat_salt_sd              =   5.1655850549476E-01
(PID.TID 0000.0001) %MON dynstat_salt_del2            =   5.5440184233100E-04
(PID.TID 0000.0001) %MON advcfl_uvel_max              =   3.0905260585297E-03
(PID.TID 0000.0001) %MON advcfl_vvel_max              =   2.5273839919623E-04
(PID.TID 0000.0001) %MON advcfl_wvel_max              =   1.1510741008079E-03
(PID.TID 0000.0001) %MON advcfl_W_hf_max              =   1.2661815108887E-03
(PID.TID 0000.0001) %MON pe_b_mean                    =   1.6005383315677E-05
(PID.TID 0000.0001) %MON ke_max                       =   3.6850894983163E-03
(PID.TID 0000.0001) %MON ke_mean                      =   6.7906700854049E-05
(PID.TID 0000.0001) %MON ke_vol                       =   6.5555965471909E+14
(PID.TID 0000.0001) // =======================================================
(PID.TID 0000.0001) // End MONITOR dynamic field statistics
(PID.TID 0000.0001) // =======================================================
 cg2d: Sum(rhs),rhsMax =   4.78124484448728E-14  5.31948572119835E-01
(PID.TID 0000.0001)      cg2d_init_res =   2.25885976334855E-03
(PID.TID 0000.0001)      cg2d_iters(min,last) =      -1      28
(PID.TID 0000.0001)      cg2d_last_res =   5.04956694498755E-16
(PID.TID 0000.0001) // =======================================================
(PID.TID 0000.0001) // Begin MONITOR dynamic field statistics
(PID.TID 0000.0001) // =======================================================
(PID.TID 0000.0001) %MON time_tsnumber                =                    23
(PID.TID 0000.0001) %MON time_secondsf                =   8.2800000000000E+04
(PID.TID 0000.0001) %MON dynstat_eta_max              =   2.2156238207666E-01
(PID.TID 0000.0001) %MON dynstat_eta_min              =  -5.0006169092029E-02
(PID.TID 0000.0001) %MON dynstat_eta_mean             =  -3.1010309855143E-15
(PID.TID 0000.0001) %MON dynstat_eta_sd               =   8.4444803139126E-02
(PID.TID 0000.0001) %MON dynstat_eta_del2             =   3.4847103380521E-03
(PID.TID 0000.0001) %MON dynstat_uvel_max             =   8.6166343089165E-02
(PID.TID 0000.0001) %MON dynstat_uvel_min             =  -8.6684813378390E-02
(PID.TID 0000.0001) %MON dynstat_uvel_mean            =   3.8682091680632E-05
(PID.TID 0000.0001) %MON dynstat_uvel_sd              =   1.1839804464094E-02
(PID.TID 0000.0001) %MON dynstat_uvel_del2            =   3.4982548884663E-04
(PID.TID 0000.0001) %MON dynstat_vvel_max             =   7.1252153929890E-03
(PID.TID 0000.0001) %MON dynstat_vvel_min             =  -7.3227097038744E-03
(PID.TID 0000.0001) %MON dynstat_vvel_mean            =  -6.6926831714387E-06
(PID.TID 0000.0001) %MON dynstat_vvel_sd              =   9.8329659710433E-04
(PID.TID 0000.0001) %MON dynstat_vvel_del2            =   7.0468467238062E-05
(PID.TID 0000.0001) %MON dynstat_wvel_max             =   2.3247151626460E-05
(PID.TID 0000.0001) %MON dynstat_wvel_min             =  -1.1797091050349E-05
(PID.TID 0000.0001) %MON dynstat_wvel_mean            =  -6.7493439734923E-12
(PID.TID 0000.0001) %MON dynstat_wvel_sd              =   5.2893093989799E-06
(PID.TID 0000.0001) %MON dynstat_wvel_del2            =   2.7466251087943E-07
(PID.TID 0000.0001) %MON dynstat_theta_max            =   1.2085095035150E+01
(PID.TID 0000.0001) %MON dynstat_theta_min            =   5.2161137702033E+00
(PID.TID 0000.0001) %MON dynstat_theta_mean           =   7.8249669290796E+00
(PID.TID 0000.0001) %MON dynstat_theta_sd             =   1.4898192666927E+00
(PID.TID 0000.0001) %MON dynstat_theta_del2           =   4.1159325075841E-03
(PID.TID 0000.0001) %MON dynstat_salt_max             =   1.1998286918504E+01
(PID.TID 0000.0001) %MON dynstat_salt_min             =   1.0463979625548E+01
(PID.TID 0000.0001) %MON dynstat_salt_mean            =   1.1305173987483E+01
(PID.TID 0000.0001) %MON dynstat_salt_sd              =   5.1655006789755E-01
(PID.TID 0000.0001) %MON dynstat_salt_del2            =   5.5450881652010E-04
(PID.TID 0000.0001) %MON advcfl_uvel_max              =   3.1206532816220E-03
(PID.TID 0000.0001) %MON advcfl_vvel_max              =   2.6361754933948E-04
(PID.TID 0000.0001) %MON advcfl_wvel_max              =   1.1957761131066E-03
(PID.TID 0000.0001) %MON advcfl_W_hf_max              =   1.3153537244172E-03
(PID.TID 0000.0001) %MON pe_b_mean                    =   1.6006408774735E-05
(PID.TID 0000.0001) %MON ke_max                       =   3.7645870999851E-03
(PID.TID 0000.0001) %MON ke_mean                      =   7.0555887859757E-05
(PID.TID 0000.0001) %MON ke_vol                       =   6.5555965471909E+14
(PID.TID 0000.0001) // =======================================================
(PID.TID 0000.0001) // End MONITOR dynamic field statistics
(PID.TID 0000.0001) // =======================================================
 cg2d: Sum(rhs),rhsMax =   5.38215305656564E-14  5.31210369500917E-01
(PID.TID 0000.0001)      cg2d_init_res =   2.30853134031130E-03
(PID.TID 0000.0001)      cg2d_iters(min,last) =      -1      28
(PID.TID 0000.0001)      cg2d_last_res =   6.13142917422770E-16
(PID.TID 0000.0001) // =======================================================
(PID.TID 0000.0001) // Begin MONITOR dynamic field statistics
(PID.TID 0000.0001) // =======================================================
(PID.TID 0000.0001) %MON time_tsnumber                =                    24
(PID.TID 0000.0001) %MON time_secondsf                =   8.6400000000000E+04
(PID.TID 0000.0001) %MON dynstat_eta_max              =   2.2151507378368E-01
(PID.TID 0000.0001) %MON dynstat_eta_min              =  -4.9995939103529E-02
(PID.TID 0000.0001) %MON dynstat_eta_mean             =  -3.4367243448893E-15
(PID.TID 0000.0001) %MON dynstat_eta_sd               =   8.4446181576764E-02
(PID.TID 0000.0001) %MON dynstat_eta_del2             =   3.4832119104200E-03
(PID.TID 0000.0001) %MON dynstat_uvel_max             =   8.7513311300546E-02
(PID.TID 0000.0001) %MON dynstat_uvel_min             =  -8.8103330553490E-02
(PID.TID 0000.0001) %MON dynstat_uvel_mean            =   3.6952129379806E-05
(PID.TID 0000.0001) %MON dynstat_uvel_sd              =   1.2032981800797E-02
(PID.TID 0000.0001) %MON dynstat_uvel_del2            =   3.6081733902768E-04
(PID.TID 0000.0001) %MON dynstat_vvel_max             =   6.7295101597398E-03
(PID.TID 0000.0001) %MON dynstat_vvel_min             =  -6.8749880933317E-03
(PID.TID 0000.0001) %MON dynstat_vvel_mean            =  -1.4677898926001E-06
(PID.TID 0000.0001) %MON dynstat_vvel_sd              =   8.8175802466164E-04
(PID.TID 0000.0001) %MON dynstat_vvel_del2            =   7.0154256650810E-05
(PID.TID 0000.0001) %MON dynstat_wvel_max             =   2.1262242888977E-05
(PID.TID 0000.0001) %MON dynstat_wvel_min             =  -1.1397952484675E-05
(PID.TID 0000.0001) %MON dynstat_wvel_mean            =  -3.9676570881035E-12
(PID.TID 0000.0001) %MON dynstat_wvel_sd              =   5.0142055733922E-06
(PID.TID 0000.0001) %MON dynstat_wvel_del2            =   2.7459590573588E-07
(PID.TID 0000.0001) %MON dynstat_theta_max            =   1.2085724409755E+01
(PID.TID 0000.0001) %MON dynstat_theta_min            =   5.2161115609438E+00
(PID.TID 0000.0001) %MON dynstat_theta_mean           =   7.8249669286749E+00
(PID.TID 0000.0001) %MON dynstat_theta_sd             =   1.4898190130445E+00
(PID.TID 0000.0001) %MON dynstat_theta_del2           =   4.1146073992264E-03
(PID.TID 0000.0001) %MON dynstat_salt_max             =   1.1998341704108E+01
(PID.TID 0000.0001) %MON dynstat_salt_min             =   1.0463950260572E+01
(PID.TID 0000.0001) %MON dynstat_salt_mean            =   1.1305173985726E+01
(PID.TID 0000.0001) %MON dynstat_salt_sd              =   5.1654163071206E-01
(PID.TID 0000.0001) %MON dynstat_salt_del2            =   5.5466143254174E-04
(PID.TID 0000.0001) %MON advcfl_uvel_max              =   3.1717198999257E-03
(PID.TID 0000.0001) %MON advcfl_vvel_max              =   2.4749957135994E-04
(PID.TID 0000.0001) %MON advcfl_wvel_max              =   1.1189272553324E-03
(PID.TID 0000.0001) %MON advcfl_W_hf_max              =   1.2308199808656E-03
(PID.TID 0000.0001) %MON pe_b_mean                    =   1.6006931341325E-05
(PID.TID 0000.0001) %MON ke_max                       =   3.8857977433533E-03
(PID.TID 0000.0001) %MON ke_mean                      =   7.2770637871725E-05
(PID.TID 0000.0001) %MON ke_vol                       =   6.5555965471909E+14
(PID.TID 0000.0001) // =======================================================
(PID.TID 0000.0001) // End MONITOR dynamic field statistics
(PID.TID 0000.0001) // =======================================================
 cg2d: Sum(rhs),rhsMax =   5.96883653614100E-14  5.30521547880261E-01
(PID.TID 0000.0001)      cg2d_init_res =   2.22573330943446E-03
(PID.TID 0000.0001)      cg2d_iters(min,last) =      -1      28
(PID.TID 0000.0001)      cg2d_last_res =   6.76957625937645E-16
(PID.TID 0000.0001) // =======================================================
(PID.TID 0000.0001) // Begin MONITOR dynamic field statistics
(PID.TID 0000.0001) // =======================================================
(PID.TID 0000.0001) %MON time_tsnumber                =                    25
(PID.TID 0000.0001) %MON time_secondsf                =   9.0000000000000E+04
(PID.TID 0000.0001) %MON dynstat_eta_max              =   2.2148084530560E-01
(PID.TID 0000.0001) %MON dynstat_eta_min              =  -5.0021768549496E-02
(PID.TID 0000.0001) %MON dynstat_eta_mean             =  -3.4224192301432E-15
(PID.TID 0000.0001) %MON dynstat_eta_sd               =   8.4448438148597E-02
(PID.TID 0000.0001) %MON dynstat_eta_del2             =   3.4819069040233E-03
(PID.TID 0000.0001) %MON dynstat_uvel_max             =   8.8417485284653E-02
(PID.TID 0000.0001) %MON dynstat_uvel_min             =  -8.9049248277175E-02
(PID.TID 0000.0001) %MON dynstat_uvel_mean            =   3.7413740168391E-05
(PID.TID 0000.0001) %MON dynstat_uvel_sd              =   1.2167737953428E-02
(PID.TID 0000.0001) %MON dynstat_uvel_del2            =   3.7067490991877E-04
(PID.TID 0000.0001) %MON dynstat_vvel_max             =   5.6775369533569E-03
(PID.TID 0000.0001) %MON dynstat_vvel_min             =  -5.7599270094175E-03
(PID.TID 0000.0001) %MON dynstat_vvel_mean            =   2.8798434078117E-06
(PID.TID 0000.0001) %MON dynstat_vvel_sd              =   7.2506566857022E-04
(PID.TID 0000.0001) %MON dynstat_vvel_del2            =   6.6781243015127E-05
(PID.TID 0000.0001) %MON dynstat_wvel_max             =   1.7216240957295E-05
(PID.TID 0000.0001) %MON dynstat_wvel_min             =  -1.0042382544654E-05
(PID.TID 0000.0001) %MON dynstat_wvel_mean            =  -4.2036163859010E-12
(PID.TID 0000.0001) %MON dynstat_wvel_sd              =   4.4143337348450E-06
(PID.TID 0000.0001) %MON dynstat_wvel_del2            =   2.6474874599269E-07
(PID.TID 0000.0001) %MON dynstat_theta_max            =   1.2086336970563E+01
(PID.TID 0000.0001) %MON dynstat_theta_min            =   5.2161102953928E+00
(PID.TID 0000.0001) %MON dynstat_theta_mean           =   7.8249669284452E+00
(PID.TID 0000.0001) %MON dynstat_theta_sd             =   1.4898187562342E+00
(PID.TID 0000.0001) %MON dynstat_theta_del2           =   4.1133624519778E-03
(PID.TID 0000.0001) %MON dynstat_salt_max             =   1.1998394961455E+01
(PID.TID 0000.0001) %MON dynstat_salt_min             =   1.0463921586866E+01
(PID.TID 0000.0001) %MON dynstat_salt_mean            =   1.1305173984485E+01
(PID.TID 0000.0001) %MON dynstat_salt_sd              =   5.1653319490937E-01
(PID.TID 0000.0001) %MON dynstat_salt_del2            =   5.5484684162470E-04
(PID.TID 0000.0001) %MON advcfl_uvel_max              =   3.2057729379783E-03
(PID.TID 0000.0001) %MON advcfl_vvel_max              =   2.0735737233903E-04
(PID.TID 0000.0001) %MON advcfl_wvel_max              =   9.3378654473569E-04
(PID.TID 0000.0001) %MON advcfl_W_hf_max              =   1.0271651992093E-03
(PID.TID 0000.0001) %MON pe_b_mean                    =   1.6007786827561E-05
(PID.TID 0000.0001) %MON ke_max                       =   3.9667627564973E-03
(PID.TID 0000.0001) %MON ke_mean                      =   7.4280263747314E-05
(PID.TID 0000.0001) %MON ke_vol                       =   6.5555965471909E+14
(PID.TID 0000.0001) // =======================================================
(PID.TID 0000.0001) // End MONITOR dynamic field statistics
(PID.TID 0000.0001) // =======================================================
(PID.TID 0000.0001)  MDS_WRITE_FIELD: it,rec,kS,kL,kH=      25     1  25   1  25 file=U.0000000025
(PID.TID 0000.0001)  MDS_WRITE_FIELD: it,rec,kS,kL,kH=      25     1  25   1  25 file=V.0000000025
(PID.TID 0000.0001)  MDS_WRITE_FIELD: it,rec,kS,kL,kH=      25     1  25   1  25 file=T.0000000025
(PID.TID 0000.0001)  MDS_WRITE_FIELD: it,rec,kS,kL,kH=      25     1  25   1  25 file=S.0000000025
(PID.TID 0000.0001)  MDS_WRITE_FIELD: it,rec,kS,kL,kH=      25     1   1   1   1 file=Eta.0000000025
(PID.TID 0000.0001)  MDS_WRITE_FIELD: it,rec,kS,kL,kH=      25     1  25   1  25 file=W.0000000025
(PID.TID 0000.0001)  MDS_WRITE_FIELD: it,rec,kS,kL,kH=      25     1  25   1  25 file=PH.0000000025
(PID.TID 0000.0001)  MDS_WRITE_FIELD: it,rec,kS,kL,kH=      25     1   1   1   1 file=PHL.0000000025
 Computing Diagnostic #     23  ETAN         Counter:       1   Parms: SM      M1      
(PID.TID 0000.0001)  MDS_WRITE_FIELD: it,rec,kS,kL,kH=      24    -1  50   1   1 file=surfDiag.0000000024
 Computing Diagnostic #     25  DETADT2      Counter:       1   Parms: SM      M1      
(PID.TID 0000.0001)  MDS_WRITE_FIELD: it,rec,kS,kL,kH=      24    -2  50   1   1 file=surfDiag.0000000024
 Computing Diagnostic #     73  PHIBOT       Counter:       1   Parms: SM      M1      
(PID.TID 0000.0001)  MDS_WRITE_FIELD: it,rec,kS,kL,kH=      24    -3  50   1   1 file=surfDiag.0000000024
 Computing Diagnostic #     76  MXLDEPTH     Counter:       1   Parms: SM      M1      
(PID.TID 0000.0001)  MDS_WRITE_FIELD: it,rec,kS,kL,kH=      24    -4  50   1   1 file=surfDiag.0000000024
 Computing Diagnostic #     77  DRHODR       Counter:       1   Parms: SM      LR      
(PID.TID 0000.0001)  MDS_WRITE_FIELD: it,rec,kS,kL,kH=      24    -1  50   1  25 file=oceDiag.0000000024
 Computing Diagnostic #     64  RHOAnoma     Counter:       1   Parms: SMR     MR      
(PID.TID 0000.0001)  MDS_WRITE_FIELD: it,rec,kS,kL,kH=      24    -2  50   1  25 file=oceDiag.0000000024
 Computing Diagnostic #    202  GM_Kwy       Counter:       1   Parms: VM      LR      
           Vector  Mate for  GM_Kwy       Diagnostic #    201  GM_Kwx   not enabled
(PID.TID 0000.0001)  MDS_WRITE_FIELD: it,rec,kS,kL,kH=      24    -3  50   1  25 file=oceDiag.0000000024
 Computing Diagnostic #    203  GM_Kwz       Counter:       1   Parms: WM P    LR      
(PID.TID 0000.0001)  MDS_WRITE_FIELD: it,rec,kS,kL,kH=      24    -4  50   1  25 file=oceDiag.0000000024
 Computing Diagnostic #    198  GM_Kvy       Counter:       1   Parms: VV P    MR      
           Vector  Mate for  GM_Kvy       Diagnostic #    197  GM_Kux   not enabled
(PID.TID 0000.0001)  MDS_WRITE_FIELD: it,rec,kS,kL,kH=      24    -5  50   1  25 file=oceDiag.0000000024
 Computing Diagnostic #    200  GM_Kvz       Counter:       1   Parms: VV      MR      
           Vector  Mate for  GM_Kvz       Diagnostic #    199  GM_Kuz   not enabled
(PID.TID 0000.0001)  MDS_WRITE_FIELD: it,rec,kS,kL,kH=      24    -6  50   1  25 file=oceDiag.0000000024
 Computing Diagnostic #    205  GM_PsiY      Counter:       1   Parms: VV      LR      
           Vector  Mate for  GM_PsiY      Diagnostic #    204  GM_PsiX  not enabled
(PID.TID 0000.0001)  MDS_WRITE_FIELD: it,rec,kS,kL,kH=      24    -7  50   1  25 file=oceDiag.0000000024
 Computing Diagnostic #     26  THETA        Counter:       1   Parms: SMR     MR      
(PID.TID 0000.0001)  MDS_WRITE_FIELD: it,rec,kS,kL,kH=      24    -8  50   1  25 file=oceDiag.0000000024
(PID.TID 0000.0001)  write diagnostics summary to file: diagnostics_status.0000000025.txt
(PID.TID 0000.0001)  MDS_WRITE_FIELD: it,rec,kS,kL,kH=      25    -1  25   1  25 file=pickup.ckptA
(PID.TID 0000.0001)  MDS_WRITE_FIELD: it,rec,kS,kL,kH=      25    -2  25   1  25 file=pickup.ckptA
(PID.TID 0000.0001)  MDS_WRITE_FIELD: it,rec,kS,kL,kH=      25    -3  25   1  25 file=pickup.ckptA
(PID.TID 0000.0001)  MDS_WRITE_FIELD: it,rec,kS,kL,kH=      25    -4  25   1  25 file=pickup.ckptA
(PID.TID 0000.0001)  MDS_WRITE_FIELD: it,rec,kS,kL,kH=      25    -5  25   1  25 file=pickup.ckptA
(PID.TID 0000.0001)  MDS_WRITE_FIELD: it,rec,kS,kL,kH=      25    -6  25   1  25 file=pickup.ckptA
(PID.TID 0000.0001)  MDS_WRITE_FIELD: it,rec,kS,kL,kH=      25    -7  25   1  25 file=pickup.ckptA
(PID.TID 0000.0001)  MDS_WRITE_FIELD: it,rec,kS,kL,kH=      25    -8  25   1  25 file=pickup.ckptA
(PID.TID 0000.0001)  MDS_WRITE_FIELD: it,rec,kS,kL,kH=      25  -201   1   1   1 file=pickup.ckptA
(PID.TID 0000.0001)  MDS_WRITE_FIELD: it,rec,kS,kL,kH=      25  -202   1   1   1 file=pickup.ckptA
(PID.TID 0000.0001)  MDS_WRITE_FIELD: it,rec,kS,kL,kH=      25  -203   1   1   1 file=pickup.ckptA
(PID.TID 0000.0001) %CHECKPOINT        25 ckptA
(PID.TID 0000.0001)   Seconds in section "ALL                    [THE_MODEL_MAIN]":
(PID.TID 0000.0001)           User time:   1.0640649511478841
(PID.TID 0000.0001)         System time:   1.2493999674916267E-002
(PID.TID 0000.0001)     Wall clock time:   1.0766191482543945
(PID.TID 0000.0001)          No. starts:           1
(PID.TID 0000.0001)           No. stops:           1
(PID.TID 0000.0001)   Seconds in section "INITIALISE_FIXED       [THE_MODEL_MAIN]":
(PID.TID 0000.0001)           User time:   1.3934999471530318E-002
(PID.TID 0000.0001)         System time:   8.0399997532367706E-003
(PID.TID 0000.0001)     Wall clock time:   2.1975994110107422E-002
(PID.TID 0000.0001)          No. starts:           1
(PID.TID 0000.0001)           No. stops:           1
(PID.TID 0000.0001)   Seconds in section "THE_MAIN_LOOP          [THE_MODEL_MAIN]":
(PID.TID 0000.0001)           User time:   1.0500869639217854
(PID.TID 0000.0001)         System time:   4.4489996507763863E-003
(PID.TID 0000.0001)     Wall clock time:   1.0546019077301025
(PID.TID 0000.0001)          No. starts:           1
(PID.TID 0000.0001)           No. stops:           1
(PID.TID 0000.0001)   Seconds in section "INITIALISE_VARIA    [THE_MAIN_LOOP]":
(PID.TID 0000.0001)           User time:   8.5300002247095108E-003
(PID.TID 0000.0001)         System time:   4.2650001123547554E-003
(PID.TID 0000.0001)     Wall clock time:   1.2796163558959961E-002
(PID.TID 0000.0001)          No. starts:           1
(PID.TID 0000.0001)           No. stops:           1
(PID.TID 0000.0001)   Seconds in section "MAIN LOOP           [THE_MAIN_LOOP]":
(PID.TID 0000.0001)           User time:   1.0415370501577854
(PID.TID 0000.0001)         System time:   1.7699971795082092E-004
(PID.TID 0000.0001)     Wall clock time:   1.0417799949645996
(PID.TID 0000.0001)          No. starts:           1
(PID.TID 0000.0001)           No. stops:           1
(PID.TID 0000.0001)   Seconds in section "MAIN_DO_LOOP        [THE_MAIN_LOOP]":
(PID.TID 0000.0001)           User time:   1.0413330290466547
(PID.TID 0000.0001)         System time:   1.7399992793798447E-004
(PID.TID 0000.0001)     Wall clock time:   1.0415759086608887
(PID.TID 0000.0001)          No. starts:          25
(PID.TID 0000.0001)           No. stops:          25
(PID.TID 0000.0001)   Seconds in section "FORWARD_STEP        [MAIN_DO_LOOP]":
(PID.TID 0000.0001)           User time:   1.0409349724650383
(PID.TID 0000.0001)         System time:   1.7100013792514801E-004
(PID.TID 0000.0001)     Wall clock time:   1.0411748886108398
(PID.TID 0000.0001)          No. starts:          25
(PID.TID 0000.0001)           No. stops:          25
(PID.TID 0000.0001)   Seconds in section "DO_STATEVARS_DIAGS  [FORWARD_STEP]":
(PID.TID 0000.0001)           User time:   9.3189999461174011E-004
(PID.TID 0000.0001)         System time:   2.8000213205814362E-005
(PID.TID 0000.0001)     Wall clock time:   9.6344947814941406E-004
(PID.TID 0000.0001)          No. starts:          50
(PID.TID 0000.0001)           No. stops:          50
(PID.TID 0000.0001)   Seconds in section "LOAD_FIELDS_DRIVER  [FORWARD_STEP]":
(PID.TID 0000.0001)           User time:   6.5605528652667999E-004
(PID.TID 0000.0001)         System time:   1.2000091373920441E-005
(PID.TID 0000.0001)     Wall clock time:   6.6971778869628906E-004
(PID.TID 0000.0001)          No. starts:          25
(PID.TID 0000.0001)           No. stops:          25
(PID.TID 0000.0001)   Seconds in section "EXTERNAL_FLDS_LOAD [LOAD_FLDS_DRIVER]":
(PID.TID 0000.0001)           User time:   2.1075271070003510E-004
(PID.TID 0000.0001)         System time:   6.0005113482475281E-006
(PID.TID 0000.0001)     Wall clock time:   2.1481513977050781E-004
(PID.TID 0000.0001)          No. starts:          25
(PID.TID 0000.0001)           No. stops:          25
(PID.TID 0000.0001)   Seconds in section "DO_ATMOSPHERIC_PHYS [FORWARD_STEP]":
(PID.TID 0000.0001)           User time:   2.0891800522804260E-004
(PID.TID 0000.0001)         System time:   2.9997900128364563E-006
(PID.TID 0000.0001)     Wall clock time:   2.2006034851074219E-004
(PID.TID 0000.0001)          No. starts:          25
(PID.TID 0000.0001)           No. stops:          25
(PID.TID 0000.0001)   Seconds in section "DO_OCEANIC_PHYS     [FORWARD_STEP]":
(PID.TID 0000.0001)           User time:  0.18126105703413486
(PID.TID 0000.0001)         System time:   0.0000000000000000
(PID.TID 0000.0001)     Wall clock time:  0.18129849433898926
(PID.TID 0000.0001)          No. starts:          25
(PID.TID 0000.0001)           No. stops:          25
(PID.TID 0000.0001)   Seconds in section "THERMODYNAMICS      [FORWARD_STEP]":
(PID.TID 0000.0001)           User time:  0.37275800853967667
(PID.TID 0000.0001)         System time:   0.0000000000000000
(PID.TID 0000.0001)     Wall clock time:  0.37280488014221191
(PID.TID 0000.0001)          No. starts:          25
(PID.TID 0000.0001)           No. stops:          25
(PID.TID 0000.0001)   Seconds in section "DYNAMICS            [FORWARD_STEP]":
(PID.TID 0000.0001)           User time:  0.32615904137492180
(PID.TID 0000.0001)         System time:   1.1199992150068283E-004
(PID.TID 0000.0001)     Wall clock time:  0.32631421089172363
(PID.TID 0000.0001)          No. starts:          25
(PID.TID 0000.0001)           No. stops:          25
(PID.TID 0000.0001)   Seconds in section "SOLVE_FOR_PRESSURE  [FORWARD_STEP]":
(PID.TID 0000.0001)           User time:   2.1565072238445282E-002
(PID.TID 0000.0001)         System time:   0.0000000000000000
(PID.TID 0000.0001)     Wall clock time:   2.1586656570434570E-002
(PID.TID 0000.0001)          No. starts:          25
(PID.TID 0000.0001)           No. stops:          25
(PID.TID 0000.0001)   Seconds in section "MOM_CORRECTION_STEP [FORWARD_STEP]":
(PID.TID 0000.0001)           User time:   1.4388978481292725E-002
(PID.TID 0000.0001)         System time:   0.0000000000000000
(PID.TID 0000.0001)     Wall clock time:   1.4394044876098633E-002
(PID.TID 0000.0001)          No. starts:          25
(PID.TID 0000.0001)           No. stops:          25
(PID.TID 0000.0001)   Seconds in section "INTEGR_CONTINUITY   [FORWARD_STEP]":
(PID.TID 0000.0001)           User time:   4.9870014190673828E-003
(PID.TID 0000.0001)         System time:   0.0000000000000000
(PID.TID 0000.0001)     Wall clock time:   4.9850940704345703E-003
(PID.TID 0000.0001)          No. starts:          25
(PID.TID 0000.0001)           No. stops:          25
(PID.TID 0000.0001)   Seconds in section "TRC_CORRECTION_STEP [FORWARD_STEP]":
(PID.TID 0000.0001)           User time:   3.2105170190334320E-002
(PID.TID 0000.0001)         System time:   0.0000000000000000
(PID.TID 0000.0001)     Wall clock time:   3.2156705856323242E-002
(PID.TID 0000.0001)          No. starts:          25
(PID.TID 0000.0001)           No. stops:          25
(PID.TID 0000.0001)   Seconds in section "BLOCKING_EXCHANGES  [FORWARD_STEP]":
(PID.TID 0000.0001)           User time:   4.1980832815170288E-002
(PID.TID 0000.0001)         System time:   0.0000000000000000
(PID.TID 0000.0001)     Wall clock time:   4.1991710662841797E-002
(PID.TID 0000.0001)          No. starts:          25
(PID.TID 0000.0001)           No. stops:          25
(PID.TID 0000.0001)   Seconds in section "MONITOR             [FORWARD_STEP]":
(PID.TID 0000.0001)           User time:   3.3053003251552582E-002
(PID.TID 0000.0001)         System time:   0.0000000000000000
(PID.TID 0000.0001)     Wall clock time:   3.3078193664550781E-002
(PID.TID 0000.0001)          No. starts:          25
(PID.TID 0000.0001)           No. stops:          25
(PID.TID 0000.0001)   Seconds in section "DO_THE_MODEL_IO     [FORWARD_STEP]":
(PID.TID 0000.0001)           User time:   6.1529278755187988E-003
(PID.TID 0000.0001)         System time:   0.0000000000000000
(PID.TID 0000.0001)     Wall clock time:   6.1547756195068359E-003
(PID.TID 0000.0001)          No. starts:          25
(PID.TID 0000.0001)           No. stops:          25
(PID.TID 0000.0001)   Seconds in section "DO_WRITE_PICKUP     [FORWARD_STEP]":
(PID.TID 0000.0001)           User time:   1.1348426342010498E-003
(PID.TID 0000.0001)         System time:   0.0000000000000000
(PID.TID 0000.0001)     Wall clock time:   1.1329650878906250E-003
(PID.TID 0000.0001)          No. starts:          25
(PID.TID 0000.0001)           No. stops:          25
(PID.TID 0000.0001) // ======================================================
(PID.TID 0000.0001) // Tile <-> Tile communication statistics
(PID.TID 0000.0001) // ======================================================
(PID.TID 0000.0001) // o Tile number: 000001
(PID.TID 0000.0001) //         No. X exchanges =              0
(PID.TID 0000.0001) //            Max. X spins =              0
(PID.TID 0000.0001) //            Min. X spins =     1000000000
(PID.TID 0000.0001) //          Total. X spins =              0
(PID.TID 0000.0001) //            Avg. X spins =       0.00E+00
(PID.TID 0000.0001) //         No. Y exchanges =              0
(PID.TID 0000.0001) //            Max. Y spins =              0
(PID.TID 0000.0001) //            Min. Y spins =     1000000000
(PID.TID 0000.0001) //          Total. Y spins =              0
(PID.TID 0000.0001) //            Avg. Y spins =       0.00E+00
(PID.TID 0000.0001) // o Tile number: 000002
(PID.TID 0000.0001) //         No. X exchanges =              0
(PID.TID 0000.0001) //            Max. X spins =              0
(PID.TID 0000.0001) //            Min. X spins =     1000000000
(PID.TID 0000.0001) //          Total. X spins =              0
(PID.TID 0000.0001) //            Avg. X spins =       0.00E+00
(PID.TID 0000.0001) //         No. Y exchanges =              0
(PID.TID 0000.0001) //            Max. Y spins =              0
(PID.TID 0000.0001) //            Min. Y spins =     1000000000
(PID.TID 0000.0001) //          Total. Y spins =              0
(PID.TID 0000.0001) //            Avg. Y spins =       0.00E+00
(PID.TID 0000.0001) // o Thread number: 000001
(PID.TID 0000.0001) //            No. barriers =           7724
(PID.TID 0000.0001) //      Max. barrier spins =              1
(PID.TID 0000.0001) //      Min. barrier spins =              1
(PID.TID 0000.0001) //     Total barrier spins =           7724
(PID.TID 0000.0001) //      Avg. barrier spins =       1.00E+00
PROGRAM MAIN: Execution ended Normally
