(PID.TID 0000.0001) 
(PID.TID 0000.0001) // ======================================================
(PID.TID 0000.0001) //                      MITgcm UV
(PID.TID 0000.0001) //                      =========
(PID.TID 0000.0001) // ======================================================
(PID.TID 0000.0001) // execution environment starting up...
(PID.TID 0000.0001) 
(PID.TID 0000.0001) // MITgcmUV version:  checkpoint67s
(PID.TID 0000.0001) // Build user:        hing5ong
(PID.TID 0000.0001) // Build host:        cori11
(PID.TID 0000.0001) // Build date:        Wed Aug 26 13:40:06 PDT 2020
(PID.TID 0000.0001) 
(PID.TID 0000.0001) // =======================================================
(PID.TID 0000.0001) // Execution Environment parameter file "eedata"
(PID.TID 0000.0001) // =======================================================
(PID.TID 0000.0001) ># Example "eedata" file
(PID.TID 0000.0001) ># Lines beginning "#" are comments
(PID.TID 0000.0001) ># nTx - No. threads per process in X
(PID.TID 0000.0001) ># nTy - No. threads per process in Y
(PID.TID 0000.0001) > &EEPARMS
(PID.TID 0000.0001) > useCubedSphereExchange=.TRUE.,
(PID.TID 0000.0001) ># Activate one line below to support 2, 3 or 6 way multi-threading
(PID.TID 0000.0001) >#nTx=2,
(PID.TID 0000.0001) >#nTx=3,
(PID.TID 0000.0001) >#nTx=6,
(PID.TID 0000.0001) > &
(PID.TID 0000.0001) ># Note: Some systems use & as the
(PID.TID 0000.0001) ># namelist terminator. Other systems
(PID.TID 0000.0001) ># use a / character (as shown here).
(PID.TID 0000.0001) 
(PID.TID 0000.0001) // =======================================================
(PID.TID 0000.0001) // Computational Grid Specification ( see files "SIZE.h" )
(PID.TID 0000.0001) //                                  ( and "eedata"       )
(PID.TID 0000.0001) // =======================================================
(PID.TID 0000.0001)      nPx =    1 ; /* No. processes in X */
(PID.TID 0000.0001)      nPy =    1 ; /* No. processes in Y */
(PID.TID 0000.0001)      nSx =    6 ; /* No. tiles in X per process */
(PID.TID 0000.0001)      nSy =    1 ; /* No. tiles in Y per process */
(PID.TID 0000.0001)      sNx =   32 ; /* Tile size in X */
(PID.TID 0000.0001)      sNy =   32 ; /* Tile size in Y */
(PID.TID 0000.0001)      OLx =    2 ; /* Tile overlap distance in X */
(PID.TID 0000.0001)      OLy =    2 ; /* Tile overlap distance in Y */
(PID.TID 0000.0001)      nTx =    1 ; /* No. threads in X per process */
(PID.TID 0000.0001)      nTy =    1 ; /* No. threads in Y per process */
(PID.TID 0000.0001)       Nr =   20 ; /* No. levels in the vertical   */
(PID.TID 0000.0001)       Nx =  192 ; /* Total domain size in X ( = nPx*nSx*sNx ) */
(PID.TID 0000.0001)       Ny =   32 ; /* Total domain size in Y ( = nPy*nSy*sNy ) */
(PID.TID 0000.0001)   nTiles =    6 ; /* Total no. tiles per process ( = nSx*nSy ) */
(PID.TID 0000.0001)   nProcs =    1 ; /* Total no. processes ( = nPx*nPy ) */
(PID.TID 0000.0001) nThreads =    1 ; /* Total no. threads per process ( = nTx*nTy ) */
(PID.TID 0000.0001) usingMPI =    F ; /* Flag used to control whether MPI is in use */
(PID.TID 0000.0001)                   /*  note: To execute a program with MPI calls */
(PID.TID 0000.0001)                   /*  it must be launched appropriately e.g     */
(PID.TID 0000.0001)                   /*  "mpirun -np 64 ......"                    */
(PID.TID 0000.0001) useCoupler=   F ; /* Flag used to control communications with   */
(PID.TID 0000.0001)                   /*  other model components, through a coupler */
(PID.TID 0000.0001) useNest2W_parent =    F ;/* Control 2-W Nesting comm */
(PID.TID 0000.0001) useNest2W_child  =    F ;/* Control 2-W Nesting comm */
(PID.TID 0000.0001) debugMode =    F ; /* print debug msg. (sequence of S/R calls)  */
(PID.TID 0000.0001) printMapIncludesZeros=    F ; /* print zeros in Std.Output maps */
(PID.TID 0000.0001) maxLengthPrt1D=   65 /* maxLength of 1D array printed to StdOut */
(PID.TID 0000.0001) 
(PID.TID 0000.0001) // ======================================================
(PID.TID 0000.0001) // Mapping of tiles to threads
(PID.TID 0000.0001) // ======================================================
(PID.TID 0000.0001) // -o- Thread   1, tiles (   1:   6,   1:   1)
(PID.TID 0000.0001) 
(PID.TID 0000.0001) W2_READPARMS: file data.exch2 not found
(PID.TID 0000.0001) => use W2_EXCH2 default: regular 6-facets Cube
(PID.TID 0000.0001) W2_useE2ioLayOut=    T ;/* T: use Exch2 glob IO map; F: use model default */
(PID.TID 0000.0001) W2_mapIO        =  -1 ; /* select option for Exch2 global-IO map */
(PID.TID 0000.0001) W2_printMsg     =  -1 ; /* select option for printing information */
(PID.TID 0000.0001) ===== Start setting W2 TOPOLOGY:
(PID.TID 0000.0001)  write to log-file: w2_tile_topology.0000.log
(PID.TID 0000.0001) =====       setting W2 TOPOLOGY: Done
(PID.TID 0000.0001) 
(PID.TID 0000.0001)  INI_PARMS: opening model parameter file "data"
(PID.TID 0000.0001)  OPEN_COPY_DATA_FILE: opening file data
(PID.TID 0000.0001) // =======================================================
(PID.TID 0000.0001) // Parameter file "data"
(PID.TID 0000.0001) // =======================================================
(PID.TID 0000.0001) ># ====================
(PID.TID 0000.0001) ># | Model parameters |
(PID.TID 0000.0001) ># ====================
(PID.TID 0000.0001) >#
(PID.TID 0000.0001) ># Continuous equation parameters
(PID.TID 0000.0001) > &PARM01
(PID.TID 0000.0001) > tRef=295.2, 295.5, 295.9, 296.3, 296.7, 297.1, 297.6, 298.1, 298.7, 299.3,
(PID.TID 0000.0001) >      300.0, 300.7, 301.9, 304.1, 308.0, 315.1, 329.5, 362.3, 419.2, 573.8,
(PID.TID 0000.0001) > sRef=20*0.0,
(PID.TID 0000.0001) > no_slip_sides=.FALSE.,
(PID.TID 0000.0001) > no_slip_bottom=.FALSE.,
(PID.TID 0000.0001) > buoyancyRelation='ATMOSPHERIC',
(PID.TID 0000.0001) > eosType='IDEALG',
(PID.TID 0000.0001) > rotationPeriod=86400.,
(PID.TID 0000.0001) > implicitFreeSurface=.TRUE.,
(PID.TID 0000.0001) > exactConserv=.TRUE.,
(PID.TID 0000.0001) > nonlinFreeSurf=4,
(PID.TID 0000.0001) > select_rStar=2,
(PID.TID 0000.0001) > hFacInf=0.2,
(PID.TID 0000.0001) > hFacSup=2.0,
(PID.TID 0000.0001) > uniformLin_PhiSurf=.FALSE.,
(PID.TID 0000.0001) >#hFacMin=0.2,
(PID.TID 0000.0001) > saltStepping=.FALSE.,
(PID.TID 0000.0001) > momViscosity=.FALSE.,
(PID.TID 0000.0001) > vectorInvariantMomentum=.TRUE.,
(PID.TID 0000.0001) > staggerTimeStep=.TRUE.,
(PID.TID 0000.0001) > readBinaryPrec=64,
(PID.TID 0000.0001) > writeBinaryPrec=64,
(PID.TID 0000.0001) > &
(PID.TID 0000.0001) >
(PID.TID 0000.0001) ># Elliptic solver parameters
(PID.TID 0000.0001) > &PARM02
(PID.TID 0000.0001) > cg2dMaxIters=200,
(PID.TID 0000.0001) >#cg2dTargetResidual=1.E-12,
(PID.TID 0000.0001) > cg2dTargetResWunit=1.E-17,
(PID.TID 0000.0001) > &
(PID.TID 0000.0001) >
(PID.TID 0000.0001) ># Time stepping parameters
(PID.TID 0000.0001) > &PARM03
(PID.TID 0000.0001) > deltaT=450.,
(PID.TID 0000.0001) >#nIter0=276480,
(PID.TID 0000.0001) > startTime=124416000.,
(PID.TID 0000.0001) >#- run for 1 year (192.iterations x 450.s = 1.day, 360*192=69120):
(PID.TID 0000.0001) >#nTimeSteps=69120,
(PID.TID 0000.0001) >#forcing_In_AB=.FALSE.,
(PID.TID 0000.0001) > tracForcingOutAB=1,
(PID.TID 0000.0001) > abEps=0.1,
(PID.TID 0000.0001) > pChkptFreq=31104000.,
(PID.TID 0000.0001) > chkptFreq=2592000.,
(PID.TID 0000.0001) > dumpFreq=2592000.,
(PID.TID 0000.0001) >#monitorFreq=43200.,
(PID.TID 0000.0001) > taveFreq=0.,
(PID.TID 0000.0001) >#- to run a short test (2.h):
(PID.TID 0000.0001) > nTimeSteps=16,
(PID.TID 0000.0001) > monitorFreq=1.,
(PID.TID 0000.0001) > &
(PID.TID 0000.0001) >
(PID.TID 0000.0001) ># Gridding parameters
(PID.TID 0000.0001) > &PARM04
(PID.TID 0000.0001) > usingCurvilinearGrid=.TRUE.,
(PID.TID 0000.0001) > horizGridFile='grid_cs32',
(PID.TID 0000.0001) > radius_fromHorizGrid=6370.E3,
(PID.TID 0000.0001) > delR=20*50.E2,
(PID.TID 0000.0001) > &
(PID.TID 0000.0001) >
(PID.TID 0000.0001) ># Input datasets
(PID.TID 0000.0001) > &PARM05
(PID.TID 0000.0001) >#topoFile='topo.cs.bin',
(PID.TID 0000.0001) > &
(PID.TID 0000.0001) 
(PID.TID 0000.0001)  INI_PARMS ; starts to read PARM01
(PID.TID 0000.0001)  INI_PARMS ; read PARM01 : OK
(PID.TID 0000.0001)  INI_PARMS ; starts to read PARM02
(PID.TID 0000.0001)  INI_PARMS ; read PARM02 : OK
(PID.TID 0000.0001)  INI_PARMS ; starts to read PARM03
(PID.TID 0000.0001)  INI_PARMS ; read PARM03 : OK
(PID.TID 0000.0001)  INI_PARMS ; starts to read PARM04
(PID.TID 0000.0001)  INI_PARMS ; read PARM04 : OK
(PID.TID 0000.0001)  INI_PARMS ; starts to read PARM05
(PID.TID 0000.0001)  INI_PARMS ; read PARM05 : OK
(PID.TID 0000.0001)  INI_PARMS: finished reading file "data"
(PID.TID 0000.0001)  PACKAGES_BOOT: opening data.pkg
(PID.TID 0000.0001)  OPEN_COPY_DATA_FILE: opening file data.pkg
(PID.TID 0000.0001) // =======================================================
(PID.TID 0000.0001) // Parameter file "data.pkg"
(PID.TID 0000.0001) // =======================================================
(PID.TID 0000.0001) ># Packages
(PID.TID 0000.0001) > &PACKAGES
(PID.TID 0000.0001) > useSHAP_FILT=.TRUE.,
(PID.TID 0000.0001) > useDiagnostics=.TRUE.,
(PID.TID 0000.0001) >#useMNC=.TRUE.,
(PID.TID 0000.0001) > &
(PID.TID 0000.0001) 
(PID.TID 0000.0001)  PACKAGES_BOOT: finished reading data.pkg
(PID.TID 0000.0001)  PACKAGES_BOOT: On/Off package Summary
 --------  pkgs with a standard "usePKG" On/Off switch in "data.pkg":  --------
 pkg/shap_filt            compiled   and   used ( useSHAP_FILT             = T )
 pkg/diagnostics          compiled   and   used ( useDiagnostics           = T )
 -------- pkgs without standard "usePKG" On/Off switch in "data.pkg":  --------
 pkg/generic_advdiff      compiled   and   used ( useGAD                   = T )
 pkg/mom_common           compiled   and   used ( momStepping              = T )
 pkg/mom_vecinv           compiled   and   used ( +vectorInvariantMomentum = T )
 pkg/mom_fluxform         compiled but not used ( & not vectorInvariantMom = F )
 pkg/monitor              compiled   and   used ( monitorFreq > 0.         = T )
 pkg/debug                compiled but not used ( debugMode                = F )
 pkg/exch2                compiled   and   used
 pkg/rw                   compiled   and   used
 pkg/mdsio                compiled   and   used
(PID.TID 0000.0001)  PACKAGES_BOOT: End of package Summary
(PID.TID 0000.0001) 
(PID.TID 0000.0001)  SHAP_FILT_READPARMS: opening data.shap
(PID.TID 0000.0001)  OPEN_COPY_DATA_FILE: opening file data.shap
(PID.TID 0000.0001) // =======================================================
(PID.TID 0000.0001) // Parameter file "data.shap"
(PID.TID 0000.0001) // =======================================================
(PID.TID 0000.0001) ># Shapiro Filter parameters
(PID.TID 0000.0001) > &SHAP_PARM01
(PID.TID 0000.0001) > shap_filt_uvStar=.FALSE.,
(PID.TID 0000.0001) > shap_filt_TrStagg=.TRUE.,
(PID.TID 0000.0001) > Shap_funct=2,
(PID.TID 0000.0001) > nShapT=0,
(PID.TID 0000.0001) > nShapUV=4,
(PID.TID 0000.0001) >#nShapTrPhys=0,
(PID.TID 0000.0001) > nShapUVPhys=4,
(PID.TID 0000.0001) >#Shap_TrLength=140000.,
(PID.TID 0000.0001) >#Shap_uvLength=110000.,
(PID.TID 0000.0001) >#Shap_Trtau=5400.,
(PID.TID 0000.0001) >#Shap_uvtau=1800.,
(PID.TID 0000.0001) >#Shap_diagFreq=2592000.,
(PID.TID 0000.0001) > &
(PID.TID 0000.0001) 
(PID.TID 0000.0001)  SHAP_FILT_READPARMS: finished reading data.shap
(PID.TID 0000.0001) Shap_funct =   /* select Shapiro filter function */
(PID.TID 0000.0001)                       2
(PID.TID 0000.0001)     ;
(PID.TID 0000.0001) nShapT =   /* power of Shapiro filter for Temperat */
(PID.TID 0000.0001)                       0
(PID.TID 0000.0001)     ;
(PID.TID 0000.0001) nShapS =   /* power of Shapiro filter for Salinity */
(PID.TID 0000.0001)                       0
(PID.TID 0000.0001)     ;
(PID.TID 0000.0001) nShapUV =   /* power of Shapiro filter for momentum */
(PID.TID 0000.0001)                       4
(PID.TID 0000.0001)     ;
(PID.TID 0000.0001) shap_filt_uvStar = /* apply filter before Press. Solver */
(PID.TID 0000.0001)                   F
(PID.TID 0000.0001)     ;
(PID.TID 0000.0001) shap_filt_TrStagg = /* filter T,S before calc PhiHyd (staggerTimeStep) */
(PID.TID 0000.0001)                   T
(PID.TID 0000.0001)     ;
(PID.TID 0000.0001) Shap_alwaysExchUV = /* always exch(U,V)    nShapUV times*/
(PID.TID 0000.0001)                   F
(PID.TID 0000.0001)     ;
(PID.TID 0000.0001) Shap_alwaysExchTr = /* always exch(Tracer) nShapTr times*/
(PID.TID 0000.0001)                   F
(PID.TID 0000.0001)     ;
(PID.TID 0000.0001) nShapTrPhys =   /* power of physical-space filter (Tracer) */
(PID.TID 0000.0001)                       0
(PID.TID 0000.0001)     ;
(PID.TID 0000.0001) nShapUVPhys =   /* power of physical-space filter (Momentum) */
(PID.TID 0000.0001)                       4
(PID.TID 0000.0001)     ;
(PID.TID 0000.0001) Shap_Trtau =   /* time scale of Shapiro filter (Tracer) */
(PID.TID 0000.0001)                 4.500000000000000E+02
(PID.TID 0000.0001)     ;
(PID.TID 0000.0001) Shap_TrLength =   /* Length scale of Shapiro filter (Tracer) */
(PID.TID 0000.0001)                 0.000000000000000E+00
(PID.TID 0000.0001)     ;
(PID.TID 0000.0001) Shap_uvtau =   /* time scale of Shapiro filter (Momentum) */
(PID.TID 0000.0001)                 4.500000000000000E+02
(PID.TID 0000.0001)     ;
(PID.TID 0000.0001) Shap_uvLength =   /* Length scale of Shapiro filter (Momentum) */
(PID.TID 0000.0001)                 0.000000000000000E+00
(PID.TID 0000.0001)     ;
(PID.TID 0000.0001) Shap_noSlip =  /* No-slip parameter (0=Free-slip ; 1=No-slip)*/
(PID.TID 0000.0001)                 0.000000000000000E+00
(PID.TID 0000.0001)     ;
(PID.TID 0000.0001) Shap_diagFreq =   /* Frequency^-1 for diagnostic output (s)*/
(PID.TID 0000.0001)                 0.000000000000000E+00
(PID.TID 0000.0001)     ;
(PID.TID 0000.0001)  DIAGNOSTICS_READPARMS: opening data.diagnostics
(PID.TID 0000.0001)  OPEN_COPY_DATA_FILE: opening file data.diagnostics
(PID.TID 0000.0001) // =======================================================
(PID.TID 0000.0001) // Parameter file "data.diagnostics"
(PID.TID 0000.0001) // =======================================================
(PID.TID 0000.0001) ># Diagnostic Package Choices
(PID.TID 0000.0001) >#--------------------
(PID.TID 0000.0001) >#  dumpAtLast (logical): always write output at the end of simulation (default=F)
(PID.TID 0000.0001) >#  diag_mnc   (logical): write to NetCDF files (default=useMNC)
(PID.TID 0000.0001) >#--for each output-stream:
(PID.TID 0000.0001) >#  fileName(n) : prefix of the output file name (max 80c long) for outp.stream n
(PID.TID 0000.0001) >#  frequency(n):< 0 : write snap-shot output every |frequency| seconds
(PID.TID 0000.0001) >#               > 0 : write time-average output every frequency seconds
(PID.TID 0000.0001) >#  timePhase(n)     : write at time = timePhase + multiple of |frequency|
(PID.TID 0000.0001) >#    averagingFreq  : frequency (in s) for periodic averaging interval
(PID.TID 0000.0001) >#    averagingPhase : phase     (in s) for periodic averaging interval
(PID.TID 0000.0001) >#    repeatCycle    : number of averaging intervals in 1 cycle
(PID.TID 0000.0001) >#  levels(:,n) : list of levels to write to file (Notes: declared as REAL)
(PID.TID 0000.0001) >#                when this entry is missing, select all common levels of this list
(PID.TID 0000.0001) >#  fields(:,n) : list of selected diagnostics fields (8.c) in outp.stream n
(PID.TID 0000.0001) >#                (see "available_diagnostics.log" file for the full list of diags)
(PID.TID 0000.0001) >#  missing_value(n) : missing value for real-type fields in output file "n"
(PID.TID 0000.0001) >#  fileFlags(n)     : specific code (8c string) for output file "n"
(PID.TID 0000.0001) >#--------------------
(PID.TID 0000.0001) > &DIAGNOSTICS_LIST
(PID.TID 0000.0001) ># diag_mnc     = .FALSE.,
(PID.TID 0000.0001) >#--
(PID.TID 0000.0001) >  fields(1:3,1)  = 'ETAN    ','ETANSQ  ','DETADT2 ',
(PID.TID 0000.0001) >   levels(1,1) = 1.,
(PID.TID 0000.0001) >   fileName(1) = 'surfDiag',
(PID.TID 0000.0001) ># frequency(1) = 2592000.,
(PID.TID 0000.0001) >  frequency(1) = 86400.,
(PID.TID 0000.0001) >  fields(1:5,2)  = 'UVEL    ','VVEL    ','WVEL    ','THETA   ','SHAP_dU ',
(PID.TID 0000.0001) >   fileName(2) = 'dynDiag',
(PID.TID 0000.0001) ># frequency(2) = 2592000.,
(PID.TID 0000.0001) >  frequency(2) = 86400.,
(PID.TID 0000.0001) >  fields(1:8,3)  = 'UVELSQ  ','VVELSQ  ','WVELSQ  ','THETASQ ',
(PID.TID 0000.0001) >                   'UTHMASS ','VTHMASS ','WVELTH  ','UV_VEL_C',
(PID.TID 0000.0001) >   fileName(3) = 'secmomDiag',
(PID.TID 0000.0001) ># frequency(3) = 2592000.,
(PID.TID 0000.0001) >  frequency(3) = 86400.,
(PID.TID 0000.0001) > &
(PID.TID 0000.0001) >
(PID.TID 0000.0001) >#--------------------
(PID.TID 0000.0001) ># Parameter for Diagnostics of per level statistics:
(PID.TID 0000.0001) >#--------------------
(PID.TID 0000.0001) >#  diagSt_mnc (logical): write stat-diags to NetCDF files (default=diag_mnc)
(PID.TID 0000.0001) >#  diagSt_regMaskFile : file containing the region-mask to read-in
(PID.TID 0000.0001) >#  nSetRegMskFile   : number of region-mask sets within the region-mask file
(PID.TID 0000.0001) >#  set_regMask(i)   : region-mask set-index that identifies the region "i"
(PID.TID 0000.0001) >#  val_regMask(i)   : region "i" identifier value in the region mask
(PID.TID 0000.0001) >#--for each output-stream:
(PID.TID 0000.0001) >#  stat_fName(n) : prefix of the output file name (max 80c long) for outp.stream n
(PID.TID 0000.0001) >#  stat_freq(n):< 0 : write snap-shot output every |stat_freq| seconds
(PID.TID 0000.0001) >#               > 0 : write time-average output every stat_freq seconds
(PID.TID 0000.0001) >#  stat_phase(n)    : write at time = stat_phase + multiple of |stat_freq|
(PID.TID 0000.0001) >#  stat_region(:,n) : list of "regions" (default: 1 region only=global)
(PID.TID 0000.0001) >#  stat_fields(:,n) : list of selected diagnostics fields (8.c) in outp.stream n
(PID.TID 0000.0001) >#                (see "available_diagnostics.log" file for the full list of diags)
(PID.TID 0000.0001) >#--------------------
(PID.TID 0000.0001) > &DIAG_STATIS_PARMS
(PID.TID 0000.0001) >#- an example just to check the agreement with MONITOR output:
(PID.TID 0000.0001) > stat_fields(1:5,1)  = 'ETAN    ','UVEL    ','VVEL    ','WVEL    ', 'THETA   ',
(PID.TID 0000.0001) >  stat_fName(1) = 'dynStDiag',
(PID.TID 0000.0001) >#  stat_freq(1)= -864000.,
(PID.TID 0000.0001) >   stat_freq(1)= -3600.,
(PID.TID 0000.0001) ># stat_phase(1) = 0.,
(PID.TID 0000.0001) > &
(PID.TID 0000.0001) >
(PID.TID 0000.0001) 
(PID.TID 0000.0001) S/R DIAGNOSTICS_READPARMS, read namelist "diagnostics_list": start
(PID.TID 0000.0001) S/R DIAGNOSTICS_READPARMS, read namelist "diagnostics_list": OK
(PID.TID 0000.0001) S/R DIAGNOSTICS_READPARMS, read namelist "DIAG_STATIS_PARMS": start
(PID.TID 0000.0001) S/R DIAGNOSTICS_READPARMS, read namelist "DIAG_STATIS_PARMS": OK
(PID.TID 0000.0001)  DIAGNOSTICS_READPARMS: global parameter summary:
(PID.TID 0000.0001)  dumpAtLast = /* always write time-ave diags at the end */
(PID.TID 0000.0001)                   F
(PID.TID 0000.0001)     ;
(PID.TID 0000.0001)  diag_mnc =   /* write NetCDF output files */
(PID.TID 0000.0001)                   F
(PID.TID 0000.0001)     ;
(PID.TID 0000.0001)  useMissingValue = /* put MissingValue where mask = 0 */
(PID.TID 0000.0001)                   F
(PID.TID 0000.0001)     ;
(PID.TID 0000.0001)  diagCG_maxIters = /* max number of iters in diag_cg2d */
(PID.TID 0000.0001)                     200
(PID.TID 0000.0001)     ;
(PID.TID 0000.0001)  diagCG_resTarget = /* residual target for diag_cg2d */
(PID.TID 0000.0001)                 1.000000000000000E-07
(PID.TID 0000.0001)     ;
(PID.TID 0000.0001)  diagCG_pcOffDFac = /* preconditioner off-diagonal factor */
(PID.TID 0000.0001)                 9.611687812379854E-01
(PID.TID 0000.0001)     ;
(PID.TID 0000.0001) -----------------------------------------------------
(PID.TID 0000.0001)  DIAGNOSTICS_READPARMS: active diagnostics summary:
(PID.TID 0000.0001) -----------------------------------------------------
(PID.TID 0000.0001) Creating Output Stream: surfDiag
(PID.TID 0000.0001) Output Frequency:      86400.000000 ; Phase:           0.000000
(PID.TID 0000.0001)  Averaging Freq.:      86400.000000 , Phase:           0.000000 , Cycle:   1
(PID.TID 0000.0001)  missing value: -9.990000000000E+02
(PID.TID 0000.0001)  Levels:       1.
(PID.TID 0000.0001)  Fields:    ETAN     ETANSQ   DETADT2
(PID.TID 0000.0001) Creating Output Stream: dynDiag
(PID.TID 0000.0001) Output Frequency:      86400.000000 ; Phase:           0.000000
(PID.TID 0000.0001)  Averaging Freq.:      86400.000000 , Phase:           0.000000 , Cycle:   1
(PID.TID 0000.0001)  missing value: -9.990000000000E+02
(PID.TID 0000.0001)  Levels:    will be set later
(PID.TID 0000.0001)  Fields:    UVEL     VVEL     WVEL     THETA    SHAP_dU
(PID.TID 0000.0001) Creating Output Stream: secmomDiag
(PID.TID 0000.0001) Output Frequency:      86400.000000 ; Phase:           0.000000
(PID.TID 0000.0001)  Averaging Freq.:      86400.000000 , Phase:           0.000000 , Cycle:   1
(PID.TID 0000.0001)  missing value: -9.990000000000E+02
(PID.TID 0000.0001)  Levels:    will be set later
(PID.TID 0000.0001)  Fields:    UVELSQ   VVELSQ   WVELSQ   THETASQ  UTHMASS  VTHMASS  WVELTH   UV_VEL_C
(PID.TID 0000.0001) -----------------------------------------------------
(PID.TID 0000.0001)  DIAGNOSTICS_READPARMS: statistics diags. summary:
(PID.TID 0000.0001) Creating Stats. Output Stream: dynStDiag
(PID.TID 0000.0001) Output Frequency:      -3600.000000 ; Phase:        1800.000000
(PID.TID 0000.0001)  Regions:   0
(PID.TID 0000.0001)  Fields:    ETAN     UVEL     VVEL     WVEL     THETA
(PID.TID 0000.0001) -----------------------------------------------------
(PID.TID 0000.0001) 
(PID.TID 0000.0001) SET_PARMS: done
(PID.TID 0000.0001) Enter INI_VERTICAL_GRID: setInterFDr=    T ; setCenterDr=    F
(PID.TID 0000.0001) tile:   1 ; Read from file grid_cs32.face001.bin
(PID.TID 0000.0001)   => xC yC dxF dyF rA xG yG dxV dyU rAz dxC dyC rAw rAs dxG dyG AngleCS AngleSN
(PID.TID 0000.0001) tile:   2 ; Read from file grid_cs32.face002.bin
(PID.TID 0000.0001)   => xC yC dxF dyF rA xG yG dxV dyU rAz dxC dyC rAw rAs dxG dyG AngleCS AngleSN
(PID.TID 0000.0001) tile:   3 ; Read from file grid_cs32.face003.bin
(PID.TID 0000.0001)   => xC yC dxF dyF rA xG yG dxV dyU rAz dxC dyC rAw rAs dxG dyG AngleCS AngleSN
(PID.TID 0000.0001) tile:   4 ; Read from file grid_cs32.face004.bin
(PID.TID 0000.0001)   => xC yC dxF dyF rA xG yG dxV dyU rAz dxC dyC rAw rAs dxG dyG AngleCS AngleSN
(PID.TID 0000.0001) tile:   5 ; Read from file grid_cs32.face005.bin
(PID.TID 0000.0001)   => xC yC dxF dyF rA xG yG dxV dyU rAz dxC dyC rAw rAs dxG dyG AngleCS AngleSN
(PID.TID 0000.0001) tile:   6 ; Read from file grid_cs32.face006.bin
(PID.TID 0000.0001)   => xC yC dxF dyF rA xG yG dxV dyU rAz dxC dyC rAw rAs dxG dyG AngleCS AngleSN
(PID.TID 0000.0001) %MON XC_max                       =   1.7854351589505E+02
(PID.TID 0000.0001) %MON XC_min                       =  -1.7854351589505E+02
(PID.TID 0000.0001) %MON XC_mean                      =  -4.6999441375798E-15
(PID.TID 0000.0001) %MON XC_sd                        =   1.0355545336287E+02
(PID.TID 0000.0001) %MON XG_max                       =   1.8000000000000E+02
(PID.TID 0000.0001) %MON XG_min                       =  -1.7708797161002E+02
(PID.TID 0000.0001) %MON XG_mean                      =   1.8603515625000E+00
(PID.TID 0000.0001) %MON XG_sd                        =   1.0357130300504E+02
(PID.TID 0000.0001) %MON DXC_max                      =   3.2375185836900E+05
(PID.TID 0000.0001) %MON DXC_min                      =   1.1142031410131E+05
(PID.TID 0000.0001) %MON DXC_mean                     =   2.8605689051214E+05
(PID.TID 0000.0001) %MON DXC_sd                       =   3.4042087138252E+04
(PID.TID 0000.0001) %MON DXF_max                      =   3.2369947500827E+05
(PID.TID 0000.0001) %MON DXF_min                      =   1.2020820513318E+05
(PID.TID 0000.0001) %MON DXF_mean                     =   2.8605437324820E+05
(PID.TID 0000.0001) %MON DXF_sd                       =   3.4050524252539E+04
(PID.TID 0000.0001) %MON DXG_max                      =   3.2375195872773E+05
(PID.TID 0000.0001) %MON DXG_min                      =   1.0098378008791E+05
(PID.TID 0000.0001) %MON DXG_mean                     =   2.8603818508931E+05
(PID.TID 0000.0001) %MON DXG_sd                       =   3.4140406908005E+04
(PID.TID 0000.0001) %MON DXV_max                      =   3.2380418162750E+05
(PID.TID 0000.0001) %MON DXV_min                      =   8.0152299824136E+04
(PID.TID 0000.0001) %MON DXV_mean                     =   2.8603970633619E+05
(PID.TID 0000.0001) %MON DXV_sd                       =   3.4145142117723E+04
(PID.TID 0000.0001) %MON YC_max                       =   8.7940663871962E+01
(PID.TID 0000.0001) %MON YC_min                       =  -8.7940663871962E+01
(PID.TID 0000.0001) %MON YC_mean                      =   0.0000000000000E+00
(PID.TID 0000.0001) %MON YC_sd                        =   3.8676242969072E+01
(PID.TID 0000.0001) %MON YG_max                       =   9.0000000000000E+01
(PID.TID 0000.0001) %MON YG_min                       =  -9.0000000000000E+01
(PID.TID 0000.0001) %MON YG_mean                      =  -1.1842378929335E-15
(PID.TID 0000.0001) %MON YG_sd                        =   3.8676895860710E+01
(PID.TID 0000.0001) %MON DYC_max                      =   3.2375185836900E+05
(PID.TID 0000.0001) %MON DYC_min                      =   1.1142031410131E+05
(PID.TID 0000.0001) %MON DYC_mean                     =   2.8605689051214E+05
(PID.TID 0000.0001) %MON DYC_sd                       =   3.4042087138252E+04
(PID.TID 0000.0001) %MON DYF_max                      =   3.2369947500827E+05
(PID.TID 0000.0001) %MON DYF_min                      =   1.2020820513318E+05
(PID.TID 0000.0001) %MON DYF_mean                     =   2.8605437324820E+05
(PID.TID 0000.0001) %MON DYF_sd                       =   3.4050524252539E+04
(PID.TID 0000.0001) %MON DYG_max                      =   3.2375195872773E+05
(PID.TID 0000.0001) %MON DYG_min                      =   1.0098378008791E+05
(PID.TID 0000.0001) %MON DYG_mean                     =   2.8603818508931E+05
(PID.TID 0000.0001) %MON DYG_sd                       =   3.4140406908005E+04
(PID.TID 0000.0001) %MON DYU_max                      =   3.2380418162750E+05
(PID.TID 0000.0001) %MON DYU_min                      =   8.0152299824136E+04
(PID.TID 0000.0001) %MON DYU_mean                     =   2.8603970633619E+05
(PID.TID 0000.0001) %MON DYU_sd                       =   3.4145142117723E+04
(PID.TID 0000.0001) %MON RA_max                       =   1.0479260248419E+11
(PID.TID 0000.0001) %MON RA_min                       =   1.4019007022556E+10
(PID.TID 0000.0001) %MON RA_mean                      =   8.2992246709265E+10
(PID.TID 0000.0001) %MON RA_sd                        =   1.7509089299457E+10
(PID.TID 0000.0001) %MON RAW_max                      =   1.0480965274559E+11
(PID.TID 0000.0001) %MON RAW_min                      =   1.2166903467143E+10
(PID.TID 0000.0001) %MON RAW_mean                     =   8.2992246709235E+10
(PID.TID 0000.0001) %MON RAW_sd                       =   1.7481917919656E+10
(PID.TID 0000.0001) %MON RAS_max                      =   1.0480965274559E+11
(PID.TID 0000.0001) %MON RAS_min                      =   1.2166903467143E+10
(PID.TID 0000.0001) %MON RAS_mean                     =   8.2992246709235E+10
(PID.TID 0000.0001) %MON RAS_sd                       =   1.7481917919656E+10
(PID.TID 0000.0001) %MON RAZ_max                      =   1.0484349334619E+11
(PID.TID 0000.0001) %MON RAZ_min                      =   8.8317900612505E+09
(PID.TID 0000.0001) %MON RAZ_mean                     =   8.2992246709235E+10
(PID.TID 0000.0001) %MON RAZ_sd                       =   1.7482297311044E+10
(PID.TID 0000.0001) %MON AngleCS_max                  =   9.9999994756719E-01
(PID.TID 0000.0001) %MON AngleCS_min                  =  -9.9968286884824E-01
(PID.TID 0000.0001) %MON AngleCS_mean                 =   3.3078922539000E-01
(PID.TID 0000.0001) %MON AngleCS_sd                   =   6.2496278958502E-01
(PID.TID 0000.0001) %MON AngleSN_max                  =   9.9968286884824E-01
(PID.TID 0000.0001) %MON AngleSN_min                  =  -9.9999994756719E-01
(PID.TID 0000.0001) %MON AngleSN_mean                 =  -3.3078922539000E-01
(PID.TID 0000.0001) %MON AngleSN_sd                   =   6.2496278958502E-01
(PID.TID 0000.0001) 
(PID.TID 0000.0001) SET_REF_STATE: PhiRef/g [m] at level Center (integer)
(PID.TID 0000.0001)                      and at level Interface (half-int.) :
(PID.TID 0000.0001)  K=  0.5  ;  r=       100000.0  ;  phiRef/g=        0.000
(PID.TID 0000.0001)  K=  1.0  ;  r=        97500.0  ;  phiRef/g=      217.756
(PID.TID 0000.0001)  K=  1.5  ;  r=        95000.0  ;  phiRef/g=      441.641
(PID.TID 0000.0001)  K=  2.0  ;  r=        92500.0  ;  phiRef/g=      665.527
(PID.TID 0000.0001)  K=  2.5  ;  r=        90000.0  ;  phiRef/g=      898.232
(PID.TID 0000.0001)  K=  3.0  ;  r=        87500.0  ;  phiRef/g=     1130.936
(PID.TID 0000.0001)  K=  3.5  ;  r=        85000.0  ;  phiRef/g=     1373.343
(PID.TID 0000.0001)  K=  4.0  ;  r=        82500.0  ;  phiRef/g=     1615.750
(PID.TID 0000.0001)  K=  4.5  ;  r=        80000.0  ;  phiRef/g=     1868.890
(PID.TID 0000.0001)  K=  5.0  ;  r=        77500.0  ;  phiRef/g=     2122.030
(PID.TID 0000.0001)  K=  5.5  ;  r=        75000.0  ;  phiRef/g=     2387.120
(PID.TID 0000.0001)  K=  6.0  ;  r=        72500.0  ;  phiRef/g=     2652.210
(PID.TID 0000.0001)  K=  6.5  ;  r=        70000.0  ;  phiRef/g=     2930.701
(PID.TID 0000.0001)  K=  7.0  ;  r=        67500.0  ;  phiRef/g=     3209.191
(PID.TID 0000.0001)  K=  7.5  ;  r=        65000.0  ;  phiRef/g=     3502.833
(PID.TID 0000.0001)  K=  8.0  ;  r=        62500.0  ;  phiRef/g=     3796.475
(PID.TID 0000.0001)  K=  8.5  ;  r=        60000.0  ;  phiRef/g=     4107.410
(PID.TID 0000.0001)  K=  9.0  ;  r=        57500.0  ;  phiRef/g=     4418.346
(PID.TID 0000.0001)  K=  9.5  ;  r=        55000.0  ;  phiRef/g=     4749.242
(PID.TID 0000.0001)  K= 10.0  ;  r=        52500.0  ;  phiRef/g=     5080.138
(PID.TID 0000.0001)  K= 10.5  ;  r=        50000.0  ;  phiRef/g=     5434.377
(PID.TID 0000.0001)  K= 11.0  ;  r=        47500.0  ;  phiRef/g=     5788.616
(PID.TID 0000.0001)  K= 11.5  ;  r=        45000.0  ;  phiRef/g=     6170.588
(PID.TID 0000.0001)  K= 12.0  ;  r=        42500.0  ;  phiRef/g=     6552.561
(PID.TID 0000.0001)  K= 12.5  ;  r=        40000.0  ;  phiRef/g=     6968.129
(PID.TID 0000.0001)  K= 13.0  ;  r=        37500.0  ;  phiRef/g=     7383.698
(PID.TID 0000.0001)  K= 13.5  ;  r=        35000.0  ;  phiRef/g=     7840.967
(PID.TID 0000.0001)  K= 14.0  ;  r=        32500.0  ;  phiRef/g=     8298.236
(PID.TID 0000.0001)  K= 14.5  ;  r=        30000.0  ;  phiRef/g=     8808.923
(PID.TID 0000.0001)  K= 15.0  ;  r=        27500.0  ;  phiRef/g=     9319.611
(PID.TID 0000.0001)  K= 15.5  ;  r=        25000.0  ;  phiRef/g=     9901.695
(PID.TID 0000.0001)  K= 16.0  ;  r=        22500.0  ;  phiRef/g=    10483.779
(PID.TID 0000.0001)  K= 16.5  ;  r=        20000.0  ;  phiRef/g=    11167.236
(PID.TID 0000.0001)  K= 17.0  ;  r=        17500.0  ;  phiRef/g=    11850.692
(PID.TID 0000.0001)  K= 17.5  ;  r=        15000.0  ;  phiRef/g=    12692.183
(PID.TID 0000.0001)  K= 18.0  ;  r=        12500.0  ;  phiRef/g=    13533.673
(PID.TID 0000.0001)  K= 18.5  ;  r=        10000.0  ;  phiRef/g=    14666.133
(PID.TID 0000.0001)  K= 19.0  ;  r=         7500.0  ;  phiRef/g=    15798.592
(PID.TID 0000.0001)  K= 19.5  ;  r=         5000.0  ;  phiRef/g=    17740.093
(PID.TID 0000.0001)  K= 20.0  ;  r=         2500.0  ;  phiRef/g=    19681.595
(PID.TID 0000.0001)  K= 20.5  ;  r=            0.0  ;  phiRef/g=    30212.110
(PID.TID 0000.0001) // =======================================================
(PID.TID 0000.0001) // Field Model R_low (ini_masks_etc)
(PID.TID 0000.0001) // CMIN =          1.000000000000000E+32
(PID.TID 0000.0001) // CMAX =         -1.000000000000000E+32
(PID.TID 0000.0001) // CINT =          0.000000000000000E+00
(PID.TID 0000.0001) // SYMBOLS (CMIN->CMAX): -abcdefghijklmnopqrstuvwxyz+
(PID.TID 0000.0001) //                  0.0: .
(PID.TID 0000.0001) // RANGE I (Lo:Hi:Step):(    -1:   194:     1)
(PID.TID 0000.0001) // RANGE J (Lo:Hi:Step):(    34:    -1:    -1)
(PID.TID 0000.0001) // RANGE K (Lo:Hi:Step):(   1:   1:   1)
(PID.TID 0000.0001) // =======================================================
(PID.TID 0000.0001) // =======================================================
(PID.TID 0000.0001) // END OF FIELD                                          =
(PID.TID 0000.0001) // =======================================================
(PID.TID 0000.0001) 
(PID.TID 0000.0001) // =======================================================
(PID.TID 0000.0001) // Field Model Ro_surf (ini_masks_etc)
(PID.TID 0000.0001) // CMIN =          1.000000000000000E+05
(PID.TID 0000.0001) // CMAX =          1.000000000000000E+05
(PID.TID 0000.0001) // CINT =          0.000000000000000E+00
(PID.TID 0000.0001) // SYMBOLS (CMIN->CMAX): -abcdefghijklmnopqrstuvwxyz+
(PID.TID 0000.0001) //                  0.0: .
(PID.TID 0000.0001) // RANGE I (Lo:Hi:Step):(    -1:   194:     1)
(PID.TID 0000.0001) // RANGE J (Lo:Hi:Step):(    34:    -1:    -1)
(PID.TID 0000.0001) // RANGE K (Lo:Hi:Step):(   1:   1:   1)
(PID.TID 0000.0001) // =======================================================
(PID.TID 0000.0001) // =======================================================
(PID.TID 0000.0001) // END OF FIELD                                          =
(PID.TID 0000.0001) // =======================================================
(PID.TID 0000.0001) 
(PID.TID 0000.0001) // =======================================================
(PID.TID 0000.0001) // Field hFacC at iteration          0
(PID.TID 0000.0001) // CMIN =          1.000000000000000E+00
(PID.TID 0000.0001) // CMAX =          1.000000000000000E+00
(PID.TID 0000.0001) // CINT =          0.000000000000000E+00
(PID.TID 0000.0001) // SYMBOLS (CMIN->CMAX): -abcdefghijklmnopqrstuvwxyz+
(PID.TID 0000.0001) //                  0.0: .
(PID.TID 0000.0001) // RANGE I (Lo:Hi:Step):(    -1:   194:     1)
(PID.TID 0000.0001) // RANGE J (Lo:Hi:Step):(    34:    -1:    -1)
(PID.TID 0000.0001) // RANGE K (Lo:Hi:Step):(   1:   1:   1)
(PID.TID 0000.0001) // =======================================================
(PID.TID 0000.0001) // =======================================================
(PID.TID 0000.0001) // END OF FIELD                                          =
(PID.TID 0000.0001) // =======================================================
(PID.TID 0000.0001) 
(PID.TID 0000.0001) // =======================================================
(PID.TID 0000.0001) // Field hFacW at iteration          0
(PID.TID 0000.0001) // CMIN =          1.000000000000000E+00
(PID.TID 0000.0001) // CMAX =          1.000000000000000E+00
(PID.TID 0000.0001) // CINT =          0.000000000000000E+00
(PID.TID 0000.0001) // SYMBOLS (CMIN->CMAX): -abcdefghijklmnopqrstuvwxyz+
(PID.TID 0000.0001) //                  0.0: .
(PID.TID 0000.0001) // RANGE I (Lo:Hi:Step):(    -1:   194:     1)
(PID.TID 0000.0001) // RANGE J (Lo:Hi:Step):(    34:    -1:    -1)
(PID.TID 0000.0001) // RANGE K (Lo:Hi:Step):(   1:   1:   1)
(PID.TID 0000.0001) // =======================================================
(PID.TID 0000.0001) // =======================================================
(PID.TID 0000.0001) // END OF FIELD                                          =
(PID.TID 0000.0001) // =======================================================
(PID.TID 0000.0001) 
(PID.TID 0000.0001) // =======================================================
(PID.TID 0000.0001) // Field hFacS at iteration          0
(PID.TID 0000.0001) // CMIN =          1.000000000000000E+00
(PID.TID 0000.0001) // CMAX =          1.000000000000000E+00
(PID.TID 0000.0001) // CINT =          0.000000000000000E+00
(PID.TID 0000.0001) // SYMBOLS (CMIN->CMAX): -abcdefghijklmnopqrstuvwxyz+
(PID.TID 0000.0001) //                  0.0: .
(PID.TID 0000.0001) // RANGE I (Lo:Hi:Step):(    -1:   194:     1)
(PID.TID 0000.0001) // RANGE J (Lo:Hi:Step):(    34:    -1:    -1)
(PID.TID 0000.0001) // RANGE K (Lo:Hi:Step):(   1:   1:   1)
(PID.TID 0000.0001) // =======================================================
(PID.TID 0000.0001) // =======================================================
(PID.TID 0000.0001) // END OF FIELD                                          =
(PID.TID 0000.0001) // =======================================================
(PID.TID 0000.0001) 
(PID.TID 0000.0001) GAD_INIT_FIXED: GAD_OlMinSize=  1  0  1
(PID.TID 0000.0001) 
(PID.TID 0000.0001) // ===================================
(PID.TID 0000.0001) // GAD parameters :
(PID.TID 0000.0001) // ===================================
(PID.TID 0000.0001) tempAdvScheme =   /* Temp. Horiz.Advection scheme selector */
(PID.TID 0000.0001)                       2
(PID.TID 0000.0001)     ;
(PID.TID 0000.0001) tempVertAdvScheme =   /* Temp. Vert. Advection scheme selector */
(PID.TID 0000.0001)                       2
(PID.TID 0000.0001)     ;
(PID.TID 0000.0001) tempMultiDimAdvec =   /* use Muti-Dim Advec method for Temp */
(PID.TID 0000.0001)                   F
(PID.TID 0000.0001)     ;
(PID.TID 0000.0001) tempSOM_Advection = /* use 2nd Order Moment Advection for Temp */
(PID.TID 0000.0001)                   F
(PID.TID 0000.0001)     ;
(PID.TID 0000.0001) AdamsBashforthGt = /* apply Adams-Bashforth extrapolation on Gt */
(PID.TID 0000.0001)                   T
(PID.TID 0000.0001)     ;
(PID.TID 0000.0001) AdamsBashforth_T = /* apply Adams-Bashforth extrapolation on Temp */
(PID.TID 0000.0001)                   F
(PID.TID 0000.0001)     ;
(PID.TID 0000.0001) saltAdvScheme =   /* Salt. Horiz.advection scheme selector */
(PID.TID 0000.0001)                       2
(PID.TID 0000.0001)     ;
(PID.TID 0000.0001) saltVertAdvScheme =   /* Salt. Vert. Advection scheme selector */
(PID.TID 0000.0001)                       2
(PID.TID 0000.0001)     ;
(PID.TID 0000.0001) saltMultiDimAdvec =   /* use Muti-Dim Advec method for Salt */
(PID.TID 0000.0001)                   F
(PID.TID 0000.0001)     ;
(PID.TID 0000.0001) saltSOM_Advection = /* use 2nd Order Moment Advection for Salt */
(PID.TID 0000.0001)                   F
(PID.TID 0000.0001)     ;
(PID.TID 0000.0001) AdamsBashforthGs = /* apply Adams-Bashforth extrapolation on Gs */
(PID.TID 0000.0001)                   F
(PID.TID 0000.0001)     ;
(PID.TID 0000.0001) AdamsBashforth_S = /* apply Adams-Bashforth extrapolation on Salt */
(PID.TID 0000.0001)                   F
(PID.TID 0000.0001)     ;
(PID.TID 0000.0001) // ===================================
(PID.TID 0000.0001) ------------------------------------------------------------
(PID.TID 0000.0001) DIAGNOSTICS_SET_LEVELS: done
(PID.TID 0000.0001)  Total Nb of available Diagnostics: ndiagt=   196
(PID.TID 0000.0001)  write list of available Diagnostics to file: available_diagnostics.log
(PID.TID 0000.0001) SETDIAG: Allocate  1 x  1 Levels for Diagnostic #    23 ETAN
(PID.TID 0000.0001) SETDIAG: Allocate  1 x  1 Levels for Diagnostic #    24 ETANSQ
(PID.TID 0000.0001) SETDIAG: Allocate  1 x  1 Levels for Diagnostic #    25 DETADT2
(PID.TID 0000.0001) SETDIAG: Allocate 20 x  1 Levels for Diagnostic #    29 UVEL
(PID.TID 0000.0001) SETDIAG: Allocate 20 x  1 Levels for Diagnostic #    30 VVEL
(PID.TID 0000.0001) SETDIAG: Allocate 20 x  1 Levels for Diagnostic #    31 WVEL
(PID.TID 0000.0001) SETDIAG: Allocate 20 x  1 Levels for Diagnostic #    26 THETA
(PID.TID 0000.0001) SETDIAG: Allocate 20 x  1 Levels for Diagnostic #   194 SHAP_dU
(PID.TID 0000.0001) SETDIAG: Allocate 20 x  1 Levels for Diagnostic #    34 UVELSQ
(PID.TID 0000.0001) SETDIAG: Allocate 20 x  1 Levels for Diagnostic #    35 VVELSQ
(PID.TID 0000.0001) SETDIAG: Allocate 20 x  1 Levels for Diagnostic #    36 WVELSQ
(PID.TID 0000.0001) SETDIAG: Allocate 20 x  1 Levels for Diagnostic #    32 THETASQ
(PID.TID 0000.0001) SETDIAG: Allocate 20 x  1 Levels for Diagnostic #    48 UTHMASS
(PID.TID 0000.0001) SETDIAG: Allocate 20 x  1 Levels for Diagnostic #    49 VTHMASS
(PID.TID 0000.0001) SETDIAG: Allocate 20 x  1 Levels for Diagnostic #    56 WVELTH
(PID.TID 0000.0001) SETDIAG: Allocate 20 x  1 Levels for Diagnostic #    39 UV_VEL_C
(PID.TID 0000.0001)   space allocated for all diagnostics:     263 levels
(PID.TID 0000.0001)   set mate pointer for diag #    29  UVEL     , Parms: UUR     MR , mate:    30
(PID.TID 0000.0001)   set mate pointer for diag #    30  VVEL     , Parms: VVR     MR , mate:    29
(PID.TID 0000.0001)   set mate pointer for diag #    34  UVELSQ   , Parms: UURP    MR , mate:    35
(PID.TID 0000.0001)   set mate pointer for diag #    35  VVELSQ   , Parms: VVRP    MR , mate:    34
(PID.TID 0000.0001)   set mate pointer for diag #    48  UTHMASS  , Parms: UUr     MR , mate:    49
(PID.TID 0000.0001)   set mate pointer for diag #    49  VTHMASS  , Parms: VVr     MR , mate:    48
(PID.TID 0000.0001)   set mate pointer for diag #    39  UV_VEL_C , Parms: UMR     MR , mate:    39
(PID.TID 0000.0001) DIAGNOSTICS_SET_POINTERS: Set levels for Outp.Stream: dynDiag
(PID.TID 0000.0001)  Levels:       1.   2.   3.   4.   5.   6.   7.   8.   9.  10.  11.  12.  13.  14.  15.  16.  17.  18.  19.  20.
(PID.TID 0000.0001) DIAGNOSTICS_SET_POINTERS: Set levels for Outp.Stream: secmomDiag
(PID.TID 0000.0001)  Levels:       1.   2.   3.   4.   5.   6.   7.   8.   9.  10.  11.  12.  13.  14.  15.  16.  17.  18.  19.  20.
(PID.TID 0000.0001) DIAGNOSTICS_SET_POINTERS: done
(PID.TID 0000.0001) ------------------------------------------------------------
(PID.TID 0000.0001) DIAGSTATS_SET_REGIONS: define no region
(PID.TID 0000.0001) ------------------------------------------------------------
(PID.TID 0000.0001) SETDIAG: Allocate  1 Levels for Stats-Diag #    23 ETAN
(PID.TID 0000.0001) SETDIAG: Allocate 20 Levels for Stats-Diag #    29 UVEL
(PID.TID 0000.0001) SETDIAG: Allocate 20 Levels for Stats-Diag #    30 VVEL
(PID.TID 0000.0001) SETDIAG: Allocate 20 Levels for Stats-Diag #    31 WVEL
(PID.TID 0000.0001) SETDIAG: Allocate 20 Levels for Stats-Diag #    26 THETA
(PID.TID 0000.0001)   space allocated for all stats-diags:      81 levels
(PID.TID 0000.0001) DIAGSTATS_SET_POINTERS: done
(PID.TID 0000.0001) ------------------------------------------------------------
(PID.TID 0000.0001) DIAGSTATS_INI_IO: open file: dynStDiag.0000276480.txt , unit=     9
(PID.TID 0000.0001) INI_GLOBAL_DOMAIN: Found  24 CS-corner Pts in the domain
(PID.TID 0000.0001) %MON fCori_max                    =   1.4535016908525E-04
(PID.TID 0000.0001) %MON fCori_min                    =  -1.4535016908525E-04
(PID.TID 0000.0001) %MON fCori_mean                   =   0.0000000000000E+00
(PID.TID 0000.0001) %MON fCori_sd                     =   8.3972192788621E-05
(PID.TID 0000.0001) %MON fCoriG_max                   =   1.4544410433286E-04
(PID.TID 0000.0001) %MON fCoriG_min                   =  -1.4544410433286E-04
(PID.TID 0000.0001) %MON fCoriG_mean                  =   0.0000000000000E+00
(PID.TID 0000.0001) %MON fCoriG_sd                    =   8.3972192788621E-05
(PID.TID 0000.0001) %MON fCoriCos_max                 =   1.4540341538469E-04
(PID.TID 0000.0001) %MON fCoriCos_min                 =   5.2264550201501E-06
(PID.TID 0000.0001) %MON fCoriCos_mean                =   1.1482595466044E-04
(PID.TID 0000.0001) %MON fCoriCos_sd                  =   3.0292878037194E-05
(PID.TID 0000.0001) INI_CG2D: CG2D normalisation factor =  9.9119603843467495E-06
(PID.TID 0000.0001) INI_CG2D: cg2dTolerance = 1.123144856357769E-10 (Area=5.0990436378E+14)
(PID.TID 0000.0001) 
(PID.TID 0000.0001) // =======================================================
(PID.TID 0000.0001) // Model configuration
(PID.TID 0000.0001) // =======================================================
(PID.TID 0000.0001) //
(PID.TID 0000.0001) // "Physical" paramters ( PARM01 in namelist )
(PID.TID 0000.0001) //
(PID.TID 0000.0001) buoyancyRelation = /* Type of relation to get Buoyancy */
(PID.TID 0000.0001)               'ATMOSPHERIC'
(PID.TID 0000.0001)     ;
(PID.TID 0000.0001) fluidIsAir   =  /* fluid major constituent is Air */
(PID.TID 0000.0001)                   T
(PID.TID 0000.0001)     ;
(PID.TID 0000.0001) fluidIsWater =  /* fluid major constituent is Water */
(PID.TID 0000.0001)                   F
(PID.TID 0000.0001)     ;
(PID.TID 0000.0001) usingPCoords =  /* use p (or p*) vertical coordinate */
(PID.TID 0000.0001)                   T
(PID.TID 0000.0001)     ;
(PID.TID 0000.0001) usingZCoords =  /* use z (or z*) vertical coordinate */
(PID.TID 0000.0001)                   F
(PID.TID 0000.0001)     ;
(PID.TID 0000.0001) tRef =   /* Reference temperature profile ( oC or K ) */
(PID.TID 0000.0001)                 2.952000000000000E+02,      /* K =  1 */
(PID.TID 0000.0001)                 2.955000000000000E+02,      /* K =  2 */
(PID.TID 0000.0001)                 2.959000000000000E+02,      /* K =  3 */
(PID.TID 0000.0001)                 2.963000000000000E+02,      /* K =  4 */
(PID.TID 0000.0001)                 2.967000000000000E+02,      /* K =  5 */
(PID.TID 0000.0001)                 2.971000000000000E+02,      /* K =  6 */
(PID.TID 0000.0001)                 2.976000000000000E+02,      /* K =  7 */
(PID.TID 0000.0001)                 2.981000000000000E+02,      /* K =  8 */
(PID.TID 0000.0001)                 2.987000000000000E+02,      /* K =  9 */
(PID.TID 0000.0001)                 2.993000000000000E+02,      /* K = 10 */
(PID.TID 0000.0001)                 3.000000000000000E+02,      /* K = 11 */
(PID.TID 0000.0001)                 3.007000000000000E+02,      /* K = 12 */
(PID.TID 0000.0001)                 3.019000000000000E+02,      /* K = 13 */
(PID.TID 0000.0001)                 3.041000000000000E+02,      /* K = 14 */
(PID.TID 0000.0001)                 3.080000000000000E+02,      /* K = 15 */
(PID.TID 0000.0001)                 3.151000000000000E+02,      /* K = 16 */
(PID.TID 0000.0001)                 3.295000000000000E+02,      /* K = 17 */
(PID.TID 0000.0001)                 3.623000000000000E+02,      /* K = 18 */
(PID.TID 0000.0001)                 4.192000000000000E+02,      /* K = 19 */
(PID.TID 0000.0001)                 5.738000000000000E+02       /* K = 20 */
(PID.TID 0000.0001)     ;
(PID.TID 0000.0001) sRef =   /* Reference salinity profile ( psu ) */
(PID.TID 0000.0001)    20 @  0.000000000000000E+00              /* K =  1: 20 */
(PID.TID 0000.0001)     ;
(PID.TID 0000.0001) useStrainTensionVisc= /* Use StrainTension Form of Viscous Operator */
(PID.TID 0000.0001)                   F
(PID.TID 0000.0001)     ;
(PID.TID 0000.0001) useVariableVisc = /* Use variable horizontal viscosity */
(PID.TID 0000.0001)                   F
(PID.TID 0000.0001)     ;
(PID.TID 0000.0001) useHarmonicVisc = /* Use harmonic horizontal viscosity */
(PID.TID 0000.0001)                   F
(PID.TID 0000.0001)     ;
(PID.TID 0000.0001) useBiharmonicVisc= /* Use biharmonic horiz.  viscosity */
(PID.TID 0000.0001)                   F
(PID.TID 0000.0001)     ;
(PID.TID 0000.0001) useSmag3D = /* Use isotropic 3-D Smagorinsky viscosity */
(PID.TID 0000.0001)                   F
(PID.TID 0000.0001)     ;
(PID.TID 0000.0001) viscAh  =   /* Lateral harmonic viscosity ( m^2/s ) */
(PID.TID 0000.0001)                 0.000000000000000E+00
(PID.TID 0000.0001)     ;
(PID.TID 0000.0001) viscA4  =   /* Lateral biharmonic viscosity ( m^4/s ) */
(PID.TID 0000.0001)                 0.000000000000000E+00
(PID.TID 0000.0001)     ;
(PID.TID 0000.0001) no_slip_sides =  /* Viscous BCs: No-slip sides */
(PID.TID 0000.0001)                   F
(PID.TID 0000.0001)     ;
(PID.TID 0000.0001) sideDragFactor = /* side-drag scaling factor (non-dim) */
(PID.TID 0000.0001)                 2.000000000000000E+00
(PID.TID 0000.0001)     ;
(PID.TID 0000.0001) viscArNr = /* vertical profile of vertical viscosity (Pa^2/s )*/
(PID.TID 0000.0001)    20 @  0.000000000000000E+00              /* K =  1: 20 */
(PID.TID 0000.0001)     ;
(PID.TID 0000.0001) no_slip_bottom =  /* Viscous BCs: No-slip bottom */
(PID.TID 0000.0001)                   F
(PID.TID 0000.0001)     ;
(PID.TID 0000.0001) bottomVisc_pCell = /* Partial-cell in bottom Visc. BC */
(PID.TID 0000.0001)                   F
(PID.TID 0000.0001)     ;
(PID.TID 0000.0001) bottomDragLinear = /* linear bottom-drag coefficient ( m/s ) */
(PID.TID 0000.0001)                 0.000000000000000E+00
(PID.TID 0000.0001)     ;
(PID.TID 0000.0001) bottomDragQuadratic = /* quadratic bottom-drag coefficient (-) */
(PID.TID 0000.0001)                 0.000000000000000E+00
(PID.TID 0000.0001)     ;
(PID.TID 0000.0001) selectBotDragQuadr = /* select quadratic bottom drag options */
(PID.TID 0000.0001)                      -1
(PID.TID 0000.0001)     ;
(PID.TID 0000.0001) diffKhT =   /* Laplacian diffusion of heat laterally ( m^2/s ) */
(PID.TID 0000.0001)                 0.000000000000000E+00
(PID.TID 0000.0001)     ;
(PID.TID 0000.0001) diffK4T =   /* Biharmonic diffusion of heat laterally ( m^4/s ) */
(PID.TID 0000.0001)                 0.000000000000000E+00
(PID.TID 0000.0001)     ;
(PID.TID 0000.0001) diffKhS =   /* Laplacian diffusion of salt laterally ( m^2/s ) */
(PID.TID 0000.0001)                 0.000000000000000E+00
(PID.TID 0000.0001)     ;
(PID.TID 0000.0001) diffK4S =   /* Biharmonic diffusion of salt laterally ( m^4/s ) */
(PID.TID 0000.0001)                 0.000000000000000E+00
(PID.TID 0000.0001)     ;
(PID.TID 0000.0001) diffKrNrT = /* vertical profile of vertical diffusion of Temp (Pa^2/s )*/
(PID.TID 0000.0001)    20 @  0.000000000000000E+00              /* K =  1: 20 */
(PID.TID 0000.0001)     ;
(PID.TID 0000.0001) diffKrNrS = /* vertical profile of vertical diffusion of Salt (Pa^2/s )*/
(PID.TID 0000.0001)    20 @  0.000000000000000E+00              /* K =  1: 20 */
(PID.TID 0000.0001)     ;
(PID.TID 0000.0001) diffKrBL79surf = /* Surface diffusion for Bryan and Lewis 79 ( m^2/s ) */
(PID.TID 0000.0001)                 0.000000000000000E+00
(PID.TID 0000.0001)     ;
(PID.TID 0000.0001) diffKrBL79deep = /* Deep diffusion for Bryan and Lewis 1979 ( m^2/s ) */
(PID.TID 0000.0001)                 0.000000000000000E+00
(PID.TID 0000.0001)     ;
(PID.TID 0000.0001) diffKrBL79scl = /* Depth scale for Bryan and Lewis 1979 ( m ) */
(PID.TID 0000.0001)                 2.000000000000000E+02
(PID.TID 0000.0001)     ;
(PID.TID 0000.0001) diffKrBL79Ho = /* Turning depth for Bryan and Lewis 1979 ( m ) */
(PID.TID 0000.0001)                -2.000000000000000E+03
(PID.TID 0000.0001)     ;
(PID.TID 0000.0001) ivdc_kappa = /* Implicit Vertical Diffusivity for Convection (Pa^2/s) */
(PID.TID 0000.0001)                 0.000000000000000E+00
(PID.TID 0000.0001)     ;
(PID.TID 0000.0001) hMixCriteria=  /* Criteria for mixed-layer diagnostic */
(PID.TID 0000.0001)                -8.000000000000000E-01
(PID.TID 0000.0001)     ;
(PID.TID 0000.0001) dRhoSmall =  /* Parameter for mixed-layer diagnostic */
(PID.TID 0000.0001)                 1.000000000000000E-06
(PID.TID 0000.0001)     ;
(PID.TID 0000.0001) hMixSmooth=  /* Smoothing parameter for mixed-layer diagnostic */
(PID.TID 0000.0001)                 0.000000000000000E+00
(PID.TID 0000.0001)     ;
(PID.TID 0000.0001) eosType =  /* Type of Equation of State */
(PID.TID 0000.0001)               'IDEALG'
(PID.TID 0000.0001)     ;
(PID.TID 0000.0001) surf_pRef = /* Surface reference pressure ( Pa ) */
(PID.TID 0000.0001)                 1.013250000000000E+05
(PID.TID 0000.0001)     ;
(PID.TID 0000.0001) celsius2K = /* 0 degree Celsius converted to Kelvin ( K ) */
(PID.TID 0000.0001)                 2.731500000000000E+02
(PID.TID 0000.0001)     ;
(PID.TID 0000.0001) atm_Rd =    /* gas constant for dry air ( J/kg/K ) */
(PID.TID 0000.0001)                 2.868571428571428E+02
(PID.TID 0000.0001)     ;
(PID.TID 0000.0001) atm_Cp =    /* specific heat (Cp) of dry air ( J/kg/K ) */
(PID.TID 0000.0001)                 1.004000000000000E+03
(PID.TID 0000.0001)     ;
(PID.TID 0000.0001) atm_kappa = /* kappa (=Rd/Cp ) of dry air */
(PID.TID 0000.0001)                 2.857142857142857E-01
(PID.TID 0000.0001)     ;
(PID.TID 0000.0001) atm_Rq =  /* water vap. specific vol. anomaly relative to dry air */
(PID.TID 0000.0001)                 0.000000000000000E+00
(PID.TID 0000.0001)     ;
(PID.TID 0000.0001) atm_Po =    /* standard reference pressure ( Pa ) */
(PID.TID 0000.0001)                 1.000000000000000E+05
(PID.TID 0000.0001)     ;
(PID.TID 0000.0001) thetaConst= /* constant reference for potential temperature ( K ) */
(PID.TID 0000.0001)                 2.952000000000000E+02
(PID.TID 0000.0001)     ;
(PID.TID 0000.0001) integr_GeoPot =  /* select how the geopotential is integrated */
(PID.TID 0000.0001)                       2
(PID.TID 0000.0001)     ;
(PID.TID 0000.0001) selectFindRoSurf=  /* select how Surf.Ref. pressure is defined */
(PID.TID 0000.0001)                       0
(PID.TID 0000.0001)     ;
(PID.TID 0000.0001) rhoConst  = /* Reference density (Boussinesq)  ( kg/m^3 ) */
(PID.TID 0000.0001)                 9.998000000000000E+02
(PID.TID 0000.0001)     ;
(PID.TID 0000.0001) rhoFacC = /* normalized Reference density @ cell-Center (-) */
(PID.TID 0000.0001)    20 @  1.000000000000000E+00              /* K =  1: 20 */
(PID.TID 0000.0001)     ;
(PID.TID 0000.0001) rhoFacF = /* normalized Reference density @ W-Interface (-) */
(PID.TID 0000.0001)    21 @  1.000000000000000E+00              /* K =  1: 21 */
(PID.TID 0000.0001)     ;
(PID.TID 0000.0001) rhoConstFresh = /* Fresh-water reference density ( kg/m^3 ) */
(PID.TID 0000.0001)                 9.998000000000000E+02
(PID.TID 0000.0001)     ;
(PID.TID 0000.0001) gravity =   /* Gravitational acceleration ( m/s^2 ) */
(PID.TID 0000.0001)                 9.810000000000000E+00
(PID.TID 0000.0001)     ;
(PID.TID 0000.0001) gBaro =   /* Barotropic gravity ( m/s^2 ) */
(PID.TID 0000.0001)                 9.810000000000000E+00
(PID.TID 0000.0001)     ;
(PID.TID 0000.0001) gravFacC = /* gravity factor (vs surf.) @ cell-Center (-) */
(PID.TID 0000.0001)    20 @  1.000000000000000E+00              /* K =  1: 20 */
(PID.TID 0000.0001)     ;
(PID.TID 0000.0001) gravFacF = /* gravity factor (vs surf.) @ W-Interface (-) */
(PID.TID 0000.0001)    21 @  1.000000000000000E+00              /* K =  1: 21 */
(PID.TID 0000.0001)     ;
(PID.TID 0000.0001) rotationPeriod =   /* Rotation Period ( s ) */
(PID.TID 0000.0001)                 8.640000000000000E+04
(PID.TID 0000.0001)     ;
(PID.TID 0000.0001) omega =   /* Angular velocity ( rad/s ) */
(PID.TID 0000.0001)                 7.272205216643040E-05
(PID.TID 0000.0001)     ;
(PID.TID 0000.0001) f0 =   /* Reference coriolis parameter ( 1/s ) */
(PID.TID 0000.0001)                 1.000000000000000E-04
(PID.TID 0000.0001)     ;
(PID.TID 0000.0001) beta =   /* Beta ( 1/(m.s) ) */
(PID.TID 0000.0001)                 9.999999999999999E-12
(PID.TID 0000.0001)     ;
(PID.TID 0000.0001) fPrime =   /* Second coriolis parameter ( 1/s ) */
(PID.TID 0000.0001)                 0.000000000000000E+00
(PID.TID 0000.0001)     ;
(PID.TID 0000.0001) rigidLid =   /* Rigid lid on/off flag */
(PID.TID 0000.0001)                   F
(PID.TID 0000.0001)     ;
(PID.TID 0000.0001) implicitFreeSurface =   /* Implicit free surface on/off flag */
(PID.TID 0000.0001)                   T
(PID.TID 0000.0001)     ;
(PID.TID 0000.0001) freeSurfFac =   /* Implicit free surface factor */
(PID.TID 0000.0001)                 1.000000000000000E+00
(PID.TID 0000.0001)     ;
(PID.TID 0000.0001) implicSurfPress =  /* Surface Pressure implicit factor (0-1)*/
(PID.TID 0000.0001)                 1.000000000000000E+00
(PID.TID 0000.0001)     ;
(PID.TID 0000.0001) implicDiv2DFlow =  /* Barot. Flow Div. implicit factor (0-1)*/
(PID.TID 0000.0001)                 1.000000000000000E+00
(PID.TID 0000.0001)     ;
(PID.TID 0000.0001) uniformLin_PhiSurf = /* use uniform Bo_surf on/off flag*/
(PID.TID 0000.0001)                   F
(PID.TID 0000.0001)     ;
(PID.TID 0000.0001) uniformFreeSurfLev = /* free-surface level-index is uniform */
(PID.TID 0000.0001)                   F
(PID.TID 0000.0001)     ;
(PID.TID 0000.0001) hFacMin =   /* minimum partial cell factor (hFac) */
(PID.TID 0000.0001)                 1.000000000000000E+00
(PID.TID 0000.0001)     ;
(PID.TID 0000.0001) hFacMinDr = /* minimum partial cell thickness (Pa) */
(PID.TID 0000.0001)                 0.000000000000000E+00
(PID.TID 0000.0001)     ;
(PID.TID 0000.0001) exactConserv =  /* Exact Volume Conservation on/off flag*/
(PID.TID 0000.0001)                   T
(PID.TID 0000.0001)     ;
(PID.TID 0000.0001) linFSConserveTr = /* Tracer correction for Lin Free Surface on/off flag*/
(PID.TID 0000.0001)                   F
(PID.TID 0000.0001)     ;
(PID.TID 0000.0001) nonlinFreeSurf = /* Non-linear Free Surf. options (-1,0,1,2,3)*/
(PID.TID 0000.0001)                       4
(PID.TID 0000.0001)      -1,0= Off ; 1,2,3= On, 2=+rescale gU,gV, 3=+update cg2d solv.
(PID.TID 0000.0001)     ;
(PID.TID 0000.0001) hFacInf =   /* lower threshold for hFac (nonlinFreeSurf only)*/
(PID.TID 0000.0001)                 2.000000000000000E-01
(PID.TID 0000.0001)     ;
(PID.TID 0000.0001) hFacSup =   /* upper threshold for hFac (nonlinFreeSurf only)*/
(PID.TID 0000.0001)                 2.000000000000000E+00
(PID.TID 0000.0001)     ;
(PID.TID 0000.0001) select_rStar = /* r* Vertical coord. options (=0 r coord.; >0 uses r*)*/
(PID.TID 0000.0001)                       2
(PID.TID 0000.0001)     ;
(PID.TID 0000.0001) useRealFreshWaterFlux = /* Real Fresh Water Flux on/off flag*/
(PID.TID 0000.0001)                   F
(PID.TID 0000.0001)     ;
(PID.TID 0000.0001) temp_EvPrRn = /* Temp. of Evap/Prec/R (UNSET=use local T)(oC)*/
(PID.TID 0000.0001)                 1.234567000000000E+05
(PID.TID 0000.0001)     ;
(PID.TID 0000.0001) salt_EvPrRn = /* Salin. of Evap/Prec/R (UNSET=use local S)(psu)*/
(PID.TID 0000.0001)                 0.000000000000000E+00
(PID.TID 0000.0001)     ;
(PID.TID 0000.0001) selectAddFluid = /* option for mass source/sink of fluid (=0: off) */
(PID.TID 0000.0001)                       0
(PID.TID 0000.0001)     ;
(PID.TID 0000.0001) temp_addMass = /* Temp. of addMass array (UNSET=use local T)(oC)*/
(PID.TID 0000.0001)                 1.234567000000000E+05
(PID.TID 0000.0001)     ;
(PID.TID 0000.0001) salt_addMass = /* Salin. of addMass array (UNSET=use local S)(psu)*/
(PID.TID 0000.0001)                 0.000000000000000E+00
(PID.TID 0000.0001)     ;
(PID.TID 0000.0001) convertFW2Salt = /* convert F.W. Flux to Salt Flux (-1=use local S)(psu)*/
(PID.TID 0000.0001)                 3.500000000000000E+01
(PID.TID 0000.0001)     ;
(PID.TID 0000.0001) use3Dsolver = /* use 3-D pressure solver on/off flag */
(PID.TID 0000.0001)                   F
(PID.TID 0000.0001)     ;
(PID.TID 0000.0001) nonHydrostatic =  /* Non-Hydrostatic on/off flag */
(PID.TID 0000.0001)                   F
(PID.TID 0000.0001)     ;
(PID.TID 0000.0001) nh_Am2 = /* Non-Hydrostatic terms scaling factor */
(PID.TID 0000.0001)                 1.000000000000000E+00
(PID.TID 0000.0001)     ;
(PID.TID 0000.0001) implicitNHPress = /* Non-Hyd Pressure implicit factor (0-1)*/
(PID.TID 0000.0001)                 1.000000000000000E+00
(PID.TID 0000.0001)     ;
(PID.TID 0000.0001) selectNHfreeSurf = /* Non-Hyd (free-)Surface option */
(PID.TID 0000.0001)                       0
(PID.TID 0000.0001)     ;
(PID.TID 0000.0001) quasiHydrostatic = /* Quasi-Hydrostatic on/off flag */
(PID.TID 0000.0001)                   F
(PID.TID 0000.0001)     ;
(PID.TID 0000.0001) calc_wVelocity = /* vertical velocity calculation on/off flag */
(PID.TID 0000.0001)                   T
(PID.TID 0000.0001)     ;
(PID.TID 0000.0001) momStepping =  /* Momentum equation on/off flag */
(PID.TID 0000.0001)                   T
(PID.TID 0000.0001)     ;
(PID.TID 0000.0001) vectorInvariantMomentum= /* Vector-Invariant Momentum on/off */
(PID.TID 0000.0001)                   T
(PID.TID 0000.0001)     ;
(PID.TID 0000.0001) momAdvection =  /* Momentum advection on/off flag */
(PID.TID 0000.0001)                   T
(PID.TID 0000.0001)     ;
(PID.TID 0000.0001) momViscosity =  /* Momentum viscosity on/off flag */
(PID.TID 0000.0001)                   F
(PID.TID 0000.0001)     ;
(PID.TID 0000.0001) momImplVertAdv= /* Momentum implicit vert. advection on/off*/
(PID.TID 0000.0001)                   F
(PID.TID 0000.0001)     ;
(PID.TID 0000.0001) implicitViscosity = /* Implicit viscosity on/off flag */
(PID.TID 0000.0001)                   F
(PID.TID 0000.0001)     ;
(PID.TID 0000.0001) selectImplicitDrag= /* Implicit bot Drag options (0,1,2)*/
(PID.TID 0000.0001)                       0
(PID.TID 0000.0001)     0= Expl. ; 1= Impl. on provis. Vel ; 2= Fully Impl (with surf.P)
(PID.TID 0000.0001)     ;
(PID.TID 0000.0001) metricTerms =  /* metric-Terms on/off flag */
(PID.TID 0000.0001)                   F
(PID.TID 0000.0001)     ;
(PID.TID 0000.0001) useNHMTerms = /* Non-Hydrostatic Metric-Terms on/off */
(PID.TID 0000.0001)                   F
(PID.TID 0000.0001)     ;
(PID.TID 0000.0001) selectCoriMap = /* Coriolis Map options (0,1,2,3)*/
(PID.TID 0000.0001)                       2
(PID.TID 0000.0001)     0= f-Plane ; 1= Beta-Plane ; 2= Spherical ; 3= read from file
(PID.TID 0000.0001)     ;
(PID.TID 0000.0001) use3dCoriolis = /* 3-D Coriolis on/off flag */
(PID.TID 0000.0001)                   F
(PID.TID 0000.0001)     ;
(PID.TID 0000.0001) useCoriolis =  /* Coriolis on/off flag */
(PID.TID 0000.0001)                   T
(PID.TID 0000.0001)     ;
(PID.TID 0000.0001) useCDscheme =  /* CD scheme on/off flag */
(PID.TID 0000.0001)                   F
(PID.TID 0000.0001)     ;
(PID.TID 0000.0001) selectCoriScheme= /* Scheme selector for Coriolis-Term */
(PID.TID 0000.0001)                       0
(PID.TID 0000.0001)    = 0 : original discretization (simple averaging, no hFac)
(PID.TID 0000.0001)    = 1 : Wet-point averaging (Jamar & Ozer 1986)
(PID.TID 0000.0001)    = 2 : hFac weighted average (Angular Mom. conserving)
(PID.TID 0000.0001)    = 3 : energy conserving scheme using hFac weighted average
(PID.TID 0000.0001)     ;
(PID.TID 0000.0001) useAbsVorticity= /* V.I Works with f+zeta in Coriolis */
(PID.TID 0000.0001)                   F
(PID.TID 0000.0001)     ;
(PID.TID 0000.0001) selectVortScheme= /* V.I Scheme selector for Vorticity-Term */
(PID.TID 0000.0001)                       1
(PID.TID 0000.0001)    = 0 : enstrophy (Shallow-Water Eq.) conserving scheme by Sadourny, JAS 75
(PID.TID 0000.0001)    = 1 : same as 0 with modified hFac
(PID.TID 0000.0001)    = 2 : energy conserving scheme (used by Sadourny in JAS 75 paper)
(PID.TID 0000.0001)    = 3 : energy (general) and enstrophy (2D, nonDiv.) conserving scheme
(PID.TID 0000.0001)          from Sadourny (Burridge & Haseler, ECMWF Rep.4, 1977)
(PID.TID 0000.0001)     ;
(PID.TID 0000.0001) useJamartMomAdv= /* V.I Non-linear terms Jamart flag */
(PID.TID 0000.0001)                   F
(PID.TID 0000.0001)     ;
(PID.TID 0000.0001) upwindVorticity= /* V.I Upwind bias vorticity flag */
(PID.TID 0000.0001)                   F
(PID.TID 0000.0001)     ;
(PID.TID 0000.0001) highOrderVorticity= /* V.I High order vort. advect. flag */
(PID.TID 0000.0001)                   F
(PID.TID 0000.0001)     ;
(PID.TID 0000.0001) upwindShear= /* V.I Upwind vertical Shear advection flag */
(PID.TID 0000.0001)                   F
(PID.TID 0000.0001)     ;
(PID.TID 0000.0001) selectKEscheme= /* V.I Kinetic Energy scheme selector */
(PID.TID 0000.0001)                       0
(PID.TID 0000.0001)     ;
(PID.TID 0000.0001) momForcing =  /* Momentum forcing on/off flag */
(PID.TID 0000.0001)                   T
(PID.TID 0000.0001)     ;
(PID.TID 0000.0001) momTidalForcing = /* Momentum Tidal forcing on/off flag */
(PID.TID 0000.0001)                   T
(PID.TID 0000.0001)     ;
(PID.TID 0000.0001) momPressureForcing =  /* Momentum pressure term on/off flag */
(PID.TID 0000.0001)                   T
(PID.TID 0000.0001)     ;
(PID.TID 0000.0001) implicitIntGravWave= /* Implicit Internal Gravity Wave flag */
(PID.TID 0000.0001)                   F
(PID.TID 0000.0001)     ;
(PID.TID 0000.0001) staggerTimeStep =    /* Stagger time stepping on/off flag */
(PID.TID 0000.0001)                   T
(PID.TID 0000.0001)     ;
(PID.TID 0000.0001) doResetHFactors = /* reset thickness factors @ each time-step */
(PID.TID 0000.0001)                   F
(PID.TID 0000.0001)     ;
(PID.TID 0000.0001) multiDimAdvection =  /* enable/disable Multi-Dim Advection */
(PID.TID 0000.0001)                   T
(PID.TID 0000.0001)     ;
(PID.TID 0000.0001) useMultiDimAdvec =   /* Multi-Dim Advection is/is-not used */
(PID.TID 0000.0001)                   F
(PID.TID 0000.0001)     ;
(PID.TID 0000.0001) implicitDiffusion = /* Implicit Diffusion on/off flag */
(PID.TID 0000.0001)                   F
(PID.TID 0000.0001)     ;
(PID.TID 0000.0001) tempStepping =  /* Temperature equation on/off flag */
(PID.TID 0000.0001)                   T
(PID.TID 0000.0001)     ;
(PID.TID 0000.0001) tempAdvection = /* Temperature advection on/off flag */
(PID.TID 0000.0001)                   T
(PID.TID 0000.0001)     ;
(PID.TID 0000.0001) tempImplVertAdv = /* Temp. implicit vert. advection on/off */
(PID.TID 0000.0001)                   F
(PID.TID 0000.0001)     ;
(PID.TID 0000.0001) tempForcing  =  /* Temperature forcing on/off flag */
(PID.TID 0000.0001)                   T
(PID.TID 0000.0001)     ;
(PID.TID 0000.0001) doThetaClimRelax = /* apply SST relaxation on/off flag */
(PID.TID 0000.0001)                   F
(PID.TID 0000.0001)     ;
(PID.TID 0000.0001) tempIsActiveTr = /* Temp. is a dynamically Active Tracer */
(PID.TID 0000.0001)                   T
(PID.TID 0000.0001)     ;
(PID.TID 0000.0001) saltStepping =  /* Salinity equation on/off flag */
(PID.TID 0000.0001)                   F
(PID.TID 0000.0001)     ;
(PID.TID 0000.0001) saltAdvection = /* Salinity advection on/off flag */
(PID.TID 0000.0001)                   F
(PID.TID 0000.0001)     ;
(PID.TID 0000.0001) saltImplVertAdv = /* Sali. implicit vert. advection on/off */
(PID.TID 0000.0001)                   F
(PID.TID 0000.0001)     ;
(PID.TID 0000.0001) saltForcing  =  /* Salinity forcing on/off flag */
(PID.TID 0000.0001)                   F
(PID.TID 0000.0001)     ;
(PID.TID 0000.0001) doSaltClimRelax = /* apply SSS relaxation on/off flag */
(PID.TID 0000.0001)                   F
(PID.TID 0000.0001)     ;
(PID.TID 0000.0001) saltIsActiveTr = /* Salt  is a dynamically Active Tracer */
(PID.TID 0000.0001)                   F
(PID.TID 0000.0001)     ;
(PID.TID 0000.0001)  readBinaryPrec = /* Precision used for reading binary files */
(PID.TID 0000.0001)                      64
(PID.TID 0000.0001)     ;
(PID.TID 0000.0001) writeBinaryPrec = /* Precision used for writing binary files */
(PID.TID 0000.0001)                      64
(PID.TID 0000.0001)     ;
(PID.TID 0000.0001)  rwSuffixType =   /* select format of mds file suffix */
(PID.TID 0000.0001)                       0
(PID.TID 0000.0001)    = 0 : myIter (I10.10) ;   = 1 : 100*myTime (100th sec) ;
(PID.TID 0000.0001)    = 2 : myTime (seconds);   = 3 : myTime/360 (10th of hr);
(PID.TID 0000.0001)    = 4 : myTime/3600 (hours)
(PID.TID 0000.0001)     ;
(PID.TID 0000.0001)  globalFiles = /* write "global" (=not per tile) files */
(PID.TID 0000.0001)                   F
(PID.TID 0000.0001)     ;
(PID.TID 0000.0001)  useSingleCpuIO = /* only master MPI process does I/O */
(PID.TID 0000.0001)                   F
(PID.TID 0000.0001)     ;
(PID.TID 0000.0001)  useSingleCpuInput = /* only master process reads input */
(PID.TID 0000.0001)                   F
(PID.TID 0000.0001)     ;
(PID.TID 0000.0001) /* debLev[*]  : level of debug & auxiliary message printing */
(PID.TID 0000.0001) debLevZero =  0 ; /* level of disabled aux. msg printing */
(PID.TID 0000.0001)    debLevA =  1 ; /* level of minimum  aux. msg printing */
(PID.TID 0000.0001)    debLevB =  2 ; /* level of low aux. print (report read-file opening)*/
(PID.TID 0000.0001)    debLevC =  3 ; /* level of moderate debug prt (most pkgs debug msg) */
(PID.TID 0000.0001)    debLevD =  4 ; /* level of enhanced debug prt (add DEBUG_STATS prt) */
(PID.TID 0000.0001)    debLevE =  5 ; /* level of extensive debug printing */
(PID.TID 0000.0001) debugLevel =  /* select debug printing level */
(PID.TID 0000.0001)                       2
(PID.TID 0000.0001)     ;
(PID.TID 0000.0001)  plotLevel =  /* select PLOT_FIELD printing level */
(PID.TID 0000.0001)                       2
(PID.TID 0000.0001)     ;
(PID.TID 0000.0001) //
(PID.TID 0000.0001) // Elliptic solver(s) paramters ( PARM02 in namelist )
(PID.TID 0000.0001) //
(PID.TID 0000.0001) cg2dMaxIters =   /* Upper limit on 2d con. grad iterations  */
(PID.TID 0000.0001)                     200
(PID.TID 0000.0001)     ;
(PID.TID 0000.0001) cg2dChkResFreq =   /* 2d con. grad convergence test frequency */
(PID.TID 0000.0001)                       1
(PID.TID 0000.0001)     ;
(PID.TID 0000.0001) cg2dUseMinResSol= /* use cg2d last-iter(=0) / min-resid.(=1) solution */
(PID.TID 0000.0001)                       0
(PID.TID 0000.0001)     ;
(PID.TID 0000.0001) cg2dTargetResidual =   /* 2d con. grad target residual  */
(PID.TID 0000.0001)                 1.000000000000000E-07
(PID.TID 0000.0001)     ;
(PID.TID 0000.0001) cg2dTargetResWunit =   /* CG2d target residual [W units] */
(PID.TID 0000.0001)                 1.000000000000000E-17
(PID.TID 0000.0001)     ;
(PID.TID 0000.0001) cg2dPreCondFreq =   /* Freq. for updating cg2d preconditioner */
(PID.TID 0000.0001)                       1
(PID.TID 0000.0001)     ;
(PID.TID 0000.0001) useSRCGSolver =  /* use single reduction CG solver(s) */
(PID.TID 0000.0001)                   F
(PID.TID 0000.0001)     ;
(PID.TID 0000.0001) printResidualFreq = /* Freq. for printing CG residual */
(PID.TID 0000.0001)                       0
(PID.TID 0000.0001)     ;
(PID.TID 0000.0001) //
(PID.TID 0000.0001) // Time stepping paramters ( PARM03 in namelist )
(PID.TID 0000.0001) //
(PID.TID 0000.0001) deltaTMom =   /* Momentum equation timestep ( s ) */
(PID.TID 0000.0001)                 4.500000000000000E+02
(PID.TID 0000.0001)     ;
(PID.TID 0000.0001) deltaTFreeSurf = /* FreeSurface equation timestep ( s ) */
(PID.TID 0000.0001)                 4.500000000000000E+02
(PID.TID 0000.0001)     ;
(PID.TID 0000.0001) dTtracerLev =  /* Tracer equation timestep ( s ) */
(PID.TID 0000.0001)    20 @  4.500000000000000E+02              /* K =  1: 20 */
(PID.TID 0000.0001)     ;
(PID.TID 0000.0001) deltaTClock  =   /* Model clock timestep ( s ) */
(PID.TID 0000.0001)                 4.500000000000000E+02
(PID.TID 0000.0001)     ;
(PID.TID 0000.0001) cAdjFreq =   /* Convective adjustment interval ( s ) */
(PID.TID 0000.0001)                 0.000000000000000E+00
(PID.TID 0000.0001)     ;
(PID.TID 0000.0001) momForcingOutAB = /* =1: take Momentum Forcing out of Adams-Bash. stepping */
(PID.TID 0000.0001)                       0
(PID.TID 0000.0001)     ;
(PID.TID 0000.0001) tracForcingOutAB = /* =1: take T,S,pTr Forcing out of Adams-Bash. stepping */
(PID.TID 0000.0001)                       1
(PID.TID 0000.0001)     ;
(PID.TID 0000.0001) momDissip_In_AB = /* put Dissipation Tendency in Adams-Bash. stepping */
(PID.TID 0000.0001)                   T
(PID.TID 0000.0001)     ;
(PID.TID 0000.0001) doAB_onGtGs = /* apply AB on Tendencies (rather than on T,S)*/
(PID.TID 0000.0001)                   T
(PID.TID 0000.0001)     ;
(PID.TID 0000.0001) abEps =   /* Adams-Bashforth-2 stabilizing weight */
(PID.TID 0000.0001)                 1.000000000000000E-01
(PID.TID 0000.0001)     ;
(PID.TID 0000.0001) applyExchUV_early = /* Apply EXCH to U,V earlier in time-step */
(PID.TID 0000.0001)                   F
(PID.TID 0000.0001)     ;
(PID.TID 0000.0001) pickupStrictlyMatch= /* stop if pickup do not strictly match */
(PID.TID 0000.0001)                   T
(PID.TID 0000.0001)     ;
(PID.TID 0000.0001) nIter0   =   /* Run starting timestep number */
(PID.TID 0000.0001)                  276480
(PID.TID 0000.0001)     ;
(PID.TID 0000.0001) nTimeSteps = /* Number of timesteps */
(PID.TID 0000.0001)                      16
(PID.TID 0000.0001)     ;
(PID.TID 0000.0001) nEndIter =   /* Run ending timestep number */
(PID.TID 0000.0001)                  276496
(PID.TID 0000.0001)     ;
(PID.TID 0000.0001) baseTime =   /* Model base time ( s ) */
(PID.TID 0000.0001)                 0.000000000000000E+00
(PID.TID 0000.0001)     ;
(PID.TID 0000.0001) startTime =  /* Run start time ( s ) */
(PID.TID 0000.0001)                 1.244160000000000E+08
(PID.TID 0000.0001)     ;
(PID.TID 0000.0001) endTime  =   /* Integration ending time ( s ) */
(PID.TID 0000.0001)                 1.244232000000000E+08
(PID.TID 0000.0001)     ;
(PID.TID 0000.0001) pChkPtFreq = /* Permanent restart/pickup file interval ( s ) */
(PID.TID 0000.0001)                 3.110400000000000E+07
(PID.TID 0000.0001)     ;
(PID.TID 0000.0001) chkPtFreq  = /* Rolling restart/pickup file interval ( s ) */
(PID.TID 0000.0001)                 2.592000000000000E+06
(PID.TID 0000.0001)     ;
(PID.TID 0000.0001) pickup_write_mdsio =   /* Model IO flag. */
(PID.TID 0000.0001)                   T
(PID.TID 0000.0001)     ;
(PID.TID 0000.0001) pickup_read_mdsio =   /* Model IO flag. */
(PID.TID 0000.0001)                   T
(PID.TID 0000.0001)     ;
(PID.TID 0000.0001) writePickupAtEnd =   /* Model IO flag. */
(PID.TID 0000.0001)                   T
(PID.TID 0000.0001)     ;
(PID.TID 0000.0001) dumpFreq =   /* Model state write out interval ( s ). */
(PID.TID 0000.0001)                 2.592000000000000E+06
(PID.TID 0000.0001)     ;
(PID.TID 0000.0001) dumpInitAndLast= /* write out Initial & Last iter. model state */
(PID.TID 0000.0001)                   T
(PID.TID 0000.0001)     ;
(PID.TID 0000.0001) snapshot_mdsio =   /* Model IO flag. */
(PID.TID 0000.0001)                   T
(PID.TID 0000.0001)     ;
(PID.TID 0000.0001) monitorFreq =   /* Monitor output interval ( s ). */
(PID.TID 0000.0001)                 1.000000000000000E+00
(PID.TID 0000.0001)     ;
(PID.TID 0000.0001) monitorSelect = /* select group of variables to monitor */
(PID.TID 0000.0001)                       2
(PID.TID 0000.0001)     ;
(PID.TID 0000.0001) monitor_stdio =   /* Model IO flag. */
(PID.TID 0000.0001)                   T
(PID.TID 0000.0001)     ;
(PID.TID 0000.0001) externForcingPeriod =   /* forcing period (s) */
(PID.TID 0000.0001)                 0.000000000000000E+00
(PID.TID 0000.0001)     ;
(PID.TID 0000.0001) externForcingCycle =   /* period of the cyle (s). */
(PID.TID 0000.0001)                 0.000000000000000E+00
(PID.TID 0000.0001)     ;
(PID.TID 0000.0001) tauThetaClimRelax =   /* relaxation time scale (s) */
(PID.TID 0000.0001)                 0.000000000000000E+00
(PID.TID 0000.0001)     ;
(PID.TID 0000.0001) tauSaltClimRelax =   /* relaxation time scale (s) */
(PID.TID 0000.0001)                 0.000000000000000E+00
(PID.TID 0000.0001)     ;
(PID.TID 0000.0001) latBandClimRelax =   /* max. Lat. where relaxation */
(PID.TID 0000.0001)                 1.800000000000000E+02
(PID.TID 0000.0001)     ;
(PID.TID 0000.0001) //
(PID.TID 0000.0001) // Gridding paramters ( PARM04 in namelist )
(PID.TID 0000.0001) //
(PID.TID 0000.0001) usingCartesianGrid = /* Cartesian coordinates flag ( True/False ) */
(PID.TID 0000.0001)                   F
(PID.TID 0000.0001)     ;
(PID.TID 0000.0001) usingCylindricalGrid = /* Cylindrical coordinates flag ( True/False ) */
(PID.TID 0000.0001)                   F
(PID.TID 0000.0001)     ;
(PID.TID 0000.0001) usingSphericalPolarGrid = /* Spherical coordinates flag ( True/False ) */
(PID.TID 0000.0001)                   F
(PID.TID 0000.0001)     ;
(PID.TID 0000.0001) usingCurvilinearGrid = /* Curvilinear coordinates flag ( True/False ) */
(PID.TID 0000.0001)                   T
(PID.TID 0000.0001)     ;
(PID.TID 0000.0001) useMin4hFacEdges = /* set hFacW,S as minimum of adjacent hFacC factor */
(PID.TID 0000.0001)                   F
(PID.TID 0000.0001)     ;
(PID.TID 0000.0001) interViscAr_pCell = /* account for partial-cell in interior vert. viscosity */
(PID.TID 0000.0001)                   F
(PID.TID 0000.0001)     ;
(PID.TID 0000.0001) interDiffKr_pCell = /* account for partial-cell in interior vert. diffusion */
(PID.TID 0000.0001)                   F
(PID.TID 0000.0001)     ;
(PID.TID 0000.0001) pCellMix_select = /* option to enhance mixing near surface & bottom */
(PID.TID 0000.0001)                       0
(PID.TID 0000.0001)     ;
(PID.TID 0000.0001) selectSigmaCoord = /* Hybrid-Sigma Vert. Coordinate option */
(PID.TID 0000.0001)                       0
(PID.TID 0000.0001)     ;
(PID.TID 0000.0001) rSigmaBnd = /* r/sigma transition ( units of r == Pa ) */
(PID.TID 0000.0001)                 1.234567000000000E+05
(PID.TID 0000.0001)     ;
(PID.TID 0000.0001) rkSign =   /* index orientation relative to vertical coordinate */
(PID.TID 0000.0001)                -1.000000000000000E+00
(PID.TID 0000.0001)     ;
(PID.TID 0000.0001) gravitySign = /* gravity orientation relative to vertical coordinate */
(PID.TID 0000.0001)                 1.000000000000000E+00
(PID.TID 0000.0001)     ;
(PID.TID 0000.0001) seaLev_Z =  /* reference height of sea-level [m] */
(PID.TID 0000.0001)                 0.000000000000000E+00
(PID.TID 0000.0001)     ;
(PID.TID 0000.0001) top_Pres =  /* pressure at the top (r-axis origin) [Pa] */
(PID.TID 0000.0001)                 0.000000000000000E+00
(PID.TID 0000.0001)     ;
(PID.TID 0000.0001) mass2rUnit = /* convert mass per unit area [kg/m2] to r-units [Pa] */
(PID.TID 0000.0001)                 9.810000000000000E+00
(PID.TID 0000.0001)     ;
(PID.TID 0000.0001) rUnit2mass = /* convert r-units [Pa] to mass per unit area [kg/m2] */
(PID.TID 0000.0001)                 1.019367991845056E-01
(PID.TID 0000.0001)     ;
(PID.TID 0000.0001) drC =   /* C spacing ( units of r ) */
(PID.TID 0000.0001)                 2.500000000000000E+03,      /* K =  1 */
(PID.TID 0000.0001)    19 @  5.000000000000000E+03,             /* K =  2: 20 */
(PID.TID 0000.0001)                 2.500000000000000E+03       /* K = 21 */
(PID.TID 0000.0001)     ;
(PID.TID 0000.0001) drF =   /* W spacing ( units of r ) */
(PID.TID 0000.0001)    20 @  5.000000000000000E+03              /* K =  1: 20 */
(PID.TID 0000.0001)     ;
(PID.TID 0000.0001) radius_fromHorizGrid = /* sphere Radius of input horiz. grid */
(PID.TID 0000.0001)                 6.370000000000000E+06
(PID.TID 0000.0001)     ;
(PID.TID 0000.0001) rSphere =  /* Radius ( ignored - cartesian, m - spherical ) */
(PID.TID 0000.0001)                 6.370000000000000E+06
(PID.TID 0000.0001)     ;
(PID.TID 0000.0001) deepAtmosphere = /* Deep/Shallow Atmosphere flag (True/False) */
(PID.TID 0000.0001)                   F
(PID.TID 0000.0001)     ;
(PID.TID 0000.0001) xC =  /* xC(:,1,:,1) : P-point X coord ( deg. or m if cartesian) */
(PID.TID 0000.0001)                -4.439521994760536E+01,      /* I =  1 */
(PID.TID 0000.0001)                -4.295641272275883E+01,      /* I =  2 */
(PID.TID 0000.0001)                -4.122055553388957E+01,      /* I =  3 */
(PID.TID 0000.0001)      . . .
(PID.TID 0000.0001)                 8.070819219728060E+01,      /* I = 46 */
(PID.TID 0000.0001)                 8.439652466417766E+01,      /* I = 47 */
(PID.TID 0000.0001)                 8.812739148696656E+01,      /* I = 48 */
(PID.TID 0000.0001)                 9.187260851303344E+01,      /* I = 49 */
(PID.TID 0000.0001)                 9.560347533582234E+01,      /* I = 50 */
(PID.TID 0000.0001)                 9.929180780271940E+01,      /* I = 51 */
(PID.TID 0000.0001)      . . .
(PID.TID 0000.0001)                 1.321863035748696E+02,      /* I = 94 */
(PID.TID 0000.0001)                 1.337919453120370E+02,      /* I = 95 */
(PID.TID 0000.0001)                 1.350000000000000E+02,      /* I = 96 */
(PID.TID 0000.0001)                 1.356047800523947E+02,      /* I = 97 */
(PID.TID 0000.0001)                 1.358367907661329E+02,      /* I = 98 */
(PID.TID 0000.0001)                 1.359720382181193E+02,      /* I = 99 */
(PID.TID 0000.0001)      . . .
(PID.TID 0000.0001)                -1.336511021209287E+02,      /* I =142 */
(PID.TID 0000.0001)                -1.336469399409420E+02,      /* I =143 */
(PID.TID 0000.0001)                -1.336449032499283E+02,      /* I =144 */
(PID.TID 0000.0001)                -1.336449032499283E+02,      /* I =145 */
(PID.TID 0000.0001)                -1.336469399409420E+02,      /* I =146 */
(PID.TID 0000.0001)                -1.336511021209287E+02,      /* I =147 */
(PID.TID 0000.0001)      . . .
(PID.TID 0000.0001)                 1.378136964251304E+02,      /* I =190 */
(PID.TID 0000.0001)                 1.362080546879630E+02,      /* I =191 */
(PID.TID 0000.0001)                 1.350000000000000E+02       /* I =192 */
(PID.TID 0000.0001)     ;
(PID.TID 0000.0001) yC =  /* yC(1,:,1,:) : P-point Y coord ( deg. or m if cartesian) */
(PID.TID 0000.0001)                -3.497677942598243E+01,      /* J =  1 */
(PID.TID 0000.0001)                -3.374005967394886E+01,      /* J =  2 */
(PID.TID 0000.0001)                -3.220655175667454E+01,      /* J =  3 */
(PID.TID 0000.0001)                -3.045756348838641E+01,      /* J =  4 */
(PID.TID 0000.0001)                -2.853728129852918E+01,      /* J =  5 */
(PID.TID 0000.0001)                -2.647426640173173E+01,      /* J =  6 */
(PID.TID 0000.0001)                -2.428936657094636E+01,      /* J =  7 */
(PID.TID 0000.0001)                -2.199915808312262E+01,      /* J =  8 */
(PID.TID 0000.0001)                -1.961768597440146E+01,      /* J =  9 */
(PID.TID 0000.0001)                -1.715743888281371E+01,      /* J = 10 */
(PID.TID 0000.0001)                -1.462993396899330E+01,      /* J = 11 */
(PID.TID 0000.0001)                -1.204608340464756E+01,      /* J = 12 */
(PID.TID 0000.0001)                -9.416429130284818E+00,      /* J = 13 */
(PID.TID 0000.0001)                -6.751293662992216E+00,      /* J = 14 */
(PID.TID 0000.0001)                -4.060875511835959E+00,      /* J = 15 */
(PID.TID 0000.0001)                -1.355307764409121E+00,      /* J = 16 */
(PID.TID 0000.0001)                 1.355307764409121E+00,      /* J = 17 */
(PID.TID 0000.0001)                 4.060875511835959E+00,      /* J = 18 */
(PID.TID 0000.0001)                 6.751293662992216E+00,      /* J = 19 */
(PID.TID 0000.0001)                 9.416429130284818E+00,      /* J = 20 */
(PID.TID 0000.0001)                 1.204608340464756E+01,      /* J = 21 */
(PID.TID 0000.0001)                 1.462993396899330E+01,      /* J = 22 */
(PID.TID 0000.0001)                 1.715743888281371E+01,      /* J = 23 */
(PID.TID 0000.0001)                 1.961768597440146E+01,      /* J = 24 */
(PID.TID 0000.0001)                 2.199915808312262E+01,      /* J = 25 */
(PID.TID 0000.0001)                 2.428936657094636E+01,      /* J = 26 */
(PID.TID 0000.0001)                 2.647426640173173E+01,      /* J = 27 */
(PID.TID 0000.0001)                 2.853728129852918E+01,      /* J = 28 */
(PID.TID 0000.0001)                 3.045756348838641E+01,      /* J = 29 */
(PID.TID 0000.0001)                 3.220655175667454E+01,      /* J = 30 */
(PID.TID 0000.0001)                 3.374005967394886E+01,      /* J = 31 */
(PID.TID 0000.0001)                 3.497677942598243E+01       /* J = 32 */
(PID.TID 0000.0001)     ;
(PID.TID 0000.0001) rcoord = /* P-point R coordinate (  units of r ) */
(PID.TID 0000.0001)                 9.750000000000000E+04,      /* K =  1 */
(PID.TID 0000.0001)                 9.250000000000000E+04,      /* K =  2 */
(PID.TID 0000.0001)                 8.750000000000000E+04,      /* K =  3 */
(PID.TID 0000.0001)                 8.250000000000000E+04,      /* K =  4 */
(PID.TID 0000.0001)                 7.750000000000000E+04,      /* K =  5 */
(PID.TID 0000.0001)                 7.250000000000000E+04,      /* K =  6 */
(PID.TID 0000.0001)                 6.750000000000000E+04,      /* K =  7 */
(PID.TID 0000.0001)                 6.250000000000000E+04,      /* K =  8 */
(PID.TID 0000.0001)                 5.750000000000000E+04,      /* K =  9 */
(PID.TID 0000.0001)                 5.250000000000000E+04,      /* K = 10 */
(PID.TID 0000.0001)                 4.750000000000000E+04,      /* K = 11 */
(PID.TID 0000.0001)                 4.250000000000000E+04,      /* K = 12 */
(PID.TID 0000.0001)                 3.750000000000000E+04,      /* K = 13 */
(PID.TID 0000.0001)                 3.250000000000000E+04,      /* K = 14 */
(PID.TID 0000.0001)                 2.750000000000000E+04,      /* K = 15 */
(PID.TID 0000.0001)                 2.250000000000000E+04,      /* K = 16 */
(PID.TID 0000.0001)                 1.750000000000000E+04,      /* K = 17 */
(PID.TID 0000.0001)                 1.250000000000000E+04,      /* K = 18 */
(PID.TID 0000.0001)                 7.500000000000000E+03,      /* K = 19 */
(PID.TID 0000.0001)                 2.500000000000000E+03       /* K = 20 */
(PID.TID 0000.0001)     ;
(PID.TID 0000.0001) rF =   /* W-Interf. R coordinate (  units of r ) */
(PID.TID 0000.0001)                 1.000000000000000E+05,      /* K =  1 */
(PID.TID 0000.0001)                 9.500000000000000E+04,      /* K =  2 */
(PID.TID 0000.0001)                 9.000000000000000E+04,      /* K =  3 */
(PID.TID 0000.0001)                 8.500000000000000E+04,      /* K =  4 */
(PID.TID 0000.0001)                 8.000000000000000E+04,      /* K =  5 */
(PID.TID 0000.0001)                 7.500000000000000E+04,      /* K =  6 */
(PID.TID 0000.0001)                 7.000000000000000E+04,      /* K =  7 */
(PID.TID 0000.0001)                 6.500000000000000E+04,      /* K =  8 */
(PID.TID 0000.0001)                 6.000000000000000E+04,      /* K =  9 */
(PID.TID 0000.0001)                 5.500000000000000E+04,      /* K = 10 */
(PID.TID 0000.0001)                 5.000000000000000E+04,      /* K = 11 */
(PID.TID 0000.0001)                 4.500000000000000E+04,      /* K = 12 */
(PID.TID 0000.0001)                 4.000000000000000E+04,      /* K = 13 */
(PID.TID 0000.0001)                 3.500000000000000E+04,      /* K = 14 */
(PID.TID 0000.0001)                 3.000000000000000E+04,      /* K = 15 */
(PID.TID 0000.0001)                 2.500000000000000E+04,      /* K = 16 */
(PID.TID 0000.0001)                 2.000000000000000E+04,      /* K = 17 */
(PID.TID 0000.0001)                 1.500000000000000E+04,      /* K = 18 */
(PID.TID 0000.0001)                 1.000000000000000E+04,      /* K = 19 */
(PID.TID 0000.0001)                 5.000000000000000E+03,      /* K = 20 */
(PID.TID 0000.0001)                 0.000000000000000E+00       /* K = 21 */
(PID.TID 0000.0001)     ;
(PID.TID 0000.0001) deepFacC = /* deep-model grid factor @ cell-Center (-) */
(PID.TID 0000.0001)    20 @  1.000000000000000E+00              /* K =  1: 20 */
(PID.TID 0000.0001)     ;
(PID.TID 0000.0001) deepFacF = /* deep-model grid factor @ W-Interface (-) */
(PID.TID 0000.0001)    21 @  1.000000000000000E+00              /* K =  1: 21 */
(PID.TID 0000.0001)     ;
(PID.TID 0000.0001) rVel2wUnit = /* convert units: rVel -> wSpeed (=1 if z-coord)*/
(PID.TID 0000.0001)                 8.632031454783748E-02,      /* K =  1 */
(PID.TID 0000.0001)                 8.958707285174485E-02,      /* K =  2 */
(PID.TID 0000.0001)                 9.322489597668063E-02,      /* K =  3 */
(PID.TID 0000.0001)                 9.724115789139974E-02,      /* K =  4 */
(PID.TID 0000.0001)                 1.016816995635013E-01,      /* K =  5 */
(PID.TID 0000.0001)                 1.066224882385748E-01,      /* K =  6 */
(PID.TID 0000.0001)                 1.121783017604942E-01,      /* K =  7 */
(PID.TID 0000.0001)                 1.184752359236691E-01,      /* K =  8 */
(PID.TID 0000.0001)                 1.256778876034342E-01,      /* K =  9 */
(PID.TID 0000.0001)                 1.340056381340221E-01,      /* K = 10 */
(PID.TID 0000.0001)                 1.437581146849567E-01,      /* K = 11 */
(PID.TID 0000.0001)                 1.553565773170242E-01,      /* K = 12 */
(PID.TID 0000.0001)                 1.695269138916702E-01,      /* K = 13 */
(PID.TID 0000.0001)                 1.875447762881537E-01,      /* K = 14 */
(PID.TID 0000.0001)                 2.114822211098226E-01,      /* K = 15 */
(PID.TID 0000.0001)                 2.452264254170199E-01,      /* K = 16 */
(PID.TID 0000.0001)                 2.975234870372538E-01,      /* K = 17 */
(PID.TID 0000.0001)                 3.921511262428121E-01,      /* K = 18 */
(PID.TID 0000.0001)                 5.918087228289601E-01,      /* K = 19 */
(PID.TID 0000.0001)                 1.233738318605267E+00,      /* K = 20 */
(PID.TID 0000.0001)                 1.000000000000000E+00       /* K = 21 */
(PID.TID 0000.0001)     ;
(PID.TID 0000.0001) wUnit2rVel = /* convert units: wSpeed -> rVel (=1 if z-coord)*/
(PID.TID 0000.0001)                 1.158475852686814E+01,      /* K =  1 */
(PID.TID 0000.0001)                 1.116232474360304E+01,      /* K =  2 */
(PID.TID 0000.0001)                 1.072674835968861E+01,      /* K =  3 */
(PID.TID 0000.0001)                 1.028371135930748E+01,      /* K =  4 */
(PID.TID 0000.0001)                 9.834611383295076E+00,      /* K =  5 */
(PID.TID 0000.0001)                 9.378884478501709E+00,      /* K =  6 */
(PID.TID 0000.0001)                 8.914379913996610E+00,      /* K =  7 */
(PID.TID 0000.0001)                 8.440582474503593E+00,      /* K =  8 */
(PID.TID 0000.0001)                 7.956849204495017E+00,      /* K =  9 */
(PID.TID 0000.0001)                 7.462372583158610E+00,      /* K = 10 */
(PID.TID 0000.0001)                 6.956129065767744E+00,      /* K = 11 */
(PID.TID 0000.0001)                 6.436805040827959E+00,      /* K = 12 */
(PID.TID 0000.0001)                 5.898768384582358E+00,      /* K = 13 */
(PID.TID 0000.0001)                 5.332060000773081E+00,      /* K = 14 */
(PID.TID 0000.0001)                 4.728529872403320E+00,      /* K = 15 */
(PID.TID 0000.0001)                 4.077863950834212E+00,      /* K = 16 */
(PID.TID 0000.0001)                 3.361079187253499E+00,      /* K = 17 */
(PID.TID 0000.0001)                 2.550037302151773E+00,      /* K = 18 */
(PID.TID 0000.0001)                 1.689735148241490E+00,      /* K = 19 */
(PID.TID 0000.0001)                 8.105446551506101E-01,      /* K = 20 */
(PID.TID 0000.0001)                 1.000000000000000E+00       /* K = 21 */
(PID.TID 0000.0001)     ;
(PID.TID 0000.0001) dBdrRef = /* Vertical grad. of reference buoyancy [(m/s/r)^2] */
(PID.TID 0000.0001)                 0.000000000000000E+00,      /* K =  1 */
(PID.TID 0000.0001)                 1.785624045681920E-07,      /* K =  2 */
(PID.TID 0000.0001)                 2.474616971131904E-07,      /* K =  3 */
(PID.TID 0000.0001)                 2.577789237040079E-07,      /* K =  4 */
(PID.TID 0000.0001)                 2.691929498445455E-07,      /* K =  5 */
(PID.TID 0000.0001)                 2.819006866136815E-07,      /* K =  6 */
(PID.TID 0000.0001)                 3.701885945018193E-07,      /* K =  7 */
(PID.TID 0000.0001)                 3.903284211594409E-07,      /* K =  8 */
(PID.TID 0000.0001)                 4.959801422021664E-07,      /* K =  9 */
(PID.TID 0000.0001)                 5.278194764615134E-07,      /* K = 10 */
(PID.TID 0000.0001)                 6.592299523493489E-07,      /* K = 11 */
(PID.TID 0000.0001)                 7.108417798077609E-07,      /* K = 12 */
(PID.TID 0000.0001)                 1.325764956810394E-06,      /* K = 13 */
(PID.TID 0000.0001)                 2.674466482785901E-06,      /* K = 14 */
(PID.TID 0000.0001)                 5.294955460934289E-06,      /* K = 15 */
(PID.TID 0000.0001)                 1.098719325200351E-05,      /* K = 16 */
(PID.TID 0000.0001)                 2.616472004653700E-05,      /* K = 17 */
(PID.TID 0000.0001)                 7.337796900442801E-05,      /* K = 18 */
(PID.TID 0000.0001)                 1.713079844497272E-04,      /* K = 19 */
(PID.TID 0000.0001)                 7.979759252990869E-04       /* K = 20 */
(PID.TID 0000.0001)     ;
(PID.TID 0000.0001) rotateGrid = /* use rotated grid ( True/False ) */
(PID.TID 0000.0001)                   F
(PID.TID 0000.0001)     ;
(PID.TID 0000.0001) phiEuler = /* Euler angle, rotation about original z-coordinate [rad] */
(PID.TID 0000.0001)                 0.000000000000000E+00
(PID.TID 0000.0001)     ;
(PID.TID 0000.0001) thetaEuler = /* Euler angle, rotation about new x-coordinate [rad] */
(PID.TID 0000.0001)                 0.000000000000000E+00
(PID.TID 0000.0001)     ;
(PID.TID 0000.0001) psiEuler = /* Euler angle, rotation about new z-coordinate [rad] */
(PID.TID 0000.0001)                 0.000000000000000E+00
(PID.TID 0000.0001)     ;
(PID.TID 0000.0001) dxF =  /* dxF(:,1,:,1) ( units: m ) */
(PID.TID 0000.0001)                 1.202082051331828E+05,      /* I =  1 */
(PID.TID 0000.0001)                 1.563594089971120E+05,      /* I =  2 */
(PID.TID 0000.0001)                 1.835530058121492E+05,      /* I =  3 */
(PID.TID 0000.0001)      . . .
(PID.TID 0000.0001)                 2.978501920522794E+05,      /* I = 46 */
(PID.TID 0000.0001)                 3.000967749619962E+05,      /* I = 47 */
(PID.TID 0000.0001)                 3.012190981969055E+05,      /* I = 48 */
(PID.TID 0000.0001)                 3.012190981969055E+05,      /* I = 49 */
(PID.TID 0000.0001)                 3.000967749619962E+05,      /* I = 50 */
(PID.TID 0000.0001)                 2.978501920522794E+05,      /* I = 51 */
(PID.TID 0000.0001)      . . .
(PID.TID 0000.0001)                 1.835530058121492E+05,      /* I = 94 */
(PID.TID 0000.0001)                 1.563594089971120E+05,      /* I = 95 */
(PID.TID 0000.0001)                 1.202082051331828E+05,      /* I = 96 */
(PID.TID 0000.0001)                 1.202082051331828E+05,      /* I = 97 */
(PID.TID 0000.0001)                 1.563594089971120E+05,      /* I = 98 */
(PID.TID 0000.0001)                 1.835530058121492E+05,      /* I = 99 */
(PID.TID 0000.0001)      . . .
(PID.TID 0000.0001)                 2.978501920522794E+05,      /* I =142 */
(PID.TID 0000.0001)                 3.000967749619962E+05,      /* I =143 */
(PID.TID 0000.0001)                 3.012190981969055E+05,      /* I =144 */
(PID.TID 0000.0001)                 3.012190981969055E+05,      /* I =145 */
(PID.TID 0000.0001)                 3.000967749619962E+05,      /* I =146 */
(PID.TID 0000.0001)                 2.978501920522794E+05,      /* I =147 */
(PID.TID 0000.0001)      . . .
(PID.TID 0000.0001)                 1.835530058121492E+05,      /* I =190 */
(PID.TID 0000.0001)                 1.563594089971120E+05,      /* I =191 */
(PID.TID 0000.0001)                 1.202082051331828E+05       /* I =192 */
(PID.TID 0000.0001)     ;
(PID.TID 0000.0001) dxF =  /* dxF(1,:,1,:) ( units: m ) */
(PID.TID 0000.0001)                 1.202082051331828E+05,      /* J =  1 */
(PID.TID 0000.0001)                 1.572908084538706E+05,      /* J =  2 */
(PID.TID 0000.0001)                 1.840412227747703E+05,      /* J =  3 */
(PID.TID 0000.0001)                 2.048868197919576E+05,      /* J =  4 */
(PID.TID 0000.0001)                 2.220405216043041E+05,      /* J =  5 */
(PID.TID 0000.0001)                 2.365892017348392E+05,      /* J =  6 */
(PID.TID 0000.0001)                 2.491250781852558E+05,      /* J =  7 */
(PID.TID 0000.0001)                 2.599949918261881E+05,      /* J =  8 */
(PID.TID 0000.0001)                 2.694110134598581E+05,      /* J =  9 */
(PID.TID 0000.0001)                 2.775055554645015E+05,      /* J = 10 */
(PID.TID 0000.0001)                 2.843615645344775E+05,      /* J = 11 */
(PID.TID 0000.0001)                 2.900303768613599E+05,      /* J = 12 */
(PID.TID 0000.0001)                 2.945429307892709E+05,      /* J = 13 */
(PID.TID 0000.0001)                 2.979171143158405E+05,      /* J = 14 */
(PID.TID 0000.0001)                 3.001626787528886E+05,      /* J = 15 */
(PID.TID 0000.0001)     2 @  3.012844832048790E+05,             /* J = 16: 17 */
(PID.TID 0000.0001)                 3.001626787528886E+05,      /* J = 18 */
(PID.TID 0000.0001)                 2.979171143158405E+05,      /* J = 19 */
(PID.TID 0000.0001)                 2.945429307892709E+05,      /* J = 20 */
(PID.TID 0000.0001)                 2.900303768613599E+05,      /* J = 21 */
(PID.TID 0000.0001)                 2.843615645344775E+05,      /* J = 22 */
(PID.TID 0000.0001)                 2.775055554645015E+05,      /* J = 23 */
(PID.TID 0000.0001)                 2.694110134598581E+05,      /* J = 24 */
(PID.TID 0000.0001)                 2.599949918261881E+05,      /* J = 25 */
(PID.TID 0000.0001)                 2.491250781852558E+05,      /* J = 26 */
(PID.TID 0000.0001)                 2.365892017348392E+05,      /* J = 27 */
(PID.TID 0000.0001)                 2.220405216043041E+05,      /* J = 28 */
(PID.TID 0000.0001)                 2.048868197919576E+05,      /* J = 29 */
(PID.TID 0000.0001)                 1.840412227747703E+05,      /* J = 30 */
(PID.TID 0000.0001)                 1.572908084538706E+05,      /* J = 31 */
(PID.TID 0000.0001)                 1.202082051331828E+05       /* J = 32 */
(PID.TID 0000.0001)     ;
(PID.TID 0000.0001) dyF =  /* dyF(:,1,:,1) ( units: m ) */
(PID.TID 0000.0001)                 1.202082051331828E+05,      /* I =  1 */
(PID.TID 0000.0001)                 1.572908084538706E+05,      /* I =  2 */
(PID.TID 0000.0001)                 1.840412227747703E+05,      /* I =  3 */
(PID.TID 0000.0001)      . . .
(PID.TID 0000.0001)                 2.979171143158405E+05,      /* I = 46 */
(PID.TID 0000.0001)                 3.001626787528886E+05,      /* I = 47 */
(PID.TID 0000.0001)                 3.012844832048790E+05,      /* I = 48 */
(PID.TID 0000.0001)                 3.012844832048790E+05,      /* I = 49 */
(PID.TID 0000.0001)                 3.001626787528886E+05,      /* I = 50 */
(PID.TID 0000.0001)                 2.979171143158405E+05,      /* I = 51 */
(PID.TID 0000.0001)      . . .
(PID.TID 0000.0001)                 1.840412227747703E+05,      /* I = 94 */
(PID.TID 0000.0001)                 1.572908084538706E+05,      /* I = 95 */
(PID.TID 0000.0001)                 1.202082051331828E+05,      /* I = 96 */
(PID.TID 0000.0001)                 1.202082051331828E+05,      /* I = 97 */
(PID.TID 0000.0001)                 1.572908084538706E+05,      /* I = 98 */
(PID.TID 0000.0001)                 1.840412227747703E+05,      /* I = 99 */
(PID.TID 0000.0001)      . . .
(PID.TID 0000.0001)                 2.979171143158405E+05,      /* I =142 */
(PID.TID 0000.0001)                 3.001626787528886E+05,      /* I =143 */
(PID.TID 0000.0001)                 3.012844832048790E+05,      /* I =144 */
(PID.TID 0000.0001)                 3.012844832048790E+05,      /* I =145 */
(PID.TID 0000.0001)                 3.001626787528886E+05,      /* I =146 */
(PID.TID 0000.0001)                 2.979171143158405E+05,      /* I =147 */
(PID.TID 0000.0001)      . . .
(PID.TID 0000.0001)                 1.840412227747703E+05,      /* I =190 */
(PID.TID 0000.0001)                 1.572908084538706E+05,      /* I =191 */
(PID.TID 0000.0001)                 1.202082051331828E+05       /* I =192 */
(PID.TID 0000.0001)     ;
(PID.TID 0000.0001) dyF =  /* dyF(1,:,1,:) ( units: m ) */
(PID.TID 0000.0001)                 1.202082051331828E+05,      /* J =  1 */
(PID.TID 0000.0001)                 1.563594089971120E+05,      /* J =  2 */
(PID.TID 0000.0001)                 1.835530058121492E+05,      /* J =  3 */
(PID.TID 0000.0001)                 2.045883481718707E+05,      /* J =  4 */
(PID.TID 0000.0001)                 2.218350349844185E+05,      /* J =  5 */
(PID.TID 0000.0001)                 2.364352994647058E+05,      /* J =  6 */
(PID.TID 0000.0001)                 2.490022710862746E+05,      /* J =  7 */
(PID.TID 0000.0001)                 2.598919724358304E+05,      /* J =  8 */
(PID.TID 0000.0001)                 2.693210245495156E+05,      /* J =  9 */
(PID.TID 0000.0001)                 2.774243179696503E+05,      /* J = 10 */
(PID.TID 0000.0001)                 2.842862532064524E+05,      /* J = 11 */
(PID.TID 0000.0001)                 2.899590699694043E+05,      /* J = 12 */
(PID.TID 0000.0001)                 2.944742915095688E+05,      /* J = 13 */
(PID.TID 0000.0001)                 2.978501920522794E+05,      /* J = 14 */
(PID.TID 0000.0001)                 3.000967749619962E+05,      /* J = 15 */
(PID.TID 0000.0001)     2 @  3.012190981969055E+05,             /* J = 16: 17 */
(PID.TID 0000.0001)                 3.000967749619962E+05,      /* J = 18 */
(PID.TID 0000.0001)                 2.978501920522794E+05,      /* J = 19 */
(PID.TID 0000.0001)                 2.944742915095688E+05,      /* J = 20 */
(PID.TID 0000.0001)                 2.899590699694043E+05,      /* J = 21 */
(PID.TID 0000.0001)                 2.842862532064524E+05,      /* J = 22 */
(PID.TID 0000.0001)                 2.774243179696503E+05,      /* J = 23 */
(PID.TID 0000.0001)                 2.693210245495156E+05,      /* J = 24 */
(PID.TID 0000.0001)                 2.598919724358304E+05,      /* J = 25 */
(PID.TID 0000.0001)                 2.490022710862746E+05,      /* J = 26 */
(PID.TID 0000.0001)                 2.364352994647058E+05,      /* J = 27 */
(PID.TID 0000.0001)                 2.218350349844185E+05,      /* J = 28 */
(PID.TID 0000.0001)                 2.045883481718707E+05,      /* J = 29 */
(PID.TID 0000.0001)                 1.835530058121492E+05,      /* J = 30 */
(PID.TID 0000.0001)                 1.563594089971120E+05,      /* J = 31 */
(PID.TID 0000.0001)                 1.202082051331828E+05       /* J = 32 */
(PID.TID 0000.0001)     ;
(PID.TID 0000.0001) dxG =  /* dxG(:,1,:,1) ( units: m ) */
(PID.TID 0000.0001)                 1.009837800879055E+05,      /* I =  1 */
(PID.TID 0000.0001)                 1.534505834330338E+05,      /* I =  2 */
(PID.TID 0000.0001)                 1.823321598773926E+05,      /* I =  3 */
(PID.TID 0000.0001)      . . .
(PID.TID 0000.0001)                 2.977867909042096E+05,      /* I = 46 */
(PID.TID 0000.0001)                 3.000380090330854E+05,      /* I = 47 */
(PID.TID 0000.0001)                 3.011625828699101E+05,      /* I = 48 */
(PID.TID 0000.0001)                 3.011625828699101E+05,      /* I = 49 */
(PID.TID 0000.0001)                 3.000380090330854E+05,      /* I = 50 */
(PID.TID 0000.0001)                 2.977867909042096E+05,      /* I = 51 */
(PID.TID 0000.0001)      . . .
(PID.TID 0000.0001)                 1.823321598773926E+05,      /* I = 94 */
(PID.TID 0000.0001)                 1.534505834330338E+05,      /* I = 95 */
(PID.TID 0000.0001)                 1.009837800879055E+05,      /* I = 96 */
(PID.TID 0000.0001)                 1.009837800879055E+05,      /* I = 97 */
(PID.TID 0000.0001)                 1.534505834330338E+05,      /* I = 98 */
(PID.TID 0000.0001)                 1.823321598773926E+05,      /* I = 99 */
(PID.TID 0000.0001)      . . .
(PID.TID 0000.0001)                 2.977867909042096E+05,      /* I =142 */
(PID.TID 0000.0001)                 3.000380090330854E+05,      /* I =143 */
(PID.TID 0000.0001)                 3.011625828699101E+05,      /* I =144 */
(PID.TID 0000.0001)                 3.011625828699101E+05,      /* I =145 */
(PID.TID 0000.0001)                 3.000380090330854E+05,      /* I =146 */
(PID.TID 0000.0001)                 2.977867909042096E+05,      /* I =147 */
(PID.TID 0000.0001)      . . .
(PID.TID 0000.0001)                 1.823321598773926E+05,      /* I =190 */
(PID.TID 0000.0001)                 1.534505834330338E+05,      /* I =191 */
(PID.TID 0000.0001)                 1.009837800879055E+05       /* I =192 */
(PID.TID 0000.0001)     ;
(PID.TID 0000.0001) dxG =  /* dxG(1,:,1,:) ( units: m ) */
(PID.TID 0000.0001)                 1.009837800879055E+05,      /* J =  1 */
(PID.TID 0000.0001)                 1.403701524205398E+05,      /* J =  2 */
(PID.TID 0000.0001)                 1.716197227386011E+05,      /* J =  3 */
(PID.TID 0000.0001)                 1.950254041626018E+05,      /* J =  4 */
(PID.TID 0000.0001)                 2.138410773065497E+05,      /* J =  5 */
(PID.TID 0000.0001)                 2.295958105911512E+05,      /* J =  6 */
(PID.TID 0000.0001)                 2.430829951739083E+05,      /* J =  7 */
(PID.TID 0000.0001)                 2.547526806712889E+05,      /* J =  8 */
(PID.TID 0000.0001)                 2.648750305193301E+05,      /* J =  9 */
(PID.TID 0000.0001)                 2.736173771018112E+05,      /* J = 10 */
(PID.TID 0000.0001)                 2.810845823202647E+05,      /* J = 11 */
(PID.TID 0000.0001)                 2.873420591008078E+05,      /* J = 12 */
(PID.TID 0000.0001)                 2.924298293668651E+05,      /* J = 13 */
(PID.TID 0000.0001)                 2.963715635865306E+05,      /* J = 14 */
(PID.TID 0000.0001)                 2.991805843171258E+05,      /* J = 15 */
(PID.TID 0000.0001)                 3.008638765647886E+05,      /* J = 16 */
(PID.TID 0000.0001)                 3.014246674484008E+05,      /* J = 17 */
(PID.TID 0000.0001)                 3.008638765647886E+05,      /* J = 18 */
(PID.TID 0000.0001)                 2.991805843171258E+05,      /* J = 19 */
(PID.TID 0000.0001)                 2.963715635865306E+05,      /* J = 20 */
(PID.TID 0000.0001)                 2.924298293668651E+05,      /* J = 21 */
(PID.TID 0000.0001)                 2.873420591008078E+05,      /* J = 22 */
(PID.TID 0000.0001)                 2.810845823202647E+05,      /* J = 23 */
(PID.TID 0000.0001)                 2.736173771018112E+05,      /* J = 24 */
(PID.TID 0000.0001)                 2.648750305193301E+05,      /* J = 25 */
(PID.TID 0000.0001)                 2.547526806712889E+05,      /* J = 26 */
(PID.TID 0000.0001)                 2.430829951739083E+05,      /* J = 27 */
(PID.TID 0000.0001)                 2.295958105911512E+05,      /* J = 28 */
(PID.TID 0000.0001)                 2.138410773065497E+05,      /* J = 29 */
(PID.TID 0000.0001)                 1.950254041626018E+05,      /* J = 30 */
(PID.TID 0000.0001)                 1.716197227386011E+05,      /* J = 31 */
(PID.TID 0000.0001)                 1.403701524205398E+05       /* J = 32 */
(PID.TID 0000.0001)     ;
(PID.TID 0000.0001) dyG =  /* dyG(:,1,:,1) ( units: m ) */
(PID.TID 0000.0001)                 1.009837800879055E+05,      /* I =  1 */
(PID.TID 0000.0001)                 1.403701524205398E+05,      /* I =  2 */
(PID.TID 0000.0001)                 1.716197227386011E+05,      /* I =  3 */
(PID.TID 0000.0001)      . . .
(PID.TID 0000.0001)                 2.963715635865306E+05,      /* I = 46 */
(PID.TID 0000.0001)                 2.991805843171258E+05,      /* I = 47 */
(PID.TID 0000.0001)                 3.008638765647886E+05,      /* I = 48 */
(PID.TID 0000.0001)                 3.014246674484008E+05,      /* I = 49 */
(PID.TID 0000.0001)                 3.008638765647886E+05,      /* I = 50 */
(PID.TID 0000.0001)                 2.991805843171258E+05,      /* I = 51 */
(PID.TID 0000.0001)      . . .
(PID.TID 0000.0001)                 1.950254041626018E+05,      /* I = 94 */
(PID.TID 0000.0001)                 1.716197227386011E+05,      /* I = 95 */
(PID.TID 0000.0001)                 1.403701524205398E+05,      /* I = 96 */
(PID.TID 0000.0001)                 1.009837800879055E+05,      /* I = 97 */
(PID.TID 0000.0001)                 1.403701524205398E+05,      /* I = 98 */
(PID.TID 0000.0001)                 1.716197227386011E+05,      /* I = 99 */
(PID.TID 0000.0001)      . . .
(PID.TID 0000.0001)                 2.963715635865306E+05,      /* I =142 */
(PID.TID 0000.0001)                 2.991805843171258E+05,      /* I =143 */
(PID.TID 0000.0001)                 3.008638765647886E+05,      /* I =144 */
(PID.TID 0000.0001)                 3.014246674484008E+05,      /* I =145 */
(PID.TID 0000.0001)                 3.008638765647886E+05,      /* I =146 */
(PID.TID 0000.0001)                 2.991805843171258E+05,      /* I =147 */
(PID.TID 0000.0001)      . . .
(PID.TID 0000.0001)                 1.950254041626018E+05,      /* I =190 */
(PID.TID 0000.0001)                 1.716197227386011E+05,      /* I =191 */
(PID.TID 0000.0001)                 1.403701524205398E+05       /* I =192 */
(PID.TID 0000.0001)     ;
(PID.TID 0000.0001) dyG =  /* dyG(1,:,1,:) ( units: m ) */
(PID.TID 0000.0001)                 1.009837800879055E+05,      /* J =  1 */
(PID.TID 0000.0001)                 1.534505834330338E+05,      /* J =  2 */
(PID.TID 0000.0001)                 1.823321598773926E+05,      /* J =  3 */
(PID.TID 0000.0001)                 2.038999045536999E+05,      /* J =  4 */
(PID.TID 0000.0001)                 2.213884732245467E+05,      /* J =  5 */
(PID.TID 0000.0001)                 2.361211699596122E+05,      /* J =  6 */
(PID.TID 0000.0001)                 2.487693460283865E+05,      /* J =  7 */
(PID.TID 0000.0001)                 2.597126963772147E+05,      /* J =  8 */
(PID.TID 0000.0001)                 2.691790288994575E+05,      /* J =  9 */
(PID.TID 0000.0001)                 2.773091043277394E+05,      /* J = 10 */
(PID.TID 0000.0001)                 2.841906470085516E+05,      /* J = 11 */
(PID.TID 0000.0001)                 2.898778860929753E+05,      /* J = 12 */
(PID.TID 0000.0001)                 2.944035815526416E+05,      /* J = 13 */
(PID.TID 0000.0001)                 2.977867909042096E+05,      /* J = 14 */
(PID.TID 0000.0001)                 3.000380090330854E+05,      /* J = 15 */
(PID.TID 0000.0001)     2 @  3.011625828699101E+05,             /* J = 16: 17 */
(PID.TID 0000.0001)                 3.000380090330854E+05,      /* J = 18 */
(PID.TID 0000.0001)                 2.977867909042096E+05,      /* J = 19 */
(PID.TID 0000.0001)                 2.944035815526416E+05,      /* J = 20 */
(PID.TID 0000.0001)                 2.898778860929753E+05,      /* J = 21 */
(PID.TID 0000.0001)                 2.841906470085516E+05,      /* J = 22 */
(PID.TID 0000.0001)                 2.773091043277394E+05,      /* J = 23 */
(PID.TID 0000.0001)                 2.691790288994575E+05,      /* J = 24 */
(PID.TID 0000.0001)                 2.597126963772147E+05,      /* J = 25 */
(PID.TID 0000.0001)                 2.487693460283865E+05,      /* J = 26 */
(PID.TID 0000.0001)                 2.361211699596122E+05,      /* J = 27 */
(PID.TID 0000.0001)                 2.213884732245467E+05,      /* J = 28 */
(PID.TID 0000.0001)                 2.038999045536999E+05,      /* J = 29 */
(PID.TID 0000.0001)                 1.823321598773926E+05,      /* J = 30 */
(PID.TID 0000.0001)                 1.534505834330338E+05,      /* J = 31 */
(PID.TID 0000.0001)                 1.009837800879055E+05       /* J = 32 */
(PID.TID 0000.0001)     ;
(PID.TID 0000.0001) dxC =  /* dxC(:,1,:,1) ( units: m ) */
(PID.TID 0000.0001)                 1.114203141013064E+05,      /* I =  1 */
(PID.TID 0000.0001)                 1.391343389937106E+05,      /* I =  2 */
(PID.TID 0000.0001)                 1.709574999026266E+05,      /* I =  3 */
(PID.TID 0000.0001)      . . .
(PID.TID 0000.0001)                 2.963038832565530E+05,      /* I = 46 */
(PID.TID 0000.0001)                 2.991142470004740E+05,      /* I = 47 */
(PID.TID 0000.0001)                 3.007982711627968E+05,      /* I = 48 */
(PID.TID 0000.0001)                 3.013593857228136E+05,      /* I = 49 */
(PID.TID 0000.0001)                 3.007982711627968E+05,      /* I = 50 */
(PID.TID 0000.0001)                 2.991142470004740E+05,      /* I = 51 */
(PID.TID 0000.0001)      . . .
(PID.TID 0000.0001)                 1.946503699269892E+05,      /* I = 94 */
(PID.TID 0000.0001)                 1.709574999026266E+05,      /* I = 95 */
(PID.TID 0000.0001)                 1.391343389937106E+05,      /* I = 96 */
(PID.TID 0000.0001)                 1.114203141013064E+05,      /* I = 97 */
(PID.TID 0000.0001)                 1.391343389937106E+05,      /* I = 98 */
(PID.TID 0000.0001)                 1.709574999026266E+05,      /* I = 99 */
(PID.TID 0000.0001)      . . .
(PID.TID 0000.0001)                 2.963038832565530E+05,      /* I =142 */
(PID.TID 0000.0001)                 2.991142470004740E+05,      /* I =143 */
(PID.TID 0000.0001)                 3.007982711627968E+05,      /* I =144 */
(PID.TID 0000.0001)                 3.013593857228136E+05,      /* I =145 */
(PID.TID 0000.0001)                 3.007982711627968E+05,      /* I =146 */
(PID.TID 0000.0001)                 2.991142470004740E+05,      /* I =147 */
(PID.TID 0000.0001)      . . .
(PID.TID 0000.0001)                 1.946503699269892E+05,      /* I =190 */
(PID.TID 0000.0001)                 1.709574999026266E+05,      /* I =191 */
(PID.TID 0000.0001)                 1.391343389937106E+05       /* I =192 */
(PID.TID 0000.0001)     ;
(PID.TID 0000.0001) dxC =  /* dxC(1,:,1,:) ( units: m ) */
(PID.TID 0000.0001)                 1.114203141013064E+05,      /* J =  1 */
(PID.TID 0000.0001)                 1.549545757850771E+05,      /* J =  2 */
(PID.TID 0000.0001)                 1.829777599966776E+05,      /* J =  3 */
(PID.TID 0000.0001)                 2.042717761866506E+05,      /* J =  4 */
(PID.TID 0000.0001)                 2.216367828252819E+05,      /* J =  5 */
(PID.TID 0000.0001)                 2.363029564123586E+05,      /* J =  6 */
(PID.TID 0000.0001)                 2.489113743322025E+05,      /* J =  7 */
(PID.TID 0000.0001)                 2.598293319150326E+05,      /* J =  8 */
(PID.TID 0000.0001)                 2.692787333338535E+05,      /* J =  9 */
(PID.TID 0000.0001)                 2.773972106720365E+05,      /* J = 10 */
(PID.TID 0000.0001)                 2.842706922224557E+05,      /* J = 11 */
(PID.TID 0000.0001)                 2.899523122489403E+05,      /* J = 12 */
(PID.TID 0000.0001)                 2.944741346384699E+05,      /* J = 13 */
(PID.TID 0000.0001)                 2.978547649292580E+05,      /* J = 14 */
(PID.TID 0000.0001)                 3.001044073506459E+05,      /* J = 15 */
(PID.TID 0000.0001)     2 @  3.012281885409289E+05,             /* J = 16: 17 */
(PID.TID 0000.0001)                 3.001044073506459E+05,      /* J = 18 */
(PID.TID 0000.0001)                 2.978547649292580E+05,      /* J = 19 */
(PID.TID 0000.0001)                 2.944741346384699E+05,      /* J = 20 */
(PID.TID 0000.0001)                 2.899523122489403E+05,      /* J = 21 */
(PID.TID 0000.0001)                 2.842706922224557E+05,      /* J = 22 */
(PID.TID 0000.0001)                 2.773972106720365E+05,      /* J = 23 */
(PID.TID 0000.0001)                 2.692787333338535E+05,      /* J = 24 */
(PID.TID 0000.0001)                 2.598293319150326E+05,      /* J = 25 */
(PID.TID 0000.0001)                 2.489113743322025E+05,      /* J = 26 */
(PID.TID 0000.0001)                 2.363029564123586E+05,      /* J = 27 */
(PID.TID 0000.0001)                 2.216367828252819E+05,      /* J = 28 */
(PID.TID 0000.0001)                 2.042717761866506E+05,      /* J = 29 */
(PID.TID 0000.0001)                 1.829777599966776E+05,      /* J = 30 */
(PID.TID 0000.0001)                 1.549545757850771E+05,      /* J = 31 */
(PID.TID 0000.0001)                 1.114203141013064E+05       /* J = 32 */
(PID.TID 0000.0001)     ;
(PID.TID 0000.0001) dyC =  /* dyC(:,1,:,1) ( units: m ) */
(PID.TID 0000.0001)                 1.114203141013064E+05,      /* I =  1 */
(PID.TID 0000.0001)                 1.549545757850771E+05,      /* I =  2 */
(PID.TID 0000.0001)                 1.829777599966776E+05,      /* I =  3 */
(PID.TID 0000.0001)      . . .
(PID.TID 0000.0001)                 2.978547649292580E+05,      /* I = 46 */
(PID.TID 0000.0001)                 3.001044073506459E+05,      /* I = 47 */
(PID.TID 0000.0001)                 3.012281885409289E+05,      /* I = 48 */
(PID.TID 0000.0001)                 3.012281885409289E+05,      /* I = 49 */
(PID.TID 0000.0001)                 3.001044073506459E+05,      /* I = 50 */
(PID.TID 0000.0001)                 2.978547649292580E+05,      /* I = 51 */
(PID.TID 0000.0001)      . . .
(PID.TID 0000.0001)                 1.829777599966776E+05,      /* I = 94 */
(PID.TID 0000.0001)                 1.549545757850771E+05,      /* I = 95 */
(PID.TID 0000.0001)                 1.114203141013064E+05,      /* I = 96 */
(PID.TID 0000.0001)                 1.114203141013064E+05,      /* I = 97 */
(PID.TID 0000.0001)                 1.549545757850771E+05,      /* I = 98 */
(PID.TID 0000.0001)                 1.829777599966776E+05,      /* I = 99 */
(PID.TID 0000.0001)      . . .
(PID.TID 0000.0001)                 2.978547649292580E+05,      /* I =142 */
(PID.TID 0000.0001)                 3.001044073506459E+05,      /* I =143 */
(PID.TID 0000.0001)                 3.012281885409289E+05,      /* I =144 */
(PID.TID 0000.0001)                 3.012281885409289E+05,      /* I =145 */
(PID.TID 0000.0001)                 3.001044073506459E+05,      /* I =146 */
(PID.TID 0000.0001)                 2.978547649292580E+05,      /* I =147 */
(PID.TID 0000.0001)      . . .
(PID.TID 0000.0001)                 1.829777599966776E+05,      /* I =190 */
(PID.TID 0000.0001)                 1.549545757850771E+05,      /* I =191 */
(PID.TID 0000.0001)                 1.114203141013064E+05       /* I =192 */
(PID.TID 0000.0001)     ;
(PID.TID 0000.0001) dyC =  /* dyC(1,:,1,:) ( units: m ) */
(PID.TID 0000.0001)                 1.114203141013064E+05,      /* J =  1 */
(PID.TID 0000.0001)                 1.391343389937106E+05,      /* J =  2 */
(PID.TID 0000.0001)                 1.709574999026266E+05,      /* J =  3 */
(PID.TID 0000.0001)                 1.946503699269892E+05,      /* J =  4 */
(PID.TID 0000.0001)                 2.135964483342134E+05,      /* J =  5 */
(PID.TID 0000.0001)                 2.294195678257306E+05,      /* J =  6 */
(PID.TID 0000.0001)                 2.429464709770498E+05,      /* J =  7 */
(PID.TID 0000.0001)                 2.546408290696998E+05,      /* J =  8 */
(PID.TID 0000.0001)                 2.647791839299727E+05,      /* J =  9 */
(PID.TID 0000.0001)                 2.735321911346108E+05,      /* J = 10 */
(PID.TID 0000.0001)                 2.810065951609633E+05,      /* J = 11 */
(PID.TID 0000.0001)                 2.872689479506990E+05,      /* J = 12 */
(PID.TID 0000.0001)                 2.923599955312932E+05,      /* J = 13 */
(PID.TID 0000.0001)                 2.963038832565530E+05,      /* J = 14 */
(PID.TID 0000.0001)                 2.991142470004740E+05,      /* J = 15 */
(PID.TID 0000.0001)                 3.007982711627968E+05,      /* J = 16 */
(PID.TID 0000.0001)                 3.013593857228136E+05,      /* J = 17 */
(PID.TID 0000.0001)                 3.007982711627968E+05,      /* J = 18 */
(PID.TID 0000.0001)                 2.991142470004740E+05,      /* J = 19 */
(PID.TID 0000.0001)                 2.963038832565530E+05,      /* J = 20 */
(PID.TID 0000.0001)                 2.923599955312932E+05,      /* J = 21 */
(PID.TID 0000.0001)                 2.872689479506990E+05,      /* J = 22 */
(PID.TID 0000.0001)                 2.810065951609633E+05,      /* J = 23 */
(PID.TID 0000.0001)                 2.735321911346108E+05,      /* J = 24 */
(PID.TID 0000.0001)                 2.647791839299727E+05,      /* J = 25 */
(PID.TID 0000.0001)                 2.546408290696998E+05,      /* J = 26 */
(PID.TID 0000.0001)                 2.429464709770498E+05,      /* J = 27 */
(PID.TID 0000.0001)                 2.294195678257306E+05,      /* J = 28 */
(PID.TID 0000.0001)                 2.135964483342134E+05,      /* J = 29 */
(PID.TID 0000.0001)                 1.946503699269892E+05,      /* J = 30 */
(PID.TID 0000.0001)                 1.709574999026266E+05,      /* J = 31 */
(PID.TID 0000.0001)                 1.391343389937106E+05       /* J = 32 */
(PID.TID 0000.0001)     ;
(PID.TID 0000.0001) dxV =  /* dxV(:,1,:,1) ( units: m ) */
(PID.TID 0000.0001)                 8.015229982413632E+04,      /* I =  1 */
(PID.TID 0000.0001)                 1.333130744933864E+05,      /* I =  2 */
(PID.TID 0000.0001)                 1.691744868129062E+05,      /* I =  3 */
(PID.TID 0000.0001)      . . .
(PID.TID 0000.0001)                 2.962371870847826E+05,      /* I = 46 */
(PID.TID 0000.0001)                 2.990534755671296E+05,      /* I = 47 */
(PID.TID 0000.0001)                 3.007409169495504E+05,      /* I = 48 */
(PID.TID 0000.0001)                 3.013031486919771E+05,      /* I = 49 */
(PID.TID 0000.0001)                 3.007409169495504E+05,      /* I = 50 */
(PID.TID 0000.0001)                 2.990534755671296E+05,      /* I = 51 */
(PID.TID 0000.0001)      . . .
(PID.TID 0000.0001)                 1.937548202849060E+05,      /* I = 94 */
(PID.TID 0000.0001)                 1.691744868129062E+05,      /* I = 95 */
(PID.TID 0000.0001)                 1.333130744933864E+05,      /* I = 96 */
(PID.TID 0000.0001)                 8.015229982413632E+04,      /* I = 97 */
(PID.TID 0000.0001)                 1.333130744933864E+05,      /* I = 98 */
(PID.TID 0000.0001)                 1.691744868129062E+05,      /* I = 99 */
(PID.TID 0000.0001)      . . .
(PID.TID 0000.0001)                 2.962371870847826E+05,      /* I =142 */
(PID.TID 0000.0001)                 2.990534755671296E+05,      /* I =143 */
(PID.TID 0000.0001)                 3.007409169495504E+05,      /* I =144 */
(PID.TID 0000.0001)                 3.013031486919771E+05,      /* I =145 */
(PID.TID 0000.0001)                 3.007409169495504E+05,      /* I =146 */
(PID.TID 0000.0001)                 2.990534755671296E+05,      /* I =147 */
(PID.TID 0000.0001)      . . .
(PID.TID 0000.0001)                 1.937548202849060E+05,      /* I =190 */
(PID.TID 0000.0001)                 1.691744868129062E+05,      /* I =191 */
(PID.TID 0000.0001)                 1.333130744933864E+05       /* I =192 */
(PID.TID 0000.0001)     ;
(PID.TID 0000.0001) dxV =  /* dxV(1,:,1,:) ( units: m ) */
(PID.TID 0000.0001)                 8.015229982413632E+04,      /* J =  1 */
(PID.TID 0000.0001)                 1.362652340208229E+05,      /* J =  2 */
(PID.TID 0000.0001)                 1.701080315742101E+05,      /* J =  3 */
(PID.TID 0000.0001)                 1.942331448101592E+05,      /* J =  4 */
(PID.TID 0000.0001)                 2.133486626971531E+05,      /* J =  5 */
(PID.TID 0000.0001)                 2.292584591272880E+05,      /* J =  6 */
(PID.TID 0000.0001)                 2.428369969078989E+05,      /* J =  7 */
(PID.TID 0000.0001)                 2.545652950875683E+05,      /* J =  8 */
(PID.TID 0000.0001)                 2.647274964828301E+05,      /* J =  9 */
(PID.TID 0000.0001)                 2.734980225206389E+05,      /* J = 10 */
(PID.TID 0000.0001)                 2.809856491525217E+05,      /* J = 11 */
(PID.TID 0000.0001)                 2.872580915202295E+05,      /* J = 12 */
(PID.TID 0000.0001)                 2.923567890694162E+05,      /* J = 13 */
(PID.TID 0000.0001)                 2.963063101754721E+05,      /* J = 14 */
(PID.TID 0000.0001)                 2.991205495886625E+05,      /* J = 15 */
(PID.TID 0000.0001)                 3.008068453676764E+05,      /* J = 16 */
(PID.TID 0000.0001)                 3.013686170436881E+05,      /* J = 17 */
(PID.TID 0000.0001)                 3.008068453676764E+05,      /* J = 18 */
(PID.TID 0000.0001)                 2.991205495886625E+05,      /* J = 19 */
(PID.TID 0000.0001)                 2.963063101754721E+05,      /* J = 20 */
(PID.TID 0000.0001)                 2.923567890694162E+05,      /* J = 21 */
(PID.TID 0000.0001)                 2.872580915202295E+05,      /* J = 22 */
(PID.TID 0000.0001)                 2.809856491525217E+05,      /* J = 23 */
(PID.TID 0000.0001)                 2.734980225206389E+05,      /* J = 24 */
(PID.TID 0000.0001)                 2.647274964828301E+05,      /* J = 25 */
(PID.TID 0000.0001)                 2.545652950875683E+05,      /* J = 26 */
(PID.TID 0000.0001)                 2.428369969078989E+05,      /* J = 27 */
(PID.TID 0000.0001)                 2.292584591272880E+05,      /* J = 28 */
(PID.TID 0000.0001)                 2.133486626971531E+05,      /* J = 29 */
(PID.TID 0000.0001)                 1.942331448101592E+05,      /* J = 30 */
(PID.TID 0000.0001)                 1.701080315742101E+05,      /* J = 31 */
(PID.TID 0000.0001)                 1.362652340208229E+05       /* J = 32 */
(PID.TID 0000.0001)     ;
(PID.TID 0000.0001) dyU =  /* dyU(:,1,:,1) ( units: m ) */
(PID.TID 0000.0001)                 8.015229982413632E+04,      /* I =  1 */
(PID.TID 0000.0001)                 1.362652340208229E+05,      /* I =  2 */
(PID.TID 0000.0001)                 1.701080315742101E+05,      /* I =  3 */
(PID.TID 0000.0001)      . . .
(PID.TID 0000.0001)                 2.963063101754721E+05,      /* I = 46 */
(PID.TID 0000.0001)                 2.991205495886625E+05,      /* I = 47 */
(PID.TID 0000.0001)                 3.008068453676764E+05,      /* I = 48 */
(PID.TID 0000.0001)                 3.013686170436881E+05,      /* I = 49 */
(PID.TID 0000.0001)                 3.008068453676764E+05,      /* I = 50 */
(PID.TID 0000.0001)                 2.991205495886625E+05,      /* I = 51 */
(PID.TID 0000.0001)      . . .
(PID.TID 0000.0001)                 1.942331448101592E+05,      /* I = 94 */
(PID.TID 0000.0001)                 1.701080315742101E+05,      /* I = 95 */
(PID.TID 0000.0001)                 1.362652340208229E+05,      /* I = 96 */
(PID.TID 0000.0001)                 8.015229982413632E+04,      /* I = 97 */
(PID.TID 0000.0001)                 1.362652340208229E+05,      /* I = 98 */
(PID.TID 0000.0001)                 1.701080315742101E+05,      /* I = 99 */
(PID.TID 0000.0001)      . . .
(PID.TID 0000.0001)                 2.963063101754721E+05,      /* I =142 */
(PID.TID 0000.0001)                 2.991205495886625E+05,      /* I =143 */
(PID.TID 0000.0001)                 3.008068453676764E+05,      /* I =144 */
(PID.TID 0000.0001)                 3.013686170436881E+05,      /* I =145 */
(PID.TID 0000.0001)                 3.008068453676764E+05,      /* I =146 */
(PID.TID 0000.0001)                 2.991205495886625E+05,      /* I =147 */
(PID.TID 0000.0001)      . . .
(PID.TID 0000.0001)                 1.942331448101592E+05,      /* I =190 */
(PID.TID 0000.0001)                 1.701080315742101E+05,      /* I =191 */
(PID.TID 0000.0001)                 1.362652340208229E+05       /* I =192 */
(PID.TID 0000.0001)     ;
(PID.TID 0000.0001) dyU =  /* dyU(1,:,1,:) ( units: m ) */
(PID.TID 0000.0001)                 8.015229982413632E+04,      /* J =  1 */
(PID.TID 0000.0001)                 1.333130744933864E+05,      /* J =  2 */
(PID.TID 0000.0001)                 1.691744868129062E+05,      /* J =  3 */
(PID.TID 0000.0001)                 1.937548202849060E+05,      /* J =  4 */
(PID.TID 0000.0001)                 2.130490056267208E+05,      /* J =  5 */
(PID.TID 0000.0001)                 2.290479919481738E+05,      /* J =  6 */
(PID.TID 0000.0001)                 2.426774358027003E+05,      /* J =  7 */
(PID.TID 0000.0001)                 2.544372984215561E+05,      /* J =  8 */
(PID.TID 0000.0001)                 2.646201463834826E+05,      /* J =  9 */
(PID.TID 0000.0001)                 2.734046499619031E+05,      /* J = 10 */
(PID.TID 0000.0001)                 2.809019351693761E+05,      /* J = 11 */
(PID.TID 0000.0001)                 2.871811105274442E+05,      /* J = 12 */
(PID.TID 0000.0001)                 2.922844849381675E+05,      /* J = 13 */
(PID.TID 0000.0001)                 2.962371870847826E+05,      /* J = 14 */
(PID.TID 0000.0001)                 2.990534755671296E+05,      /* J = 15 */
(PID.TID 0000.0001)                 3.007409169495504E+05,      /* J = 16 */
(PID.TID 0000.0001)                 3.013031486919771E+05,      /* J = 17 */
(PID.TID 0000.0001)                 3.007409169495504E+05,      /* J = 18 */
(PID.TID 0000.0001)                 2.990534755671296E+05,      /* J = 19 */
(PID.TID 0000.0001)                 2.962371870847826E+05,      /* J = 20 */
(PID.TID 0000.0001)                 2.922844849381675E+05,      /* J = 21 */
(PID.TID 0000.0001)                 2.871811105274442E+05,      /* J = 22 */
(PID.TID 0000.0001)                 2.809019351693761E+05,      /* J = 23 */
(PID.TID 0000.0001)                 2.734046499619031E+05,      /* J = 24 */
(PID.TID 0000.0001)                 2.646201463834826E+05,      /* J = 25 */
(PID.TID 0000.0001)                 2.544372984215561E+05,      /* J = 26 */
(PID.TID 0000.0001)                 2.426774358027003E+05,      /* J = 27 */
(PID.TID 0000.0001)                 2.290479919481738E+05,      /* J = 28 */
(PID.TID 0000.0001)                 2.130490056267208E+05,      /* J = 29 */
(PID.TID 0000.0001)                 1.937548202849060E+05,      /* J = 30 */
(PID.TID 0000.0001)                 1.691744868129062E+05,      /* J = 31 */
(PID.TID 0000.0001)                 1.333130744933864E+05       /* J = 32 */
(PID.TID 0000.0001)     ;
(PID.TID 0000.0001) rA  =  /* rA (:,1,:,1) ( units: m^2 ) */
(PID.TID 0000.0001)                 1.401900702255611E+10,      /* I =  1 */
(PID.TID 0000.0001)                 2.459906945574446E+10,      /* I =  2 */
(PID.TID 0000.0001)                 3.378518544307869E+10,      /* I =  3 */
(PID.TID 0000.0001)      . . .
(PID.TID 0000.0001)                 8.874277443041928E+10,      /* I = 46 */
(PID.TID 0000.0001)                 9.008620045350865E+10,      /* I = 47 */
(PID.TID 0000.0001)                 9.076111290418457E+10,      /* I = 48 */
(PID.TID 0000.0001)                 9.076111290422060E+10,      /* I = 49 */
(PID.TID 0000.0001)                 9.008620045354469E+10,      /* I = 50 */
(PID.TID 0000.0001)                 8.874277443041928E+10,      /* I = 51 */
(PID.TID 0000.0001)      . . .
(PID.TID 0000.0001)                 3.378518544304265E+10,      /* I = 94 */
(PID.TID 0000.0001)                 2.459906945574446E+10,      /* I = 95 */
(PID.TID 0000.0001)                 1.401900702259215E+10,      /* I = 96 */
(PID.TID 0000.0001)                 1.401900702255611E+10,      /* I = 97 */
(PID.TID 0000.0001)                 2.459906945574446E+10,      /* I = 98 */
(PID.TID 0000.0001)                 3.378518544307869E+10,      /* I = 99 */
(PID.TID 0000.0001)      . . .
(PID.TID 0000.0001)                 8.874277443041928E+10,      /* I =142 */
(PID.TID 0000.0001)                 9.008620045350865E+10,      /* I =143 */
(PID.TID 0000.0001)                 9.076111290418457E+10,      /* I =144 */
(PID.TID 0000.0001)                 9.076111290422060E+10,      /* I =145 */
(PID.TID 0000.0001)                 9.008620045354469E+10,      /* I =146 */
(PID.TID 0000.0001)                 8.874277443041928E+10,      /* I =147 */
(PID.TID 0000.0001)      . . .
(PID.TID 0000.0001)                 3.378518544304265E+10,      /* I =190 */
(PID.TID 0000.0001)                 2.459906945574446E+10,      /* I =191 */
(PID.TID 0000.0001)                 1.401900702259215E+10       /* I =192 */
(PID.TID 0000.0001)     ;
(PID.TID 0000.0001) rA  =  /* rA (1,:,1,:) ( units: m^2 ) */
(PID.TID 0000.0001)                 1.401900702255611E+10,      /* J =  1 */
(PID.TID 0000.0001)                 2.459906945574446E+10,      /* J =  2 */
(PID.TID 0000.0001)                 3.378518544307869E+10,      /* J =  3 */
(PID.TID 0000.0001)                 4.192037169898667E+10,      /* J =  4 */
(PID.TID 0000.0001)                 4.925938996118163E+10,      /* J =  5 */
(PID.TID 0000.0001)                 5.594154126607553E+10,      /* J =  6 */
(PID.TID 0000.0001)                 6.203683527776127E+10,      /* J =  7 */
(PID.TID 0000.0001)                 6.757541173817516E+10,      /* J =  8 */
(PID.TID 0000.0001)                 7.256353271748119E+10,      /* J =  9 */
(PID.TID 0000.0001)                 7.699293007098555E+10,      /* J = 10 */
(PID.TID 0000.0001)                 8.084683449728902E+10,      /* J = 11 */
(PID.TID 0000.0001)                 8.410423102799828E+10,      /* J = 12 */
(PID.TID 0000.0001)                 8.674306976737517E+10,      /* J = 13 */
(PID.TID 0000.0001)                 8.874277443041928E+10,      /* J = 14 */
(PID.TID 0000.0001)                 9.008620045350865E+10,      /* J = 15 */
(PID.TID 0000.0001)                 9.076111290418457E+10,      /* J = 16 */
(PID.TID 0000.0001)                 9.076111290422060E+10,      /* J = 17 */
(PID.TID 0000.0001)                 9.008620045354469E+10,      /* J = 18 */
(PID.TID 0000.0001)                 8.874277443041928E+10,      /* J = 19 */
(PID.TID 0000.0001)                 8.674306976737517E+10,      /* J = 20 */
(PID.TID 0000.0001)                 8.410423102799828E+10,      /* J = 21 */
(PID.TID 0000.0001)                 8.084683449728902E+10,      /* J = 22 */
(PID.TID 0000.0001)                 7.699293007098555E+10,      /* J = 23 */
(PID.TID 0000.0001)                 7.256353271748119E+10,      /* J = 24 */
(PID.TID 0000.0001)                 6.757541173817516E+10,      /* J = 25 */
(PID.TID 0000.0001)                 6.203683527772523E+10,      /* J = 26 */
(PID.TID 0000.0001)                 5.594154126607553E+10,      /* J = 27 */
(PID.TID 0000.0001)                 4.925938996118163E+10,      /* J = 28 */
(PID.TID 0000.0001)                 4.192037169898667E+10,      /* J = 29 */
(PID.TID 0000.0001)                 3.378518544307869E+10,      /* J = 30 */
(PID.TID 0000.0001)                 2.459906945574446E+10,      /* J = 31 */
(PID.TID 0000.0001)                 1.401900702259215E+10       /* J = 32 */
(PID.TID 0000.0001)     ;
(PID.TID 0000.0001) rAw =  /* rAw(:,1,:,1) ( units: m^2 ) */
(PID.TID 0000.0001)                 1.216690346714270E+10,      /* I =  1 */
(PID.TID 0000.0001)                 1.974052138506315E+10,      /* I =  2 */
(PID.TID 0000.0001)                 2.943712825252015E+10,      /* I =  3 */
(PID.TID 0000.0001)      . . .
(PID.TID 0000.0001)                 8.781353403175085E+10,      /* I = 46 */
(PID.TID 0000.0001)                 8.948571540392021E+10,      /* I = 47 */
(PID.TID 0000.0001)                 9.049530583086168E+10,      /* I = 48 */
(PID.TID 0000.0001)                 9.083293515008307E+10,      /* I = 49 */
(PID.TID 0000.0001)                 9.049530583087070E+10,      /* I = 50 */
(PID.TID 0000.0001)                 8.948571540391121E+10,      /* I = 51 */
(PID.TID 0000.0001)      . . .
(PID.TID 0000.0001)                 3.801790263325260E+10,      /* I = 94 */
(PID.TID 0000.0001)                 2.943712825251114E+10,      /* I = 95 */
(PID.TID 0000.0001)                 1.974052138509018E+10,      /* I = 96 */
(PID.TID 0000.0001)                 1.216690346714270E+10,      /* I = 97 */
(PID.TID 0000.0001)                 1.974052138506315E+10,      /* I = 98 */
(PID.TID 0000.0001)                 2.943712825252015E+10,      /* I = 99 */
(PID.TID 0000.0001)      . . .
(PID.TID 0000.0001)                 8.781353403175085E+10,      /* I =142 */
(PID.TID 0000.0001)                 8.948571540392021E+10,      /* I =143 */
(PID.TID 0000.0001)                 9.049530583086168E+10,      /* I =144 */
(PID.TID 0000.0001)                 9.083293515008307E+10,      /* I =145 */
(PID.TID 0000.0001)                 9.049530583087070E+10,      /* I =146 */
(PID.TID 0000.0001)                 8.948571540391121E+10,      /* I =147 */
(PID.TID 0000.0001)      . . .
(PID.TID 0000.0001)                 3.801790263325260E+10,      /* I =190 */
(PID.TID 0000.0001)                 2.943712825251114E+10,      /* I =191 */
(PID.TID 0000.0001)                 1.974052138509018E+10       /* I =192 */
(PID.TID 0000.0001)     ;
(PID.TID 0000.0001) rAw =  /* rAw(1,:,1,:) ( units: m^2 ) */
(PID.TID 0000.0001)                 1.216690346714270E+10,      /* J =  1 */
(PID.TID 0000.0001)                 2.390126200743558E+10,      /* J =  2 */
(PID.TID 0000.0001)                 3.341968103208270E+10,      /* J =  3 */
(PID.TID 0000.0001)                 4.168532893152940E+10,      /* J =  4 */
(PID.TID 0000.0001)                 4.909074590409593E+10,      /* J =  5 */
(PID.TID 0000.0001)                 5.581203765722643E+10,      /* J =  6 */
(PID.TID 0000.0001)                 6.193257577506788E+10,      /* J =  7 */
(PID.TID 0000.0001)                 6.748840226738273E+10,      /* J =  8 */
(PID.TID 0000.0001)                 7.248875782324815E+10,      /* J =  9 */
(PID.TID 0000.0001)                 7.692702995909871E+10,      /* J = 10 */
(PID.TID 0000.0001)                 8.078743937057304E+10,      /* J = 11 */
(PID.TID 0000.0001)                 8.404959656062837E+10,      /* J = 12 */
(PID.TID 0000.0001)                 8.669186205742538E+10,      /* J = 13 */
(PID.TID 0000.0001)                 8.869393350723613E+10,      /* J = 14 */
(PID.TID 0000.0001)                 9.003884657168852E+10,      /* J = 15 */
(PID.TID 0000.0001)     2 @  9.071447638299399E+10,             /* J = 16: 17 */
(PID.TID 0000.0001)                 9.003884657168852E+10,      /* J = 18 */
(PID.TID 0000.0001)                 8.869393350723613E+10,      /* J = 19 */
(PID.TID 0000.0001)                 8.669186205742538E+10,      /* J = 20 */
(PID.TID 0000.0001)                 8.404959656062837E+10,      /* J = 21 */
(PID.TID 0000.0001)                 8.078743937057304E+10,      /* J = 22 */
(PID.TID 0000.0001)                 7.692702995909871E+10,      /* J = 23 */
(PID.TID 0000.0001)                 7.248875782324815E+10,      /* J = 24 */
(PID.TID 0000.0001)                 6.748840226738273E+10,      /* J = 25 */
(PID.TID 0000.0001)                 6.193257577506788E+10,      /* J = 26 */
(PID.TID 0000.0001)                 5.581203765722643E+10,      /* J = 27 */
(PID.TID 0000.0001)                 4.909074590409593E+10,      /* J = 28 */
(PID.TID 0000.0001)                 4.168532893152940E+10,      /* J = 29 */
(PID.TID 0000.0001)                 3.341968103208270E+10,      /* J = 30 */
(PID.TID 0000.0001)                 2.390126200743558E+10,      /* J = 31 */
(PID.TID 0000.0001)                 1.216690346714270E+10       /* J = 32 */
(PID.TID 0000.0001)     ;
(PID.TID 0000.0001) rAs =  /* rAs(:,1,:,1) ( units: m^2 ) */
(PID.TID 0000.0001)                 1.216690346714270E+10,      /* I =  1 */
(PID.TID 0000.0001)                 2.390126200743558E+10,      /* I =  2 */
(PID.TID 0000.0001)                 3.341968103208270E+10,      /* I =  3 */
(PID.TID 0000.0001)      . . .
(PID.TID 0000.0001)                 8.869393350723613E+10,      /* I = 46 */
(PID.TID 0000.0001)                 9.003884657168852E+10,      /* I = 47 */
(PID.TID 0000.0001)                 9.071447638299399E+10,      /* I = 48 */
(PID.TID 0000.0001)                 9.071447638299399E+10,      /* I = 49 */
(PID.TID 0000.0001)                 9.003884657168852E+10,      /* I = 50 */
(PID.TID 0000.0001)                 8.869393350723613E+10,      /* I = 51 */
(PID.TID 0000.0001)      . . .
(PID.TID 0000.0001)                 3.341968103208270E+10,      /* I = 94 */
(PID.TID 0000.0001)                 2.390126200743558E+10,      /* I = 95 */
(PID.TID 0000.0001)                 1.216690346714270E+10,      /* I = 96 */
(PID.TID 0000.0001)                 1.216690346714270E+10,      /* I = 97 */
(PID.TID 0000.0001)                 2.390126200743558E+10,      /* I = 98 */
(PID.TID 0000.0001)                 3.341968103208270E+10,      /* I = 99 */
(PID.TID 0000.0001)      . . .
(PID.TID 0000.0001)                 8.869393350723613E+10,      /* I =142 */
(PID.TID 0000.0001)                 9.003884657168852E+10,      /* I =143 */
(PID.TID 0000.0001)                 9.071447638299399E+10,      /* I =144 */
(PID.TID 0000.0001)                 9.071447638299399E+10,      /* I =145 */
(PID.TID 0000.0001)                 9.003884657168852E+10,      /* I =146 */
(PID.TID 0000.0001)                 8.869393350723613E+10,      /* I =147 */
(PID.TID 0000.0001)      . . .
(PID.TID 0000.0001)                 3.341968103208270E+10,      /* I =190 */
(PID.TID 0000.0001)                 2.390126200743558E+10,      /* I =191 */
(PID.TID 0000.0001)                 1.216690346714270E+10       /* I =192 */
(PID.TID 0000.0001)     ;
(PID.TID 0000.0001) rAs =  /* rAs(1,:,1,:) ( units: m^2 ) */
(PID.TID 0000.0001)                 1.216690346714270E+10,      /* J =  1 */
(PID.TID 0000.0001)                 1.974052138506315E+10,      /* J =  2 */
(PID.TID 0000.0001)                 2.943712825252015E+10,      /* J =  3 */
(PID.TID 0000.0001)                 3.801790263324359E+10,      /* J =  4 */
(PID.TID 0000.0001)                 4.571243814189866E+10,      /* J =  5 */
(PID.TID 0000.0001)                 5.269930713599979E+10,      /* J =  6 */
(PID.TID 0000.0001)                 5.907428494299063E+10,      /* J =  7 */
(PID.TID 0000.0001)                 6.488320895111514E+10,      /* J =  8 */
(PID.TID 0000.0001)                 7.014205907741882E+10,      /* J =  9 */
(PID.TID 0000.0001)                 7.484854821847499E+10,      /* J = 10 */
(PID.TID 0000.0001)                 7.898934631431560E+10,      /* J = 11 */
(PID.TID 0000.0001)                 8.254500894894537E+10,      /* J = 12 */
(PID.TID 0000.0001)                 8.549360686473492E+10,      /* J = 13 */
(PID.TID 0000.0001)                 8.781353403175085E+10,      /* J = 14 */
(PID.TID 0000.0001)                 8.948571540392021E+10,      /* J = 15 */
(PID.TID 0000.0001)                 9.049530583086168E+10,      /* J = 16 */
(PID.TID 0000.0001)                 9.083293515008307E+10,      /* J = 17 */
(PID.TID 0000.0001)                 9.049530583087070E+10,      /* J = 18 */
(PID.TID 0000.0001)                 8.948571540391121E+10,      /* J = 19 */
(PID.TID 0000.0001)                 8.781353403174185E+10,      /* J = 20 */
(PID.TID 0000.0001)                 8.549360686467184E+10,      /* J = 21 */
(PID.TID 0000.0001)                 8.254500894890933E+10,      /* J = 22 */
(PID.TID 0000.0001)                 7.898934631434262E+10,      /* J = 23 */
(PID.TID 0000.0001)                 7.484854821844795E+10,      /* J = 24 */
(PID.TID 0000.0001)                 7.014205907742783E+10,      /* J = 25 */
(PID.TID 0000.0001)                 6.488320895111514E+10,      /* J = 26 */
(PID.TID 0000.0001)                 5.907428494299063E+10,      /* J = 27 */
(PID.TID 0000.0001)                 5.269930713599078E+10,      /* J = 28 */
(PID.TID 0000.0001)                 4.571243814190767E+10,      /* J = 29 */
(PID.TID 0000.0001)                 3.801790263325260E+10,      /* J = 30 */
(PID.TID 0000.0001)                 2.943712825251114E+10,      /* J = 31 */
(PID.TID 0000.0001)                 1.974052138509018E+10       /* J = 32 */
(PID.TID 0000.0001)     ;
(PID.TID 0000.0001) globalArea = /* Integrated horizontal Area (m^2) */
(PID.TID 0000.0001)                 5.099043637817220E+14
(PID.TID 0000.0001)     ;
(PID.TID 0000.0001) hasWetCSCorners = /* Domain contains CS corners (True/False) */
(PID.TID 0000.0001)                   T
(PID.TID 0000.0001)     ;
(PID.TID 0000.0001) // =======================================================
(PID.TID 0000.0001) // End of Model config. summary
(PID.TID 0000.0001) // =======================================================
(PID.TID 0000.0001) 
(PID.TID 0000.0001) == Packages configuration : Check & print summary ==
(PID.TID 0000.0001) 
(PID.TID 0000.0001) GAD_CHECK: #define ALLOW_GENERIC_ADVDIFF
(PID.TID 0000.0001) // =======================================================
(PID.TID 0000.0001) // Check Model config. (CONFIG_CHECK):
(PID.TID 0000.0001) // CONFIG_CHECK : Normal End
(PID.TID 0000.0001) // =======================================================
(PID.TID 0000.0001) 
(PID.TID 0000.0001)  MDS_READ_META: opening file: pickup.0000276480.meta
(PID.TID 0000.0001)  nRecords = 163 ; filePrec =  64 ; fileIter =    276480
(PID.TID 0000.0001)     nDims =   2 , dims:
(PID.TID 0000.0001)    1: 192   1 192
(PID.TID 0000.0001)    2:  32   1  32
(PID.TID 0000.0001)     nFlds =  11 , nFl3D =   8 , fields:
(PID.TID 0000.0001)  >Uvel    < >GuNm1   < >Vvel    < >GvNm1   < >Theta   < >GtNm1   < >Salt    < >GsNm1   < >EtaN    < >dEtaHdt < >EtaH    <
(PID.TID 0000.0001) missingVal=  1.00000000000000E+00 ; nTimRec =   0 , timeList:
(PID.TID 0000.0001) READ_MFLDS_3D_RL: read field: "Uvel    ", #   1 in fldList, rec=   1
(PID.TID 0000.0001)  MDS_READ_FIELD: opening global file: pickup.0000276480
(PID.TID 0000.0001) READ_MFLDS_3D_RL: read field: "Vvel    ", #   3 in fldList, rec=   3
(PID.TID 0000.0001)  MDS_READ_FIELD: opening global file: pickup.0000276480
(PID.TID 0000.0001) READ_MFLDS_3D_RL: read field: "Theta   ", #   5 in fldList, rec=   5
(PID.TID 0000.0001)  MDS_READ_FIELD: opening global file: pickup.0000276480
(PID.TID 0000.0001) READ_MFLDS_3D_RL: read field: "Salt    ", #   7 in fldList, rec=   7
(PID.TID 0000.0001)  MDS_READ_FIELD: opening global file: pickup.0000276480
(PID.TID 0000.0001) READ_MFLDS_3D_RL: read field: "GuNm1   ", #   2 in fldList, rec=   2
(PID.TID 0000.0001)  MDS_READ_FIELD: opening global file: pickup.0000276480
(PID.TID 0000.0001) READ_MFLDS_3D_RL: read field: "GvNm1   ", #   4 in fldList, rec=   4
(PID.TID 0000.0001)  MDS_READ_FIELD: opening global file: pickup.0000276480
(PID.TID 0000.0001) READ_MFLDS_3D_RL: read field: "GtNm1   ", #   6 in fldList, rec=   6
(PID.TID 0000.0001)  MDS_READ_FIELD: opening global file: pickup.0000276480
(PID.TID 0000.0001) READ_MFLDS_3D_RL: read field: "EtaN    ", #   9 in fldList, rec= 161
(PID.TID 0000.0001)  MDS_READ_FIELD: opening global file: pickup.0000276480
(PID.TID 0000.0001) READ_MFLDS_3D_RL: read field: "dEtaHdt ", #  10 in fldList, rec= 162
(PID.TID 0000.0001)  MDS_READ_FIELD: opening global file: pickup.0000276480
(PID.TID 0000.0001) READ_MFLDS_3D_RL: read field: "EtaH    ", #  11 in fldList, rec= 163
(PID.TID 0000.0001)  MDS_READ_FIELD: opening global file: pickup.0000276480
(PID.TID 0000.0001) READ_MFLDS_CHECK: - normal end ; reset MFLDS file-name: pickup.0000276480
(PID.TID 0000.0001)  write diagnostics summary to file ioUnit:      6
Iter.Nb:    276480 ; Time(s):  1.2441600000000E+08
------------------------------------------------------------------------
2D/3D diagnostics: Number of lists:     3
------------------------------------------------------------------------
listId=    1 ; file name: surfDiag
 nFlds, nActive,       freq     &     phase        , nLev               
    3  |    3  |     86400.000000         0.000000 |   1
 levels:   1
 diag# | name   |   ipt  |  iMate | kLev|   count |   mate.C|           
    23 |ETAN    |      1 |      0 |   1 |       0 |
    24 |ETANSQ  |      2 |      0 |   1 |       0 |
    25 |DETADT2 |      3 |      0 |   1 |       0 |
------------------------------------------------------------------------
listId=    2 ; file name: dynDiag
 nFlds, nActive,       freq     &     phase        , nLev               
    5  |    5  |     86400.000000         0.000000 |  20
 levels:   1   2   3   4   5   6   7   8   9  10  11  12  13  14  15  16  17  18  19  20
 diag# | name   |   ipt  |  iMate | kLev|   count |   mate.C|           
    29 |UVEL    |      4 |     24 |  20 |       0 |       0 |
    30 |VVEL    |     24 |      4 |  20 |       0 |       0 |
    31 |WVEL    |     44 |      0 |  20 |       0 |
    26 |THETA   |     64 |      0 |  20 |       0 |
   194 |SHAP_dU |     84 |      0 |  20 |       0 |
------------------------------------------------------------------------
listId=    3 ; file name: secmomDiag
 nFlds, nActive,       freq     &     phase        , nLev               
    8  |    8  |     86400.000000         0.000000 |  20
 levels:   1   2   3   4   5   6   7   8   9  10  11  12  13  14  15  16  17  18  19  20
 diag# | name   |   ipt  |  iMate | kLev|   count |   mate.C|           
    34 |UVELSQ  |    104 |    124 |  20 |       0 |       0 |
    35 |VVELSQ  |    124 |    104 |  20 |       0 |       0 |
    36 |WVELSQ  |    144 |      0 |  20 |       0 |
    32 |THETASQ |    164 |      0 |  20 |       0 |
    48 |UTHMASS |    184 |    204 |  20 |       0 |       0 |
    49 |VTHMASS |    204 |    184 |  20 |       0 |       0 |
    56 |WVELTH  |    224 |      0 |  20 |       0 |
    39 |UV_VEL_C|    244 |    244 |  20 |       0 |       0 |
------------------------------------------------------------------------
Global & Regional Statistics diagnostics: Number of lists:     1
------------------------------------------------------------------------
listId=   1 ; file name: dynStDiag
 nFlds, nActive,       freq     &     phase        |                    
    5  |    5  |     -3600.000000      1800.000000 |
 Regions:   0
 diag# | name   |   ipt  |  iMate |    Volume   |   mate-Vol. |         
    23 |ETAN    |      1 |      0 | 0.00000E+00 |
    29 |UVEL    |      2 |      0 | 0.00000E+00 |
    30 |VVEL    |     22 |      0 | 0.00000E+00 |
    31 |WVEL    |     42 |      0 | 0.00000E+00 |
    26 |THETA   |     62 |      0 | 0.00000E+00 |
------------------------------------------------------------------------
(PID.TID 0000.0001) // =======================================================
(PID.TID 0000.0001) // Model current state
(PID.TID 0000.0001) // =======================================================
(PID.TID 0000.0001) 
(PID.TID 0000.0001) // =======================================================
(PID.TID 0000.0001) // Begin MONITOR dynamic field statistics
(PID.TID 0000.0001) // =======================================================
(PID.TID 0000.0001) %MON time_tsnumber                =                276480
(PID.TID 0000.0001) %MON time_secondsf                =   1.2441600000000E+08
(PID.TID 0000.0001) %MON dynstat_eta_max              =   2.5686020507311E+03
(PID.TID 0000.0001) %MON dynstat_eta_min              =  -3.5034391132246E+03
(PID.TID 0000.0001) %MON dynstat_eta_mean             =  -2.1849430582181E-13
(PID.TID 0000.0001) %MON dynstat_eta_sd               =   8.2461825997798E+02
(PID.TID 0000.0001) %MON dynstat_eta_del2             =   2.1045304853833E+00
(PID.TID 0000.0001) %MON dynstat_uvel_max             =   6.7214548915456E+01
(PID.TID 0000.0001) %MON dynstat_uvel_min             =  -6.6409813499555E+01
(PID.TID 0000.0001) %MON dynstat_uvel_mean            =   2.0486719779662E+00
(PID.TID 0000.0001) %MON dynstat_uvel_sd              =   1.1160413327161E+01
(PID.TID 0000.0001) %MON dynstat_uvel_del2            =   1.0721825714291E-02
(PID.TID 0000.0001) %MON dynstat_vvel_max             =   7.1882586801982E+01
(PID.TID 0000.0001) %MON dynstat_vvel_min             =  -6.8638934014956E+01
(PID.TID 0000.0001) %MON dynstat_vvel_mean            =   2.0133330339157E+00
(PID.TID 0000.0001) %MON dynstat_vvel_sd              =   1.1670343153922E+01
(PID.TID 0000.0001) %MON dynstat_vvel_del2            =   1.1019864708904E-02
(PID.TID 0000.0001) %MON dynstat_wvel_max             =   8.3338352054040E-01
(PID.TID 0000.0001) %MON dynstat_wvel_min             =  -6.6411583834321E-01
(PID.TID 0000.0001) %MON dynstat_wvel_mean            =  -3.3792158794203E-18
(PID.TID 0000.0001) %MON dynstat_wvel_sd              =   6.6034456847098E-02
(PID.TID 0000.0001) %MON dynstat_wvel_del2            =   2.0685428137883E-04
(PID.TID 0000.0001) %MON dynstat_theta_max            =   5.9603304952318E+02
(PID.TID 0000.0001) %MON dynstat_theta_min            =   2.6185719063325E+02
(PID.TID 0000.0001) %MON dynstat_theta_mean           =   3.2766072081677E+02
(PID.TID 0000.0001) %MON dynstat_theta_sd             =   6.3757555232907E+01
(PID.TID 0000.0001) %MON dynstat_theta_del2           =   5.1653976615491E-03
(PID.TID 0000.0001) %MON dynstat_salt_max             =   0.0000000000000E+00
(PID.TID 0000.0001) %MON dynstat_salt_min             =   0.0000000000000E+00
(PID.TID 0000.0001) %MON dynstat_salt_mean            =   0.0000000000000E+00
(PID.TID 0000.0001) %MON dynstat_salt_sd              =   0.0000000000000E+00
(PID.TID 0000.0001) %MON dynstat_salt_del2            =   0.0000000000000E+00
(PID.TID 0000.0001) %MON trAdv_CFL_u_max              =   0.0000000000000E+00
(PID.TID 0000.0001) %MON trAdv_CFL_v_max              =   0.0000000000000E+00
(PID.TID 0000.0001) %MON trAdv_CFL_w_max              =   0.0000000000000E+00
(PID.TID 0000.0001) %MON advcfl_uvel_max              =   2.6821335333544E-01
(PID.TID 0000.0001) %MON advcfl_vvel_max              =   2.2671784577986E-01
(PID.TID 0000.0001) %MON advcfl_wvel_max              =   7.5004516848636E-02
(PID.TID 0000.0001) %MON advcfl_W_hf_max              =   7.4169071807869E-02
(PID.TID 0000.0001) %MON am_eta_mean                  =  -2.9342977460864E+09
(PID.TID 0000.0001) %MON am_uZo_mean                  =   2.8068221138068E+11
(PID.TID 0000.0001) %MON am_tot_mean                  =   2.7774791363460E+11
(PID.TID 0000.0001) %MON pe_b_mean                    =   2.8791077644082E+00
(PID.TID 0000.0001) %MON ke_max                       =   3.2602670775050E+03
(PID.TID 0000.0001) %MON ke_mean                      =   1.3446589237618E+02
(PID.TID 0000.0001) %MON ke_vol                       =   5.0990436378173E+19
(PID.TID 0000.0001) %MON vort_r_min                   =  -1.7768497633397E-04
(PID.TID 0000.0001) %MON vort_r_max                   =   2.2145611811367E-04
(PID.TID 0000.0001) %MON vort_a_mean                  =  -3.1867617259207E-20
(PID.TID 0000.0001) %MON vort_a_sd                    =   8.8620239601413E-05
(PID.TID 0000.0001) %MON vort_p_mean                  =  -2.9416243551483E-20
(PID.TID 0000.0001) %MON vort_p_sd                    =   8.8695764907692E-05
(PID.TID 0000.0001) %MON surfExpan_theta_mean         =  -1.6723049831638E-03
(PID.TID 0000.0001) %MON surfExpan_salt_mean          =   0.0000000000000E+00
(PID.TID 0000.0001) %MON surfExpan_Heat_mean          =  -2.1332029750089E-01
(PID.TID 0000.0001) %MON En_Budget_T2PE_mean          =   1.1463630872654E+00
(PID.TID 0000.0001) // =======================================================
(PID.TID 0000.0001) // End MONITOR dynamic field statistics
(PID.TID 0000.0001) // =======================================================
(PID.TID 0000.0001) SOLVE_FOR_PRESSURE: putPmEinXvector =    F
 cg2d: Sum(rhs),rhsMax =   3.49245965480804E-09  1.59775201135660E+04
(PID.TID 0000.0001)      cg2d_init_res =   1.75956829843616E+03
(PID.TID 0000.0001)      cg2d_iters(min,last) =      -1      16
(PID.TID 0000.0001)      cg2d_last_res =   4.58207194232495E-11
(PID.TID 0000.0001) // =======================================================
(PID.TID 0000.0001) // Begin MONITOR dynamic field statistics
(PID.TID 0000.0001) // =======================================================
(PID.TID 0000.0001) %MON time_tsnumber                =                276481
(PID.TID 0000.0001) %MON time_secondsf                =   1.2441645000000E+08
(PID.TID 0000.0001) %MON dynstat_eta_max              =   2.5597845845814E+03
(PID.TID 0000.0001) %MON dynstat_eta_min              =  -3.4939394368679E+03
(PID.TID 0000.0001) %MON dynstat_eta_mean             =  -1.6708388092256E-13
(PID.TID 0000.0001) %MON dynstat_eta_sd               =   8.2302103368203E+02
(PID.TID 0000.0001) %MON dynstat_eta_del2             =   2.0848906024990E+00
(PID.TID 0000.0001) %MON dynstat_uvel_max             =   6.7213189559832E+01
(PID.TID 0000.0001) %MON dynstat_uvel_min             =  -6.6466314575841E+01
(PID.TID 0000.0001) %MON dynstat_uvel_mean            =   2.0482112152878E+00
(PID.TID 0000.0001) %MON dynstat_uvel_sd              =   1.1159135521238E+01
(PID.TID 0000.0001) %MON dynstat_uvel_del2            =   1.0721252914983E-02
(PID.TID 0000.0001) %MON dynstat_vvel_max             =   7.1908862714522E+01
(PID.TID 0000.0001) %MON dynstat_vvel_min             =  -6.8639094827810E+01
(PID.TID 0000.0001) %MON dynstat_vvel_mean            =   2.0122478833167E+00
(PID.TID 0000.0001) %MON dynstat_vvel_sd              =   1.1668699647452E+01
(PID.TID 0000.0001) %MON dynstat_vvel_del2            =   1.1017027456424E-02
(PID.TID 0000.0001) %MON dynstat_wvel_max             =   8.2394353142281E-01
(PID.TID 0000.0001) %MON dynstat_wvel_min             =  -6.5576433650088E-01
(PID.TID 0000.0001) %MON dynstat_wvel_mean            =   1.2068628140787E-17
(PID.TID 0000.0001) %MON dynstat_wvel_sd              =   6.5534529222795E-02
(PID.TID 0000.0001) %MON dynstat_wvel_del2            =   2.0602523810001E-04
(PID.TID 0000.0001) %MON dynstat_theta_max            =   5.9603047092135E+02
(PID.TID 0000.0001) %MON dynstat_theta_min            =   2.6186139014729E+02
(PID.TID 0000.0001) %MON dynstat_theta_mean           =   3.2766044326158E+02
(PID.TID 0000.0001) %MON dynstat_theta_sd             =   6.3757608643319E+01
(PID.TID 0000.0001) %MON dynstat_theta_del2           =   5.1661173661045E-03
(PID.TID 0000.0001) %MON dynstat_salt_max             =   0.0000000000000E+00
(PID.TID 0000.0001) %MON dynstat_salt_min             =   0.0000000000000E+00
(PID.TID 0000.0001) %MON dynstat_salt_mean            =   0.0000000000000E+00
(PID.TID 0000.0001) %MON dynstat_salt_sd              =   0.0000000000000E+00
(PID.TID 0000.0001) %MON dynstat_salt_del2            =   0.0000000000000E+00
(PID.TID 0000.0001) %MON trAdv_CFL_u_max              =   2.9316619048753E-01
(PID.TID 0000.0001) %MON trAdv_CFL_v_max              =   3.0913720621363E-01
(PID.TID 0000.0001) %MON trAdv_CFL_w_max              =   7.3328810522297E-02
(PID.TID 0000.0001) %MON advcfl_uvel_max              =   2.6844154766907E-01
(PID.TID 0000.0001) %MON advcfl_vvel_max              =   2.2658765997300E-01
(PID.TID 0000.0001) %MON advcfl_wvel_max              =   7.4154917828053E-02
(PID.TID 0000.0001) %MON advcfl_W_hf_max              =   7.3328810522297E-02
(PID.TID 0000.0001) %MON am_eta_mean                  =  -2.9374377934707E+09
(PID.TID 0000.0001) %MON am_uZo_mean                  =   2.8067871393774E+11
(PID.TID 0000.0001) %MON am_tot_mean                  =   2.7774127614427E+11
(PID.TID 0000.0001) %MON pe_b_mean                    =   2.8679653163513E+00
(PID.TID 0000.0001) %MON ke_max                       =   3.2595698330289E+03
(PID.TID 0000.0001) %MON ke_mean                      =   1.3442931515924E+02
(PID.TID 0000.0001) %MON ke_vol                       =   5.0990436378172E+19
(PID.TID 0000.0001) %MON vort_r_min                   =  -1.7792933767211E-04
(PID.TID 0000.0001) %MON vort_r_max                   =   2.2151972986085E-04
(PID.TID 0000.0001) %MON vort_a_mean                  =   6.1283879344628E-20
(PID.TID 0000.0001) %MON vort_a_sd                    =   8.8618432802437E-05
(PID.TID 0000.0001) %MON vort_p_mean                  =   5.8832487099273E-20
(PID.TID 0000.0001) %MON vort_p_sd                    =   8.8693885783139E-05
(PID.TID 0000.0001) %MON surfExpan_theta_mean         =   1.5798065647713E-04
(PID.TID 0000.0001) %MON surfExpan_salt_mean          =   0.0000000000000E+00
(PID.TID 0000.0001) %MON surfExpan_Heat_mean          =  -8.8318361280271E-02
(PID.TID 0000.0001) %MON En_Budget_T2PE_mean          =   1.0517449701690E+00
(PID.TID 0000.0001) // =======================================================
(PID.TID 0000.0001) // End MONITOR dynamic field statistics
(PID.TID 0000.0001) // =======================================================
 cg2d: Sum(rhs),rhsMax =   5.58793544769287E-09  1.58944200122148E+04
(PID.TID 0000.0001)      cg2d_init_res =   1.98604224681596E+03
(PID.TID 0000.0001)      cg2d_iters(min,last) =      -1      16
(PID.TID 0000.0001)      cg2d_last_res =   5.19547959549411E-11
(PID.TID 0000.0001) // =======================================================
(PID.TID 0000.0001) // Begin MONITOR dynamic field statistics
(PID.TID 0000.0001) // =======================================================
(PID.TID 0000.0001) %MON time_tsnumber                =                276482
(PID.TID 0000.0001) %MON time_secondsf                =   1.2441690000000E+08
(PID.TID 0000.0001) %MON dynstat_eta_max              =   2.5476642308447E+03
(PID.TID 0000.0001) %MON dynstat_eta_min              =  -3.4770900477964E+03
(PID.TID 0000.0001) %MON dynstat_eta_mean             =  -2.8918364005828E-13
(PID.TID 0000.0001) %MON dynstat_eta_sd               =   8.2042507248139E+02
(PID.TID 0000.0001) %MON dynstat_eta_del2             =   2.0590042472458E+00
(PID.TID 0000.0001) %MON dynstat_uvel_max             =   6.7208795253020E+01
(PID.TID 0000.0001) %MON dynstat_uvel_min             =  -6.6521641927417E+01
(PID.TID 0000.0001) %MON dynstat_uvel_mean            =   2.0477920915857E+00
(PID.TID 0000.0001) %MON dynstat_uvel_sd              =   1.1158132733784E+01
(PID.TID 0000.0001) %MON dynstat_uvel_del2            =   1.0720628320335E-02
(PID.TID 0000.0001) %MON dynstat_vvel_max             =   7.1938450687271E+01
(PID.TID 0000.0001) %MON dynstat_vvel_min             =  -6.8642433724859E+01
(PID.TID 0000.0001) %MON dynstat_vvel_mean            =   2.0112357270521E+00
(PID.TID 0000.0001) %MON dynstat_vvel_sd              =   1.1667346104063E+01
(PID.TID 0000.0001) %MON dynstat_vvel_del2            =   1.1014317692902E-02
(PID.TID 0000.0001) %MON dynstat_wvel_max             =   8.1390681297548E-01
(PID.TID 0000.0001) %MON dynstat_wvel_min             =  -6.6780009505372E-01
(PID.TID 0000.0001) %MON dynstat_wvel_mean            =   5.5515689447620E-18
(PID.TID 0000.0001) %MON dynstat_wvel_sd              =   6.5120773111998E-02
(PID.TID 0000.0001) %MON dynstat_wvel_del2            =   2.0583541516667E-04
(PID.TID 0000.0001) %MON dynstat_theta_max            =   5.9603109598008E+02
(PID.TID 0000.0001) %MON dynstat_theta_min            =   2.6186636717834E+02
(PID.TID 0000.0001) %MON dynstat_theta_mean           =   3.2766018135267E+02
(PID.TID 0000.0001) %MON dynstat_theta_sd             =   6.3757653466893E+01
(PID.TID 0000.0001) %MON dynstat_theta_del2           =   5.1664441439518E-03
(PID.TID 0000.0001) %MON dynstat_salt_max             =   0.0000000000000E+00
(PID.TID 0000.0001) %MON dynstat_salt_min             =   0.0000000000000E+00
(PID.TID 0000.0001) %MON dynstat_salt_mean            =   0.0000000000000E+00
(PID.TID 0000.0001) %MON dynstat_salt_sd              =   0.0000000000000E+00
(PID.TID 0000.0001) %MON dynstat_salt_del2            =   0.0000000000000E+00
(PID.TID 0000.0001) %MON trAdv_CFL_u_max              =   2.9320418191769E-01
(PID.TID 0000.0001) %MON trAdv_CFL_v_max              =   3.0916439912781E-01
(PID.TID 0000.0001) %MON trAdv_CFL_w_max              =   7.2436647579648E-02
(PID.TID 0000.0001) %MON advcfl_uvel_max              =   2.6866500160932E-01
(PID.TID 0000.0001) %MON advcfl_vvel_max              =   2.2652448812509E-01
(PID.TID 0000.0001) %MON advcfl_wvel_max              =   7.3251613167794E-02
(PID.TID 0000.0001) %MON advcfl_W_hf_max              =   7.2436647579648E-02
(PID.TID 0000.0001) %MON am_eta_mean                  =  -2.9402103954415E+09
(PID.TID 0000.0001) %MON am_uZo_mean                  =   2.8067482671367E+11
(PID.TID 0000.0001) %MON am_tot_mean                  =   2.7773461631823E+11
(PID.TID 0000.0001) %MON pe_b_mean                    =   2.8499016588610E+00
(PID.TID 0000.0001) %MON ke_max                       =   3.2582687343779E+03
(PID.TID 0000.0001) %MON ke_mean                      =   1.3439942618221E+02
(PID.TID 0000.0001) %MON ke_vol                       =   5.0990436378172E+19
(PID.TID 0000.0001) %MON vort_r_min                   =  -1.7812864835885E-04
(PID.TID 0000.0001) %MON vort_r_max                   =   2.2156201194222E-04
(PID.TID 0000.0001) %MON vort_a_mean                  =  -9.8054206951405E-21
(PID.TID 0000.0001) %MON vort_a_sd                    =   8.8616677693075E-05
(PID.TID 0000.0001) %MON vort_p_mean                  =  -9.8054145448311E-21
(PID.TID 0000.0001) %MON vort_p_sd                    =   8.8691873835046E-05
(PID.TID 0000.0001) %MON surfExpan_theta_mean         =   1.4969871253227E-03
(PID.TID 0000.0001) %MON surfExpan_salt_mean          =   0.0000000000000E+00
(PID.TID 0000.0001) %MON surfExpan_Heat_mean          =  -8.0222790418584E-03
(PID.TID 0000.0001) %MON En_Budget_T2PE_mean          =   9.5518491827962E-01
(PID.TID 0000.0001) // =======================================================
(PID.TID 0000.0001) // End MONITOR dynamic field statistics
(PID.TID 0000.0001) // =======================================================
 cg2d: Sum(rhs),rhsMax =   5.58793544769287E-09  1.57936661363820E+04
(PID.TID 0000.0001)      cg2d_init_res =   2.13806934622534E+03
(PID.TID 0000.0001)      cg2d_iters(min,last) =      -1      16
(PID.TID 0000.0001)      cg2d_last_res =   5.32674358044652E-11
(PID.TID 0000.0001) // =======================================================
(PID.TID 0000.0001) // Begin MONITOR dynamic field statistics
(PID.TID 0000.0001) // =======================================================
(PID.TID 0000.0001) %MON time_tsnumber                =                276483
(PID.TID 0000.0001) %MON time_secondsf                =   1.2441735000000E+08
(PID.TID 0000.0001) %MON dynstat_eta_max              =   2.5340944310496E+03
(PID.TID 0000.0001) %MON dynstat_eta_min              =  -3.4560011423213E+03
(PID.TID 0000.0001) %MON dynstat_eta_mean             =  -1.6065757781016E-13
(PID.TID 0000.0001) %MON dynstat_eta_sd               =   8.1706323031894E+02
(PID.TID 0000.0001) %MON dynstat_eta_del2             =   2.0353925940686E+00
(PID.TID 0000.0001) %MON dynstat_uvel_max             =   6.7198811181336E+01
(PID.TID 0000.0001) %MON dynstat_uvel_min             =  -6.6579555918939E+01
(PID.TID 0000.0001) %MON dynstat_uvel_mean            =   2.0473708217563E+00
(PID.TID 0000.0001) %MON dynstat_uvel_sd              =   1.1157268235702E+01
(PID.TID 0000.0001) %MON dynstat_uvel_del2            =   1.0719821632106E-02
(PID.TID 0000.0001) %MON dynstat_vvel_max             =   7.1973141103587E+01
(PID.TID 0000.0001) %MON dynstat_vvel_min             =  -6.8647724747075E+01
(PID.TID 0000.0001) %MON dynstat_vvel_mean            =   2.0102749909592E+00
(PID.TID 0000.0001) %MON dynstat_vvel_sd              =   1.1666136529389E+01
(PID.TID 0000.0001) %MON dynstat_vvel_del2            =   1.1011454275565E-02
(PID.TID 0000.0001) %MON dynstat_wvel_max             =   8.0603981357430E-01
(PID.TID 0000.0001) %MON dynstat_wvel_min             =  -6.7305865839239E-01
(PID.TID 0000.0001) %MON dynstat_wvel_mean            =   5.0688238191305E-18
(PID.TID 0000.0001) %MON dynstat_wvel_sd              =   6.4787808287849E-02
(PID.TID 0000.0001) %MON dynstat_wvel_del2            =   2.0562719057777E-04
(PID.TID 0000.0001) %MON dynstat_theta_max            =   5.9603592864567E+02
(PID.TID 0000.0001) %MON dynstat_theta_min            =   2.6187207837074E+02
(PID.TID 0000.0001) %MON dynstat_theta_mean           =   3.2765992370015E+02
(PID.TID 0000.0001) %MON dynstat_theta_sd             =   6.3757697260459E+01
(PID.TID 0000.0001) %MON dynstat_theta_del2           =   5.1674057329679E-03
(PID.TID 0000.0001) %MON dynstat_salt_max             =   0.0000000000000E+00
(PID.TID 0000.0001) %MON dynstat_salt_min             =   0.0000000000000E+00
(PID.TID 0000.0001) %MON dynstat_salt_mean            =   0.0000000000000E+00
(PID.TID 0000.0001) %MON dynstat_salt_sd              =   0.0000000000000E+00
(PID.TID 0000.0001) %MON dynstat_salt_del2            =   0.0000000000000E+00
(PID.TID 0000.0001) %MON trAdv_CFL_u_max              =   2.9325433504052E-01
(PID.TID 0000.0001) %MON trAdv_CFL_v_max              =   3.0919623660830E-01
(PID.TID 0000.0001) %MON trAdv_CFL_w_max              =   7.1904311376773E-02
(PID.TID 0000.0001) %MON advcfl_uvel_max              =   2.6889890236965E-01
(PID.TID 0000.0001) %MON advcfl_vvel_max              =   2.2647001350790E-01
(PID.TID 0000.0001) %MON advcfl_wvel_max              =   7.2543583221687E-02
(PID.TID 0000.0001) %MON advcfl_W_hf_max              =   7.1904311376773E-02
(PID.TID 0000.0001) %MON am_eta_mean                  =  -2.9425314486827E+09
(PID.TID 0000.0001) %MON am_uZo_mean                  =   2.8067048181975E+11
(PID.TID 0000.0001) %MON am_tot_mean                  =   2.7772795037107E+11
(PID.TID 0000.0001) %MON pe_b_mean                    =   2.8265935224109E+00
(PID.TID 0000.0001) %MON ke_max                       =   3.2562318603307E+03
(PID.TID 0000.0001) %MON ke_mean                      =   1.3437286327110E+02
(PID.TID 0000.0001) %MON ke_vol                       =   5.0990436378172E+19
(PID.TID 0000.0001) %MON vort_r_min                   =  -1.7828483210179E-04
(PID.TID 0000.0001) %MON vort_r_max                   =   2.2158152216107E-04
(PID.TID 0000.0001) %MON vort_a_mean                  =   1.8875434838145E-19
(PID.TID 0000.0001) %MON vort_a_sd                    =   8.8614897483014E-05
(PID.TID 0000.0001) %MON vort_p_mean                  =   1.8630287727244E-19
(PID.TID 0000.0001) %MON vort_p_sd                    =   8.8689687214915E-05
(PID.TID 0000.0001) %MON surfExpan_theta_mean         =   2.2392042087083E-03
(PID.TID 0000.0001) %MON surfExpan_salt_mean          =   0.0000000000000E+00
(PID.TID 0000.0001) %MON surfExpan_Heat_mean          =   2.0040941957201E-02
(PID.TID 0000.0001) %MON En_Budget_T2PE_mean          =   8.5839895550167E-01
(PID.TID 0000.0001) // =======================================================
(PID.TID 0000.0001) // End MONITOR dynamic field statistics
(PID.TID 0000.0001) // =======================================================
 cg2d: Sum(rhs),rhsMax =   4.42378222942352E-09  1.56883451818050E+04
(PID.TID 0000.0001)      cg2d_init_res =   2.21573402007867E+03
(PID.TID 0000.0001)      cg2d_iters(min,last) =      -1      16
(PID.TID 0000.0001)      cg2d_last_res =   5.39303441564551E-11
(PID.TID 0000.0001) // =======================================================
(PID.TID 0000.0001) // Begin MONITOR dynamic field statistics
(PID.TID 0000.0001) // =======================================================
(PID.TID 0000.0001) %MON time_tsnumber                =                276484
(PID.TID 0000.0001) %MON time_secondsf                =   1.2441780000000E+08
(PID.TID 0000.0001) %MON dynstat_eta_max              =   2.5216815112370E+03
(PID.TID 0000.0001) %MON dynstat_eta_min              =  -3.4334170198736E+03
(PID.TID 0000.0001) %MON dynstat_eta_mean             =  -2.4419951827144E-13
(PID.TID 0000.0001) %MON dynstat_eta_sd               =   8.1317597020261E+02
(PID.TID 0000.0001) %MON dynstat_eta_del2             =   2.0191877231015E+00
(PID.TID 0000.0001) %MON dynstat_uvel_max             =   6.7182802948675E+01
(PID.TID 0000.0001) %MON dynstat_uvel_min             =  -6.6639038942688E+01
(PID.TID 0000.0001) %MON dynstat_uvel_mean            =   2.0469398559924E+00
(PID.TID 0000.0001) %MON dynstat_uvel_sd              =   1.1156476464771E+01
(PID.TID 0000.0001) %MON dynstat_uvel_del2            =   1.0718761220559E-02
(PID.TID 0000.0001) %MON dynstat_vvel_max             =   7.2013205157945E+01
(PID.TID 0000.0001) %MON dynstat_vvel_min             =  -6.8657731703036E+01
(PID.TID 0000.0001) %MON dynstat_vvel_mean            =   2.0093658920961E+00
(PID.TID 0000.0001) %MON dynstat_vvel_sd              =   1.1665021652059E+01
(PID.TID 0000.0001) %MON dynstat_vvel_del2            =   1.1008278091321E-02
(PID.TID 0000.0001) %MON dynstat_wvel_max             =   8.0303526779348E-01
(PID.TID 0000.0001) %MON dynstat_wvel_min             =  -6.7657942837898E-01
(PID.TID 0000.0001) %MON dynstat_wvel_mean            =   2.1723530653416E-18
(PID.TID 0000.0001) %MON dynstat_wvel_sd              =   6.4528083529395E-02
(PID.TID 0000.0001) %MON dynstat_wvel_del2            =   2.0546965982661E-04
(PID.TID 0000.0001) %MON dynstat_theta_max            =   5.9604428404420E+02
(PID.TID 0000.0001) %MON dynstat_theta_min            =   2.6187850453564E+02
(PID.TID 0000.0001) %MON dynstat_theta_mean           =   3.2765967023883E+02
(PID.TID 0000.0001) %MON dynstat_theta_sd             =   6.3757740480672E+01
(PID.TID 0000.0001) %MON dynstat_theta_del2           =   5.1688747176027E-03
(PID.TID 0000.0001) %MON dynstat_salt_max             =   0.0000000000000E+00
(PID.TID 0000.0001) %MON dynstat_salt_min             =   0.0000000000000E+00
(PID.TID 0000.0001) %MON dynstat_salt_mean            =   0.0000000000000E+00
(PID.TID 0000.0001) %MON dynstat_salt_sd              =   0.0000000000000E+00
(PID.TID 0000.0001) %MON dynstat_salt_del2            =   0.0000000000000E+00
(PID.TID 0000.0001) %MON trAdv_CFL_u_max              =   2.9331763591895E-01
(PID.TID 0000.0001) %MON trAdv_CFL_v_max              =   3.0925059614899E-01
(PID.TID 0000.0001) %MON trAdv_CFL_w_max              =   7.1638317301307E-02
(PID.TID 0000.0001) %MON advcfl_uvel_max              =   2.6913914007588E-01
(PID.TID 0000.0001) %MON advcfl_vvel_max              =   2.2640623398396E-01
(PID.TID 0000.0001) %MON advcfl_wvel_max              =   7.2273174101414E-02
(PID.TID 0000.0001) %MON advcfl_W_hf_max              =   7.1638317301307E-02
(PID.TID 0000.0001) %MON am_eta_mean                  =  -2.9444156476321E+09
(PID.TID 0000.0001) %MON am_uZo_mean                  =   2.8066570814931E+11
(PID.TID 0000.0001) %MON am_tot_mean                  =   2.7772129250168E+11
(PID.TID 0000.0001) %MON pe_b_mean                    =   2.7997618983541E+00
(PID.TID 0000.0001) %MON ke_max                       =   3.2533437581314E+03
(PID.TID 0000.0001) %MON ke_mean                      =   1.3434830514780E+02
(PID.TID 0000.0001) %MON ke_vol                       =   5.0990436378172E+19
(PID.TID 0000.0001) %MON vort_r_min                   =  -1.7839854383663E-04
(PID.TID 0000.0001) %MON vort_r_max                   =   2.2157705323801E-04
(PID.TID 0000.0001) %MON vort_a_mean                  =   1.9610841390281E-20
(PID.TID 0000.0001) %MON vort_a_sd                    =   8.8613055549850E-05
(PID.TID 0000.0001) %MON vort_p_mean                  =   1.9610829302574E-20
(PID.TID 0000.0001) %MON vort_p_sd                    =   8.8687341728934E-05
(PID.TID 0000.0001) %MON surfExpan_theta_mean         =   2.3908622025271E-03
(PID.TID 0000.0001) %MON surfExpan_salt_mean          =   0.0000000000000E+00
(PID.TID 0000.0001) %MON surfExpan_Heat_mean          =  -1.2202368108224E-03
(PID.TID 0000.0001) %MON En_Budget_T2PE_mean          =   7.6299181573451E-01
(PID.TID 0000.0001) // =======================================================
(PID.TID 0000.0001) // End MONITOR dynamic field statistics
(PID.TID 0000.0001) // =======================================================
 cg2d: Sum(rhs),rhsMax =   3.02679836750031E-09  1.55883319686291E+04
(PID.TID 0000.0001)      cg2d_init_res =   2.24857834308078E+03
(PID.TID 0000.0001)      cg2d_iters(min,last) =      -1      16
(PID.TID 0000.0001)      cg2d_last_res =   5.50081256906430E-11
(PID.TID 0000.0001) // =======================================================
(PID.TID 0000.0001) // Begin MONITOR dynamic field statistics
(PID.TID 0000.0001) // =======================================================
(PID.TID 0000.0001) %MON time_tsnumber                =                276485
(PID.TID 0000.0001) %MON time_secondsf                =   1.2441825000000E+08
(PID.TID 0000.0001) %MON dynstat_eta_max              =   2.5076632382356E+03
(PID.TID 0000.0001) %MON dynstat_eta_min              =  -3.4115876896128E+03
(PID.TID 0000.0001) %MON dynstat_eta_mean             =  -1.4780497158534E-13
(PID.TID 0000.0001) %MON dynstat_eta_sd               =   8.0899021826054E+02
(PID.TID 0000.0001) %MON dynstat_eta_del2             =   2.0123284279163E+00
(PID.TID 0000.0001) %MON dynstat_uvel_max             =   6.7161574099892E+01
(PID.TID 0000.0001) %MON dynstat_uvel_min             =  -6.6697023984854E+01
(PID.TID 0000.0001) %MON dynstat_uvel_mean            =   2.0464942638220E+00
(PID.TID 0000.0001) %MON dynstat_uvel_sd              =   1.1155691200341E+01
(PID.TID 0000.0001) %MON dynstat_uvel_del2            =   1.0717399565294E-02
(PID.TID 0000.0001) %MON dynstat_vvel_max             =   7.2057680838771E+01
(PID.TID 0000.0001) %MON dynstat_vvel_min             =  -6.8674367372578E+01
(PID.TID 0000.0001) %MON dynstat_vvel_mean            =   2.0085051520069E+00
(PID.TID 0000.0001) %MON dynstat_vvel_sd              =   1.1663955597031E+01
(PID.TID 0000.0001) %MON dynstat_vvel_del2            =   1.1004752794220E-02
(PID.TID 0000.0001) %MON dynstat_wvel_max             =   7.9990023743468E-01
(PID.TID 0000.0001) %MON dynstat_wvel_min             =  -6.7939589078042E-01
(PID.TID 0000.0001) %MON dynstat_wvel_mean            =   1.1223824170932E-17
(PID.TID 0000.0001) %MON dynstat_wvel_sd              =   6.4332913968894E-02
(PID.TID 0000.0001) %MON dynstat_wvel_del2            =   2.0541226504153E-04
(PID.TID 0000.0001) %MON dynstat_theta_max            =   5.9605711729272E+02
(PID.TID 0000.0001) %MON dynstat_theta_min            =   2.6188562518148E+02
(PID.TID 0000.0001) %MON dynstat_theta_mean           =   3.2765942038236E+02
(PID.TID 0000.0001) %MON dynstat_theta_sd             =   6.3757783882205E+01
(PID.TID 0000.0001) %MON dynstat_theta_del2           =   5.1706612869047E-03
(PID.TID 0000.0001) %MON dynstat_salt_max             =   0.0000000000000E+00
(PID.TID 0000.0001) %MON dynstat_salt_min             =   0.0000000000000E+00
(PID.TID 0000.0001) %MON dynstat_salt_mean            =   0.0000000000000E+00
(PID.TID 0000.0001) %MON dynstat_salt_sd              =   0.0000000000000E+00
(PID.TID 0000.0001) %MON dynstat_salt_del2            =   0.0000000000000E+00
(PID.TID 0000.0001) %MON trAdv_CFL_u_max              =   2.9340107277505E-01
(PID.TID 0000.0001) %MON trAdv_CFL_v_max              =   3.0933364670081E-01
(PID.TID 0000.0001) %MON trAdv_CFL_w_max              =   7.1361247074753E-02
(PID.TID 0000.0001) %MON advcfl_uvel_max              =   2.6937332779277E-01
(PID.TID 0000.0001) %MON advcfl_vvel_max              =   2.2633204142276E-01
(PID.TID 0000.0001) %MON advcfl_wvel_max              =   7.1991021369121E-02
(PID.TID 0000.0001) %MON advcfl_W_hf_max              =   7.1361247074753E-02
(PID.TID 0000.0001) %MON am_eta_mean                  =  -2.9458836296746E+09
(PID.TID 0000.0001) %MON am_uZo_mean                  =   2.8066053599396E+11
(PID.TID 0000.0001) %MON am_tot_mean                  =   2.7771465236428E+11
(PID.TID 0000.0001) %MON pe_b_mean                    =   2.7710130231054E+00
(PID.TID 0000.0001) %MON ke_max                       =   3.2495590570804E+03
(PID.TID 0000.0001) %MON ke_mean                      =   1.3432446123073E+02
(PID.TID 0000.0001) %MON ke_vol                       =   5.0990436378172E+19
(PID.TID 0000.0001) %MON vort_r_min                   =  -1.7847043174685E-04
(PID.TID 0000.0001) %MON vort_r_max                   =   2.2154777444429E-04
(PID.TID 0000.0001) %MON vort_a_mean                  =   1.2256775868926E-20
(PID.TID 0000.0001) %MON vort_a_sd                    =   8.8611124909039E-05
(PID.TID 0000.0001) %MON vort_p_mean                  =   1.2256768386224E-20
(PID.TID 0000.0001) %MON vort_p_sd                    =   8.8684861910592E-05
(PID.TID 0000.0001) %MON surfExpan_theta_mean         =   2.0326612323539E-03
(PID.TID 0000.0001) %MON surfExpan_salt_mean          =   0.0000000000000E+00
(PID.TID 0000.0001) %MON surfExpan_Heat_mean          =  -6.2339199098272E-02
(PID.TID 0000.0001) %MON En_Budget_T2PE_mean          =   6.7102877776178E-01
(PID.TID 0000.0001) // =======================================================
(PID.TID 0000.0001) // End MONITOR dynamic field statistics
(PID.TID 0000.0001) // =======================================================
 Compute Stats, Diag. #     23  ETAN      vol(   0 ): 5.099E+14  Parms: SM      M1      
 Compute Stats, Diag. #     29  UVEL      vol(   0 ): 5.099E+19  Parms: UUR     MR      
 Compute Stats, Diag. #     30  VVEL      vol(   0 ): 5.099E+19  Parms: VVR     MR      
 Compute Stats, Diag. #     31  WVEL      vol(   0 ): 4.972E+19  Parms: WM      LR      
 Compute Stats, Diag. #     26  THETA     vol(   0 ): 5.099E+19  Parms: SMR     MR      
 cg2d: Sum(rhs),rhsMax =   4.65661287307739E-09  1.55010007698855E+04
(PID.TID 0000.0001)      cg2d_init_res =   2.26615255934685E+03
(PID.TID 0000.0001)      cg2d_iters(min,last) =      -1      16
(PID.TID 0000.0001)      cg2d_last_res =   5.56220165221364E-11
(PID.TID 0000.0001) // =======================================================
(PID.TID 0000.0001) // Begin MONITOR dynamic field statistics
(PID.TID 0000.0001) // =======================================================
(PID.TID 0000.0001) %MON time_tsnumber                =                276486
(PID.TID 0000.0001) %MON time_secondsf                =   1.2441870000000E+08
(PID.TID 0000.0001) %MON dynstat_eta_max              =   2.4928737749944E+03
(PID.TID 0000.0001) %MON dynstat_eta_min              =  -3.3922548483630E+03
(PID.TID 0000.0001) %MON dynstat_eta_mean             =  -1.2852606224812E-13
(PID.TID 0000.0001) %MON dynstat_eta_sd               =   8.0470663595302E+02
(PID.TID 0000.0001) %MON dynstat_eta_del2             =   2.0143373152866E+00
(PID.TID 0000.0001) %MON dynstat_uvel_max             =   6.7136800619623E+01
(PID.TID 0000.0001) %MON dynstat_uvel_min             =  -6.6752766811995E+01
(PID.TID 0000.0001) %MON dynstat_uvel_mean            =   2.0460325180060E+00
(PID.TID 0000.0001) %MON dynstat_uvel_sd              =   1.1154852297533E+01
(PID.TID 0000.0001) %MON dynstat_uvel_del2            =   1.0715753596619E-02
(PID.TID 0000.0001) %MON dynstat_vvel_max             =   7.2104682101350E+01
(PID.TID 0000.0001) %MON dynstat_vvel_min             =  -6.8697917292608E+01
(PID.TID 0000.0001) %MON dynstat_vvel_mean            =   2.0076861189868E+00
(PID.TID 0000.0001) %MON dynstat_vvel_sd              =   1.1662896689836E+01
(PID.TID 0000.0001) %MON dynstat_vvel_del2            =   1.1000916975965E-02
(PID.TID 0000.0001) %MON dynstat_wvel_max             =   7.9669603286232E-01
(PID.TID 0000.0001) %MON dynstat_wvel_min             =  -6.8155983035135E-01
(PID.TID 0000.0001) %MON dynstat_wvel_mean            =   2.2930393467495E-18
(PID.TID 0000.0001) %MON dynstat_wvel_sd              =   6.4193893320115E-02
(PID.TID 0000.0001) %MON dynstat_wvel_del2            =   2.0543530935841E-04
(PID.TID 0000.0001) %MON dynstat_theta_max            =   5.9622993590844E+02
(PID.TID 0000.0001) %MON dynstat_theta_min            =   2.6189342500899E+02
(PID.TID 0000.0001) %MON dynstat_theta_mean           =   3.2765917320515E+02
(PID.TID 0000.0001) %MON dynstat_theta_sd             =   6.3757828246285E+01
(PID.TID 0000.0001) %MON dynstat_theta_del2           =   5.1725718263818E-03
(PID.TID 0000.0001) %MON dynstat_salt_max             =   0.0000000000000E+00
(PID.TID 0000.0001) %MON dynstat_salt_min             =   0.0000000000000E+00
(PID.TID 0000.0001) %MON dynstat_salt_mean            =   0.0000000000000E+00
(PID.TID 0000.0001) %MON dynstat_salt_sd              =   0.0000000000000E+00
(PID.TID 0000.0001) %MON dynstat_salt_del2            =   0.0000000000000E+00
(PID.TID 0000.0001) %MON trAdv_CFL_u_max              =   2.9351056831840E-01
(PID.TID 0000.0001) %MON trAdv_CFL_v_max              =   3.0944655274371E-01
(PID.TID 0000.0001) %MON trAdv_CFL_w_max              =   7.1078358125217E-02
(PID.TID 0000.0001) %MON advcfl_uvel_max              =   2.6959845973945E-01
(PID.TID 0000.0001) %MON advcfl_vvel_max              =   2.2624708224607E-01
(PID.TID 0000.0001) %MON advcfl_wvel_max              =   7.1702642957609E-02
(PID.TID 0000.0001) %MON advcfl_W_hf_max              =   7.1078358125217E-02
(PID.TID 0000.0001) %MON am_eta_mean                  =  -2.9469612863911E+09
(PID.TID 0000.0001) %MON am_uZo_mean                  =   2.8065499509185E+11
(PID.TID 0000.0001) %MON am_tot_mean                  =   2.7770803380545E+11
(PID.TID 0000.0001) %MON pe_b_mean                    =   2.7417458285580E+00
(PID.TID 0000.0001) %MON ke_max                       =   3.2449208380692E+03
(PID.TID 0000.0001) %MON ke_mean                      =   1.3430015791623E+02
(PID.TID 0000.0001) %MON ke_vol                       =   5.0990436378172E+19
(PID.TID 0000.0001) %MON vort_r_min                   =  -1.7850084339973E-04
(PID.TID 0000.0001) %MON vort_r_max                   =   2.2149322060065E-04
(PID.TID 0000.0001) %MON vort_a_mean                  =  -1.5688673112225E-19
(PID.TID 0000.0001) %MON vort_a_sd                    =   8.8609090950583E-05
(PID.TID 0000.0001) %MON vort_p_mean                  =  -1.5688663615836E-19
(PID.TID 0000.0001) %MON vort_p_sd                    =   8.8682277409165E-05
(PID.TID 0000.0001) %MON surfExpan_theta_mean         =   1.2936811591957E-03
(PID.TID 0000.0001) %MON surfExpan_salt_mean          =   0.0000000000000E+00
(PID.TID 0000.0001) %MON surfExpan_Heat_mean          =  -1.5012259798669E-01
(PID.TID 0000.0001) %MON En_Budget_T2PE_mean          =   5.8461846808875E-01
(PID.TID 0000.0001) // =======================================================
(PID.TID 0000.0001) // End MONITOR dynamic field statistics
(PID.TID 0000.0001) // =======================================================
 cg2d: Sum(rhs),rhsMax =   3.49245965480804E-09  1.54315996828956E+04
(PID.TID 0000.0001)      cg2d_init_res =   2.28467437877334E+03
(PID.TID 0000.0001)      cg2d_iters(min,last) =      -1      16
(PID.TID 0000.0001)      cg2d_last_res =   5.59324181082938E-11
(PID.TID 0000.0001) // =======================================================
(PID.TID 0000.0001) // Begin MONITOR dynamic field statistics
(PID.TID 0000.0001) // =======================================================
(PID.TID 0000.0001) %MON time_tsnumber                =                276487
(PID.TID 0000.0001) %MON time_secondsf                =   1.2441915000000E+08
(PID.TID 0000.0001) %MON dynstat_eta_max              =   2.4807137252690E+03
(PID.TID 0000.0001) %MON dynstat_eta_min              =  -3.3766684323505E+03
(PID.TID 0000.0001) %MON dynstat_eta_mean             =  -2.4419951827144E-13
(PID.TID 0000.0001) %MON dynstat_eta_sd               =   8.0049344767712E+02
(PID.TID 0000.0001) %MON dynstat_eta_del2             =   2.0232922460439E+00
(PID.TID 0000.0001) %MON dynstat_uvel_max             =   6.7110541120471E+01
(PID.TID 0000.0001) %MON dynstat_uvel_min             =  -6.6806809766589E+01
(PID.TID 0000.0001) %MON dynstat_uvel_mean            =   2.0455563492704E+00
(PID.TID 0000.0001) %MON dynstat_uvel_sd              =   1.1153909301230E+01
(PID.TID 0000.0001) %MON dynstat_uvel_del2            =   1.0713881645212E-02
(PID.TID 0000.0001) %MON dynstat_vvel_max             =   7.2151848563725E+01
(PID.TID 0000.0001) %MON dynstat_vvel_min             =  -6.8728434420908E+01
(PID.TID 0000.0001) %MON dynstat_vvel_mean            =   2.0068990248103E+00
(PID.TID 0000.0001) %MON dynstat_vvel_sd              =   1.1661807763122E+01
(PID.TID 0000.0001) %MON dynstat_vvel_del2            =   1.0996857816187E-02
(PID.TID 0000.0001) %MON dynstat_wvel_max             =   7.9347220248615E-01
(PID.TID 0000.0001) %MON dynstat_wvel_min             =  -6.8303146090585E-01
(PID.TID 0000.0001) %MON dynstat_wvel_mean            =   4.1837910888061E-18
(PID.TID 0000.0001) %MON dynstat_wvel_sd              =   6.4103907832830E-02
(PID.TID 0000.0001) %MON dynstat_wvel_del2            =   2.0552440715271E-04
(PID.TID 0000.0001) %MON dynstat_theta_max            =   5.9640596344034E+02
(PID.TID 0000.0001) %MON dynstat_theta_min            =   2.6190189595680E+02
(PID.TID 0000.0001) %MON dynstat_theta_mean           =   3.2765892763826E+02
(PID.TID 0000.0001) %MON dynstat_theta_sd             =   6.3757874229706E+01
(PID.TID 0000.0001) %MON dynstat_theta_del2           =   5.1744275286005E-03
(PID.TID 0000.0001) %MON dynstat_salt_max             =   0.0000000000000E+00
(PID.TID 0000.0001) %MON dynstat_salt_min             =   0.0000000000000E+00
(PID.TID 0000.0001) %MON dynstat_salt_mean            =   0.0000000000000E+00
(PID.TID 0000.0001) %MON dynstat_salt_sd              =   0.0000000000000E+00
(PID.TID 0000.0001) %MON dynstat_salt_del2            =   0.0000000000000E+00
(PID.TID 0000.0001) %MON trAdv_CFL_u_max              =   2.9365071298822E-01
(PID.TID 0000.0001) %MON trAdv_CFL_v_max              =   3.0959000336009E-01
(PID.TID 0000.0001) %MON trAdv_CFL_w_max              =   7.0793879108983E-02
(PID.TID 0000.0001) %MON advcfl_uvel_max              =   2.6981672630747E-01
(PID.TID 0000.0001) %MON advcfl_vvel_max              =   2.2615016842784E-01
(PID.TID 0000.0001) %MON advcfl_wvel_max              =   7.1412498223754E-02
(PID.TID 0000.0001) %MON advcfl_W_hf_max              =   7.0793879108983E-02
(PID.TID 0000.0001) %MON am_eta_mean                  =  -2.9476789006839E+09
(PID.TID 0000.0001) %MON am_uZo_mean                  =   2.8064911358310E+11
(PID.TID 0000.0001) %MON am_tot_mean                  =   2.7770143468241E+11
(PID.TID 0000.0001) %MON pe_b_mean                    =   2.7131111661947E+00
(PID.TID 0000.0001) %MON ke_max                       =   3.2395487893647E+03
(PID.TID 0000.0001) %MON ke_mean                      =   1.3427438278981E+02
(PID.TID 0000.0001) %MON ke_vol                       =   5.0990436378172E+19
(PID.TID 0000.0001) %MON vort_r_min                   =  -1.7848966644062E-04
(PID.TID 0000.0001) %MON vort_r_max                   =   2.2141329028475E-04
(PID.TID 0000.0001) %MON vort_a_mean                  =   2.2062196564066E-19
(PID.TID 0000.0001) %MON vort_a_sd                    =   8.8606951114351E-05
(PID.TID 0000.0001) %MON vort_p_mean                  =   2.2062183302510E-19
(PID.TID 0000.0001) %MON vort_p_sd                    =   8.8679619336751E-05
(PID.TID 0000.0001) %MON surfExpan_theta_mean         =   3.2339861165312E-04
(PID.TID 0000.0001) %MON surfExpan_salt_mean          =   0.0000000000000E+00
(PID.TID 0000.0001) %MON surfExpan_Heat_mean          =  -2.5031133812821E-01
(PID.TID 0000.0001) %MON En_Budget_T2PE_mean          =   5.0564496455728E-01
(PID.TID 0000.0001) // =======================================================
(PID.TID 0000.0001) // End MONITOR dynamic field statistics
(PID.TID 0000.0001) // =======================================================
 cg2d: Sum(rhs),rhsMax =   3.25962901115417E-09  1.53833743701375E+04
(PID.TID 0000.0001)      cg2d_init_res =   2.30759731454881E+03
(PID.TID 0000.0001)      cg2d_iters(min,last) =      -1      16
(PID.TID 0000.0001)      cg2d_last_res =   5.54227703315717E-11
(PID.TID 0000.0001) // =======================================================
(PID.TID 0000.0001) // Begin MONITOR dynamic field statistics
(PID.TID 0000.0001) // =======================================================
(PID.TID 0000.0001) %MON time_tsnumber                =                276488
(PID.TID 0000.0001) %MON time_secondsf                =   1.2441960000000E+08
(PID.TID 0000.0001) %MON dynstat_eta_max              =   2.4695153911204E+03
(PID.TID 0000.0001) %MON dynstat_eta_min              =  -3.3656039923283E+03
(PID.TID 0000.0001) %MON dynstat_eta_mean             =  -1.7351018403497E-13
(PID.TID 0000.0001) %MON dynstat_eta_sd               =   7.9648468023135E+02
(PID.TID 0000.0001) %MON dynstat_eta_del2             =   2.0366850826743E+00
(PID.TID 0000.0001) %MON dynstat_uvel_max             =   6.7084777797759E+01
(PID.TID 0000.0001) %MON dynstat_uvel_min             =  -6.6859251233434E+01
(PID.TID 0000.0001) %MON dynstat_uvel_mean            =   2.0450698629392E+00
(PID.TID 0000.0001) %MON dynstat_uvel_sd              =   1.1152822977219E+01
(PID.TID 0000.0001) %MON dynstat_uvel_del2            =   1.0711854300366E-02
(PID.TID 0000.0001) %MON dynstat_vvel_max             =   7.2196804012004E+01
(PID.TID 0000.0001) %MON dynstat_vvel_min             =  -6.8765835670048E+01
(PID.TID 0000.0001) %MON dynstat_vvel_mean            =   2.0061318723942E+00
(PID.TID 0000.0001) %MON dynstat_vvel_sd              =   1.1660656003172E+01
(PID.TID 0000.0001) %MON dynstat_vvel_del2            =   1.0992673919971E-02
(PID.TID 0000.0001) %MON dynstat_wvel_max             =   7.9026249098221E-01
(PID.TID 0000.0001) %MON dynstat_wvel_min             =  -6.8370942498038E-01
(PID.TID 0000.0001) %MON dynstat_wvel_mean            =   3.7815034841132E-18
(PID.TID 0000.0001) %MON dynstat_wvel_sd              =   6.4057018335507E-02
(PID.TID 0000.0001) %MON dynstat_wvel_del2            =   2.0566846018854E-04
(PID.TID 0000.0001) %MON dynstat_theta_max            =   5.9656939874722E+02
(PID.TID 0000.0001) %MON dynstat_theta_min            =   2.6191103650239E+02
(PID.TID 0000.0001) %MON dynstat_theta_mean           =   3.2765868263758E+02
(PID.TID 0000.0001) %MON dynstat_theta_sd             =   6.3757922291873E+01
(PID.TID 0000.0001) %MON dynstat_theta_del2           =   5.1760829513624E-03
(PID.TID 0000.0001) %MON dynstat_salt_max             =   0.0000000000000E+00
(PID.TID 0000.0001) %MON dynstat_salt_min             =   0.0000000000000E+00
(PID.TID 0000.0001) %MON dynstat_salt_mean            =   0.0000000000000E+00
(PID.TID 0000.0001) %MON dynstat_salt_sd              =   0.0000000000000E+00
(PID.TID 0000.0001) %MON dynstat_salt_del2            =   0.0000000000000E+00
(PID.TID 0000.0001) %MON trAdv_CFL_u_max              =   2.9382371260560E-01
(PID.TID 0000.0001) %MON trAdv_CFL_v_max              =   3.0976373676385E-01
(PID.TID 0000.0001) %MON trAdv_CFL_w_max              =   7.0510675005126E-02
(PID.TID 0000.0001) %MON advcfl_uvel_max              =   2.7002852484952E-01
(PID.TID 0000.0001) %MON advcfl_vvel_max              =   2.2604087592956E-01
(PID.TID 0000.0001) %MON advcfl_wvel_max              =   7.1123624188399E-02
(PID.TID 0000.0001) %MON advcfl_W_hf_max              =   7.0510675005126E-02
(PID.TID 0000.0001) %MON am_eta_mean                  =  -2.9480704427062E+09
(PID.TID 0000.0001) %MON am_uZo_mean                  =   2.8064291861267E+11
(PID.TID 0000.0001) %MON am_tot_mean                  =   2.7769484816996E+11
(PID.TID 0000.0001) %MON pe_b_mean                    =   2.6860053894470E+00
(PID.TID 0000.0001) %MON ke_max                       =   3.2382744547436E+03
(PID.TID 0000.0001) %MON ke_mean                      =   1.3424630013708E+02
(PID.TID 0000.0001) %MON ke_vol                       =   5.0990436378172E+19
(PID.TID 0000.0001) %MON vort_r_min                   =  -1.7843629051690E-04
(PID.TID 0000.0001) %MON vort_r_max                   =   2.2130823387874E-04
(PID.TID 0000.0001) %MON vort_a_mean                  =  -3.6770327606777E-20
(PID.TID 0000.0001) %MON vort_a_sd                    =   8.8604712601212E-05
(PID.TID 0000.0001) %MON vort_p_mean                  =  -3.9221659328856E-20
(PID.TID 0000.0001) %MON vort_p_sd                    =   8.8676917352576E-05
(PID.TID 0000.0001) %MON surfExpan_theta_mean         =  -7.3219823022779E-04
(PID.TID 0000.0001) %MON surfExpan_salt_mean          =   0.0000000000000E+00
(PID.TID 0000.0001) %MON surfExpan_Heat_mean          =  -3.4966461391403E-01
(PID.TID 0000.0001) %MON En_Budget_T2PE_mean          =   4.3560210661518E-01
(PID.TID 0000.0001) // =======================================================
(PID.TID 0000.0001) // End MONITOR dynamic field statistics
(PID.TID 0000.0001) // =======================================================
 cg2d: Sum(rhs),rhsMax =   1.86264514923096E-09  1.53849184027061E+04
(PID.TID 0000.0001)      cg2d_init_res =   2.33157976295755E+03
(PID.TID 0000.0001)      cg2d_iters(min,last) =      -1      16
(PID.TID 0000.0001)      cg2d_last_res =   5.45655644627986E-11
(PID.TID 0000.0001) // =======================================================
(PID.TID 0000.0001) // Begin MONITOR dynamic field statistics
(PID.TID 0000.0001) // =======================================================
(PID.TID 0000.0001) %MON time_tsnumber                =                276489
(PID.TID 0000.0001) %MON time_secondsf                =   1.2442005000000E+08
(PID.TID 0000.0001) %MON dynstat_eta_max              =   2.4592867273844E+03
(PID.TID 0000.0001) %MON dynstat_eta_min              =  -3.3593842076894E+03
(PID.TID 0000.0001) %MON dynstat_eta_mean             =  -1.1567345602331E-13
(PID.TID 0000.0001) %MON dynstat_eta_sd               =   7.9278141340887E+02
(PID.TID 0000.0001) %MON dynstat_eta_del2             =   2.0520482931190E+00
(PID.TID 0000.0001) %MON dynstat_uvel_max             =   6.7061095973785E+01
(PID.TID 0000.0001) %MON dynstat_uvel_min             =  -6.6909193831305E+01
(PID.TID 0000.0001) %MON dynstat_uvel_mean            =   2.0445783219784E+00
(PID.TID 0000.0001) %MON dynstat_uvel_sd              =   1.1151565535992E+01
(PID.TID 0000.0001) %MON dynstat_uvel_del2            =   1.0709738758993E-02
(PID.TID 0000.0001) %MON dynstat_vvel_max             =   7.2237510740833E+01
(PID.TID 0000.0001) %MON dynstat_vvel_min             =  -6.8809372752612E+01
(PID.TID 0000.0001) %MON dynstat_vvel_mean            =   2.0053716895619E+00
(PID.TID 0000.0001) %MON dynstat_vvel_sd              =   1.1659412720164E+01
(PID.TID 0000.0001) %MON dynstat_vvel_del2            =   1.0988449098614E-02
(PID.TID 0000.0001) %MON dynstat_wvel_max             =   7.8708474218569E-01
(PID.TID 0000.0001) %MON dynstat_wvel_min             =  -6.8356257333394E-01
(PID.TID 0000.0001) %MON dynstat_wvel_mean            =  -8.7698697823051E-18
(PID.TID 0000.0001) %MON dynstat_wvel_sd              =   6.4048027522049E-02
(PID.TID 0000.0001) %MON dynstat_wvel_del2            =   2.0585179011576E-04
(PID.TID 0000.0001) %MON dynstat_theta_max            =   5.9671754947006E+02
(PID.TID 0000.0001) %MON dynstat_theta_min            =   2.6192084922795E+02
(PID.TID 0000.0001) %MON dynstat_theta_mean           =   3.2765843730545E+02
(PID.TID 0000.0001) %MON dynstat_theta_sd             =   6.3757972677932E+01
(PID.TID 0000.0001) %MON dynstat_theta_del2           =   5.1774359694394E-03
(PID.TID 0000.0001) %MON dynstat_salt_max             =   0.0000000000000E+00
(PID.TID 0000.0001) %MON dynstat_salt_min             =   0.0000000000000E+00
(PID.TID 0000.0001) %MON dynstat_salt_mean            =   0.0000000000000E+00
(PID.TID 0000.0001) %MON dynstat_salt_sd              =   0.0000000000000E+00
(PID.TID 0000.0001) %MON dynstat_salt_del2            =   0.0000000000000E+00
(PID.TID 0000.0001) %MON trAdv_CFL_u_max              =   2.9402787657991E-01
(PID.TID 0000.0001) %MON trAdv_CFL_v_max              =   3.0996464225463E-01
(PID.TID 0000.0001) %MON trAdv_CFL_w_max              =   7.0230229915787E-02
(PID.TID 0000.0001) %MON advcfl_uvel_max              =   2.7023023105743E-01
(PID.TID 0000.0001) %MON advcfl_vvel_max              =   2.2592038473855E-01
(PID.TID 0000.0001) %MON advcfl_wvel_max              =   7.0837626796713E-02
(PID.TID 0000.0001) %MON advcfl_W_hf_max              =   7.0230229915787E-02
(PID.TID 0000.0001) %MON am_eta_mean                  =  -2.9481730782568E+09
(PID.TID 0000.0001) %MON am_uZo_mean                  =   2.8063643801855E+11
(PID.TID 0000.0001) %MON am_tot_mean                  =   2.7768826494029E+11
(PID.TID 0000.0001) %MON pe_b_mean                    =   2.6610862151210E+00
(PID.TID 0000.0001) %MON ke_max                       =   3.2365335081763E+03
(PID.TID 0000.0001) %MON ke_mean                      =   1.3421525088195E+02
(PID.TID 0000.0001) %MON ke_vol                       =   5.0990436378172E+19
(PID.TID 0000.0001) %MON vort_r_min                   =  -1.7833967163269E-04
(PID.TID 0000.0001) %MON vort_r_max                   =   2.2117860985876E-04
(PID.TID 0000.0001) %MON vort_a_mean                  =  -7.3540655213554E-20
(PID.TID 0000.0001) %MON vort_a_sd                    =   8.8602389201620E-05
(PID.TID 0000.0001) %MON vort_p_mean                  =  -7.5991965120412E-20
(PID.TID 0000.0001) %MON vort_p_sd                    =   8.8674197743776E-05
(PID.TID 0000.0001) %MON surfExpan_theta_mean         =  -1.7477333120891E-03
(PID.TID 0000.0001) %MON surfExpan_salt_mean          =   0.0000000000000E+00
(PID.TID 0000.0001) %MON surfExpan_Heat_mean          =  -4.3733665960170E-01
(PID.TID 0000.0001) %MON En_Budget_T2PE_mean          =   3.7552579073202E-01
(PID.TID 0000.0001) // =======================================================
(PID.TID 0000.0001) // End MONITOR dynamic field statistics
(PID.TID 0000.0001) // =======================================================
 cg2d: Sum(rhs),rhsMax =   4.65661287307739E-09  1.54316048037388E+04
(PID.TID 0000.0001)      cg2d_init_res =   2.35188356171727E+03
(PID.TID 0000.0001)      cg2d_iters(min,last) =      -1      16
(PID.TID 0000.0001)      cg2d_last_res =   5.34513721450550E-11
(PID.TID 0000.0001) // =======================================================
(PID.TID 0000.0001) // Begin MONITOR dynamic field statistics
(PID.TID 0000.0001) // =======================================================
(PID.TID 0000.0001) %MON time_tsnumber                =                276490
(PID.TID 0000.0001) %MON time_secondsf                =   1.2442050000000E+08
(PID.TID 0000.0001) %MON dynstat_eta_max              =   2.4500418018200E+03
(PID.TID 0000.0001) %MON dynstat_eta_min              =  -3.3579162506718E+03
(PID.TID 0000.0001) %MON dynstat_eta_mean             =  -2.1206800270941E-13
(PID.TID 0000.0001) %MON dynstat_eta_sd               =   7.8945501946786E+02
(PID.TID 0000.0001) %MON dynstat_eta_del2             =   2.0673261874713E+00
(PID.TID 0000.0001) %MON dynstat_uvel_max             =   6.7040545516343E+01
(PID.TID 0000.0001) %MON dynstat_uvel_min             =  -6.6955073154870E+01
(PID.TID 0000.0001) %MON dynstat_uvel_mean            =   2.0440869433033E+00
(PID.TID 0000.0001) %MON dynstat_uvel_sd              =   1.1150119935290E+01
(PID.TID 0000.0001) %MON dynstat_uvel_del2            =   1.0707593483276E-02
(PID.TID 0000.0001) %MON dynstat_vvel_max             =   7.2272465363453E+01
(PID.TID 0000.0001) %MON dynstat_vvel_min             =  -6.8857466275586E+01
(PID.TID 0000.0001) %MON dynstat_vvel_mean            =   2.0046058255705E+00
(PID.TID 0000.0001) %MON dynstat_vvel_sd              =   1.1658053240469E+01
(PID.TID 0000.0001) %MON dynstat_vvel_del2            =   1.0984241089037E-02
(PID.TID 0000.0001) %MON dynstat_wvel_max             =   7.8394235776929E-01
(PID.TID 0000.0001) %MON dynstat_wvel_min             =  -6.8447675358852E-01
(PID.TID 0000.0001) %MON dynstat_wvel_mean            =   3.2183008375432E-18
(PID.TID 0000.0001) %MON dynstat_wvel_sd              =   6.4072102455836E-02
(PID.TID 0000.0001) %MON dynstat_wvel_del2            =   2.0605548442957E-04
(PID.TID 0000.0001) %MON dynstat_theta_max            =   5.9684944568185E+02
(PID.TID 0000.0001) %MON dynstat_theta_min            =   2.6193133785680E+02
(PID.TID 0000.0001) %MON dynstat_theta_mean           =   3.2765819096081E+02
(PID.TID 0000.0001) %MON dynstat_theta_sd             =   6.3758025435382E+01
(PID.TID 0000.0001) %MON dynstat_theta_del2           =   5.1784279278699E-03
(PID.TID 0000.0001) %MON dynstat_salt_max             =   0.0000000000000E+00
(PID.TID 0000.0001) %MON dynstat_salt_min             =   0.0000000000000E+00
(PID.TID 0000.0001) %MON dynstat_salt_mean            =   0.0000000000000E+00
(PID.TID 0000.0001) %MON dynstat_salt_sd              =   0.0000000000000E+00
(PID.TID 0000.0001) %MON dynstat_salt_del2            =   0.0000000000000E+00
(PID.TID 0000.0001) %MON trAdv_CFL_u_max              =   2.9425727034816E-01
(PID.TID 0000.0001) %MON trAdv_CFL_v_max              =   3.1018617595540E-01
(PID.TID 0000.0001) %MON trAdv_CFL_w_max              =   6.9952754940525E-02
(PID.TID 0000.0001) %MON advcfl_uvel_max              =   2.7041552667224E-01
(PID.TID 0000.0001) %MON advcfl_vvel_max              =   2.2579158063294E-01
(PID.TID 0000.0001) %MON advcfl_wvel_max              =   7.0554812199236E-02
(PID.TID 0000.0001) %MON advcfl_W_hf_max              =   6.9952754940525E-02
(PID.TID 0000.0001) %MON am_eta_mean                  =  -2.9480268193191E+09
(PID.TID 0000.0001) %MON am_uZo_mean                  =   2.8062970218333E+11
(PID.TID 0000.0001) %MON am_tot_mean                  =   2.7768167536402E+11
(PID.TID 0000.0001) %MON pe_b_mean                    =   2.6388020130826E+00
(PID.TID 0000.0001) %MON ke_max                       =   3.2344403033590E+03
(PID.TID 0000.0001) %MON ke_mean                      =   1.3418074362227E+02
(PID.TID 0000.0001) %MON ke_vol                       =   5.0990436378172E+19
(PID.TID 0000.0001) %MON vort_r_min                   =  -1.7819843070967E-04
(PID.TID 0000.0001) %MON vort_r_max                   =   2.2152090715622E-04
(PID.TID 0000.0001) %MON vort_a_mean                  =  -1.7159486216496E-19
(PID.TID 0000.0001) %MON vort_a_sd                    =   8.8599998094356E-05
(PID.TID 0000.0001) %MON vort_p_mean                  =  -1.6669205277140E-19
(PID.TID 0000.0001) %MON vort_p_sd                    =   8.8671482444431E-05
(PID.TID 0000.0001) %MON surfExpan_theta_mean         =  -2.6282164968846E-03
(PID.TID 0000.0001) %MON surfExpan_salt_mean          =   0.0000000000000E+00
(PID.TID 0000.0001) %MON surfExpan_Heat_mean          =  -5.0557472311819E-01
(PID.TID 0000.0001) %MON En_Budget_T2PE_mean          =   3.2600075080806E-01
(PID.TID 0000.0001) // =======================================================
(PID.TID 0000.0001) // End MONITOR dynamic field statistics
(PID.TID 0000.0001) // =======================================================
 cg2d: Sum(rhs),rhsMax =   6.75208866596222E-09  1.54893285424991E+04
(PID.TID 0000.0001)      cg2d_init_res =   2.36493389045508E+03
(PID.TID 0000.0001)      cg2d_iters(min,last) =      -1      16
(PID.TID 0000.0001)      cg2d_last_res =   5.21972068846105E-11
(PID.TID 0000.0001) // =======================================================
(PID.TID 0000.0001) // Begin MONITOR dynamic field statistics
(PID.TID 0000.0001) // =======================================================
(PID.TID 0000.0001) %MON time_tsnumber                =                276491
(PID.TID 0000.0001) %MON time_secondsf                =   1.2442095000000E+08
(PID.TID 0000.0001) %MON dynstat_eta_max              =   2.4418238848877E+03
(PID.TID 0000.0001) %MON dynstat_eta_min              =  -3.3607521479662E+03
(PID.TID 0000.0001) %MON dynstat_eta_mean             =  -1.8636279025978E-13
(PID.TID 0000.0001) %MON dynstat_eta_sd               =   7.8655152406330E+02
(PID.TID 0000.0001) %MON dynstat_eta_del2             =   2.0810312674185E+00
(PID.TID 0000.0001) %MON dynstat_uvel_max             =   6.7023637933232E+01
(PID.TID 0000.0001) %MON dynstat_uvel_min             =  -6.6995220876787E+01
(PID.TID 0000.0001) %MON dynstat_uvel_mean            =   2.0435999145242E+00
(PID.TID 0000.0001) %MON dynstat_uvel_sd              =   1.1148478558630E+01
(PID.TID 0000.0001) %MON dynstat_uvel_del2            =   1.0705467254476E-02
(PID.TID 0000.0001) %MON dynstat_vvel_max             =   7.2300739953929E+01
(PID.TID 0000.0001) %MON dynstat_vvel_min             =  -6.8908029534584E+01
(PID.TID 0000.0001) %MON dynstat_vvel_mean            =   2.0038230552439E+00
(PID.TID 0000.0001) %MON dynstat_vvel_sd              =   1.1656557004863E+01
(PID.TID 0000.0001) %MON dynstat_vvel_del2            =   1.0980080461125E-02
(PID.TID 0000.0001) %MON dynstat_wvel_max             =   7.8082626236256E-01
(PID.TID 0000.0001) %MON dynstat_wvel_min             =  -6.8547565808277E-01
(PID.TID 0000.0001) %MON dynstat_wvel_mean            =  -4.0228760469290E-19
(PID.TID 0000.0001) %MON dynstat_wvel_sd              =   6.4124540228137E-02
(PID.TID 0000.0001) %MON dynstat_wvel_del2            =   2.0626108327128E-04
(PID.TID 0000.0001) %MON dynstat_theta_max            =   5.9696548414307E+02
(PID.TID 0000.0001) %MON dynstat_theta_min            =   2.6194250471138E+02
(PID.TID 0000.0001) %MON dynstat_theta_mean           =   3.2765794316356E+02
(PID.TID 0000.0001) %MON dynstat_theta_sd             =   6.3758080447133E+01
(PID.TID 0000.0001) %MON dynstat_theta_del2           =   5.1790379001553E-03
(PID.TID 0000.0001) %MON dynstat_salt_max             =   0.0000000000000E+00
(PID.TID 0000.0001) %MON dynstat_salt_min             =   0.0000000000000E+00
(PID.TID 0000.0001) %MON dynstat_salt_mean            =   0.0000000000000E+00
(PID.TID 0000.0001) %MON dynstat_salt_sd              =   0.0000000000000E+00
(PID.TID 0000.0001) %MON dynstat_salt_del2            =   0.0000000000000E+00
(PID.TID 0000.0001) %MON trAdv_CFL_u_max              =   2.9450275652755E-01
(PID.TID 0000.0001) %MON trAdv_CFL_v_max              =   3.1041953150037E-01
(PID.TID 0000.0001) %MON trAdv_CFL_w_max              =   6.9677347568711E-02
(PID.TID 0000.0001) %MON advcfl_uvel_max              =   2.7057767371884E-01
(PID.TID 0000.0001) %MON advcfl_vvel_max              =   2.2565871934303E-01
(PID.TID 0000.0001) %MON advcfl_wvel_max              =   7.0274363612631E-02
(PID.TID 0000.0001) %MON advcfl_W_hf_max              =   6.9677347568711E-02
(PID.TID 0000.0001) %MON am_eta_mean                  =  -2.9476742453523E+09
(PID.TID 0000.0001) %MON am_uZo_mean                  =   2.8062274541311E+11
(PID.TID 0000.0001) %MON am_tot_mean                  =   2.7767507116776E+11
(PID.TID 0000.0001) %MON pe_b_mean                    =   2.6194274826644E+00
(PID.TID 0000.0001) %MON ke_max                       =   3.2320843428222E+03
(PID.TID 0000.0001) %MON ke_mean                      =   1.3414244111020E+02
(PID.TID 0000.0001) %MON ke_vol                       =   5.0990436378173E+19
(PID.TID 0000.0001) %MON vort_r_min                   =  -1.7801102571071E-04
(PID.TID 0000.0001) %MON vort_r_max                   =   2.2226430235840E-04
(PID.TID 0000.0001) %MON vort_a_mean                  =   8.0894720734909E-20
(PID.TID 0000.0001) %MON vort_a_sd                    =   8.8597557169865E-05
(PID.TID 0000.0001) %MON vort_p_mean                  =   8.3346026462347E-20
(PID.TID 0000.0001) %MON vort_p_sd                    =   8.8668788789448E-05
(PID.TID 0000.0001) %MON surfExpan_theta_mean         =  -3.3123514357496E-03
(PID.TID 0000.0001) %MON surfExpan_salt_mean          =   0.0000000000000E+00
(PID.TID 0000.0001) %MON surfExpan_Heat_mean          =  -5.4986182468901E-01
(PID.TID 0000.0001) %MON En_Budget_T2PE_mean          =   2.8721343663572E-01
(PID.TID 0000.0001) // =======================================================
(PID.TID 0000.0001) // End MONITOR dynamic field statistics
(PID.TID 0000.0001) // =======================================================
 cg2d: Sum(rhs),rhsMax =   2.79396772384644E-09  1.55534536877922E+04
(PID.TID 0000.0001)      cg2d_init_res =   2.36873378985929E+03
(PID.TID 0000.0001)      cg2d_iters(min,last) =      -1      16
(PID.TID 0000.0001)      cg2d_last_res =   5.10708429568849E-11
(PID.TID 0000.0001) // =======================================================
(PID.TID 0000.0001) // Begin MONITOR dynamic field statistics
(PID.TID 0000.0001) // =======================================================
(PID.TID 0000.0001) %MON time_tsnumber                =                276492
(PID.TID 0000.0001) %MON time_secondsf                =   1.2442140000000E+08
(PID.TID 0000.0001) %MON dynstat_eta_max              =   2.4347064887616E+03
(PID.TID 0000.0001) %MON dynstat_eta_min              =  -3.3671715411655E+03
(PID.TID 0000.0001) %MON dynstat_eta_mean             =  -1.6708388092256E-13
(PID.TID 0000.0001) %MON dynstat_eta_sd               =   7.8409634629898E+02
(PID.TID 0000.0001) %MON dynstat_eta_del2             =   2.0922523571987E+00
(PID.TID 0000.0001) %MON dynstat_uvel_max             =   6.7010427522000E+01
(PID.TID 0000.0001) %MON dynstat_uvel_min             =  -6.7028290761674E+01
(PID.TID 0000.0001) %MON dynstat_uvel_mean            =   2.0431197326639E+00
(PID.TID 0000.0001) %MON dynstat_uvel_sd              =   1.1146641564300E+01
(PID.TID 0000.0001) %MON dynstat_uvel_del2            =   1.0703398991568E-02
(PID.TID 0000.0001) %MON dynstat_vvel_max             =   7.2321904303866E+01
(PID.TID 0000.0001) %MON dynstat_vvel_min             =  -6.8958961668992E+01
(PID.TID 0000.0001) %MON dynstat_vvel_mean            =   2.0030143604884E+00
(PID.TID 0000.0001) %MON dynstat_vvel_sd              =   1.1654907844468E+01
(PID.TID 0000.0001) %MON dynstat_vvel_del2            =   1.0975975316128E-02
(PID.TID 0000.0001) %MON dynstat_wvel_max             =   7.7771746384500E-01
(PID.TID 0000.0001) %MON dynstat_wvel_min             =  -6.8614307396695E-01
(PID.TID 0000.0001) %MON dynstat_wvel_mean            =   1.2149085661725E-17
(PID.TID 0000.0001) %MON dynstat_wvel_sd              =   6.4200674928435E-02
(PID.TID 0000.0001) %MON dynstat_wvel_del2            =   2.0645362337395E-04
(PID.TID 0000.0001) %MON dynstat_theta_max            =   5.9706705851357E+02
(PID.TID 0000.0001) %MON dynstat_theta_min            =   2.6195434910092E+02
(PID.TID 0000.0001) %MON dynstat_theta_mean           =   3.2765769370408E+02
(PID.TID 0000.0001) %MON dynstat_theta_sd             =   6.3758137470384E+01
(PID.TID 0000.0001) %MON dynstat_theta_del2           =   5.1792744438069E-03
(PID.TID 0000.0001) %MON dynstat_salt_max             =   0.0000000000000E+00
(PID.TID 0000.0001) %MON dynstat_salt_min             =   0.0000000000000E+00
(PID.TID 0000.0001) %MON dynstat_salt_mean            =   0.0000000000000E+00
(PID.TID 0000.0001) %MON dynstat_salt_sd              =   0.0000000000000E+00
(PID.TID 0000.0001) %MON dynstat_salt_del2            =   0.0000000000000E+00
(PID.TID 0000.0001) %MON trAdv_CFL_u_max              =   2.9475376330975E-01
(PID.TID 0000.0001) %MON trAdv_CFL_v_max              =   3.1065555813598E-01
(PID.TID 0000.0001) %MON trAdv_CFL_w_max              =   6.9402220459778E-02
(PID.TID 0000.0001) %MON advcfl_uvel_max              =   2.7071123507450E-01
(PID.TID 0000.0001) %MON advcfl_vvel_max              =   2.2552687975330E-01
(PID.TID 0000.0001) %MON advcfl_wvel_max              =   6.9994571746050E-02
(PID.TID 0000.0001) %MON advcfl_W_hf_max              =   6.9402220459778E-02
(PID.TID 0000.0001) %MON am_eta_mean                  =  -2.9471602321226E+09
(PID.TID 0000.0001) %MON am_uZo_mean                  =   2.8061560656051E+11
(PID.TID 0000.0001) %MON am_tot_mean                  =   2.7766844632839E+11
(PID.TID 0000.0001) %MON pe_b_mean                    =   2.6031002042697E+00
(PID.TID 0000.0001) %MON ke_max                       =   3.2295141567133E+03
(PID.TID 0000.0001) %MON ke_mean                      =   1.3410014515303E+02
(PID.TID 0000.0001) %MON ke_vol                       =   5.0990436378172E+19
(PID.TID 0000.0001) %MON vort_r_min                   =  -1.7787620496020E-04
(PID.TID 0000.0001) %MON vort_r_max                   =   2.2298175536379E-04
(PID.TID 0000.0001) %MON vort_a_mean                  =  -5.6381168997058E-20
(PID.TID 0000.0001) %MON vort_a_sd                    =   8.8595083147284E-05
(PID.TID 0000.0001) %MON vort_p_mean                  =  -5.3929781854990E-20
(PID.TID 0000.0001) %MON vort_p_sd                    =   8.8666129768718E-05
(PID.TID 0000.0001) %MON surfExpan_theta_mean         =  -3.7709897132536E-03
(PID.TID 0000.0001) %MON surfExpan_salt_mean          =   0.0000000000000E+00
(PID.TID 0000.0001) %MON surfExpan_Heat_mean          =  -5.6866353067110E-01
(PID.TID 0000.0001) %MON En_Budget_T2PE_mean          =   2.5902662858126E-01
(PID.TID 0000.0001) // =======================================================
(PID.TID 0000.0001) // End MONITOR dynamic field statistics
(PID.TID 0000.0001) // =======================================================
 cg2d: Sum(rhs),rhsMax =   6.05359673500061E-09  1.56200672764254E+04
(PID.TID 0000.0001)      cg2d_init_res =   2.36263117479675E+03
(PID.TID 0000.0001)      cg2d_iters(min,last) =      -1      16
(PID.TID 0000.0001)      cg2d_last_res =   5.04117578895699E-11
(PID.TID 0000.0001) // =======================================================
(PID.TID 0000.0001) // Begin MONITOR dynamic field statistics
(PID.TID 0000.0001) // =======================================================
(PID.TID 0000.0001) %MON time_tsnumber                =                276493
(PID.TID 0000.0001) %MON time_secondsf                =   1.2442185000000E+08
(PID.TID 0000.0001) %MON dynstat_eta_max              =   2.4287755801409E+03
(PID.TID 0000.0001) %MON dynstat_eta_min              =  -3.3762801113417E+03
(PID.TID 0000.0001) %MON dynstat_eta_mean             =  -2.5705212449625E-13
(PID.TID 0000.0001) %MON dynstat_eta_sd               =   7.8209885773573E+02
(PID.TID 0000.0001) %MON dynstat_eta_del2             =   2.1005775582423E+00
(PID.TID 0000.0001) %MON dynstat_uvel_max             =   6.7000623952193E+01
(PID.TID 0000.0001) %MON dynstat_uvel_min             =  -6.7053452568248E+01
(PID.TID 0000.0001) %MON dynstat_uvel_mean            =   2.0426468911718E+00
(PID.TID 0000.0001) %MON dynstat_uvel_sd              =   1.1144615191536E+01
(PID.TID 0000.0001) %MON dynstat_uvel_del2            =   1.0701417127324E-02
(PID.TID 0000.0001) %MON dynstat_vvel_max             =   7.2335911565354E+01
(PID.TID 0000.0001) %MON dynstat_vvel_min             =  -6.9008514149171E+01
(PID.TID 0000.0001) %MON dynstat_vvel_mean            =   2.0021733408998E+00
(PID.TID 0000.0001) %MON dynstat_vvel_sd              =   1.1653094305659E+01
(PID.TID 0000.0001) %MON dynstat_vvel_del2            =   1.0971918447378E-02
(PID.TID 0000.0001) %MON dynstat_wvel_max             =   7.7459054108818E-01
(PID.TID 0000.0001) %MON dynstat_wvel_min             =  -6.8654473797155E-01
(PID.TID 0000.0001) %MON dynstat_wvel_mean            =  -1.1947941859379E-17
(PID.TID 0000.0001) %MON dynstat_wvel_sd              =   6.4295884840779E-02
(PID.TID 0000.0001) %MON dynstat_wvel_del2            =   2.0662313974548E-04
(PID.TID 0000.0001) %MON dynstat_theta_max            =   5.9715838894844E+02
(PID.TID 0000.0001) %MON dynstat_theta_min            =   2.6196686674633E+02
(PID.TID 0000.0001) %MON dynstat_theta_mean           =   3.2765744257033E+02
(PID.TID 0000.0001) %MON dynstat_theta_sd             =   6.3758196175475E+01
(PID.TID 0000.0001) %MON dynstat_theta_del2           =   5.1791670774060E-03
(PID.TID 0000.0001) %MON dynstat_salt_max             =   0.0000000000000E+00
(PID.TID 0000.0001) %MON dynstat_salt_min             =   0.0000000000000E+00
(PID.TID 0000.0001) %MON dynstat_salt_mean            =   0.0000000000000E+00
(PID.TID 0000.0001) %MON dynstat_salt_sd              =   0.0000000000000E+00
(PID.TID 0000.0001) %MON dynstat_salt_del2            =   0.0000000000000E+00
(PID.TID 0000.0001) %MON trAdv_CFL_u_max              =   2.9499996488215E-01
(PID.TID 0000.0001) %MON trAdv_CFL_v_max              =   3.1088633199084E-01
(PID.TID 0000.0001) %MON trAdv_CFL_w_max              =   6.9125027693292E-02
(PID.TID 0000.0001) %MON advcfl_uvel_max              =   2.7081285759324E-01
(PID.TID 0000.0001) %MON advcfl_vvel_max              =   2.2540138630626E-01
(PID.TID 0000.0001) %MON advcfl_wvel_max              =   6.9713148697936E-02
(PID.TID 0000.0001) %MON advcfl_W_hf_max              =   6.9125027693292E-02
(PID.TID 0000.0001) %MON am_eta_mean                  =  -2.9465316350990E+09
(PID.TID 0000.0001) %MON am_uZo_mean                  =   2.8060832888031E+11
(PID.TID 0000.0001) %MON am_tot_mean                  =   2.7766179724521E+11
(PID.TID 0000.0001) %MON pe_b_mean                    =   2.5898542815445E+00
(PID.TID 0000.0001) %MON ke_max                       =   3.2267399696612E+03
(PID.TID 0000.0001) %MON ke_mean                      =   1.3405378161566E+02
(PID.TID 0000.0001) %MON ke_vol                       =   5.0990436378172E+19
(PID.TID 0000.0001) %MON vort_r_min                   =  -1.7771417004336E-04
(PID.TID 0000.0001) %MON vort_r_max                   =   2.2367315423748E-04
(PID.TID 0000.0001) %MON vort_a_mean                  =  -8.5797431082479E-20
(PID.TID 0000.0001) %MON vort_a_sd                    =   8.8592590505621E-05
(PID.TID 0000.0001) %MON vort_p_mean                  =  -8.8248733958651E-20
(PID.TID 0000.0001) %MON vort_p_sd                    =   8.8663514553887E-05
(PID.TID 0000.0001) %MON surfExpan_theta_mean         =  -4.0024855769383E-03
(PID.TID 0000.0001) %MON surfExpan_salt_mean          =   0.0000000000000E+00
(PID.TID 0000.0001) %MON surfExpan_Heat_mean          =  -5.6293361232753E-01
(PID.TID 0000.0001) %MON En_Budget_T2PE_mean          =   2.4105861051210E-01
(PID.TID 0000.0001) // =======================================================
(PID.TID 0000.0001) // End MONITOR dynamic field statistics
(PID.TID 0000.0001) // =======================================================
 Compute Stats, Diag. #     23  ETAN      vol(   0 ): 5.099E+14  Parms: SM      M1      
 Compute Stats, Diag. #     29  UVEL      vol(   0 ): 5.099E+19  Parms: UUR     MR      
 Compute Stats, Diag. #     30  VVEL      vol(   0 ): 5.099E+19  Parms: VVR     MR      
 Compute Stats, Diag. #     31  WVEL      vol(   0 ): 4.972E+19  Parms: WM      LR      
 Compute Stats, Diag. #     26  THETA     vol(   0 ): 5.099E+19  Parms: SMR     MR      
 cg2d: Sum(rhs),rhsMax =   7.79982656240463E-09  1.56861011351516E+04
(PID.TID 0000.0001)      cg2d_init_res =   2.34722573117702E+03
(PID.TID 0000.0001)      cg2d_iters(min,last) =      -1      16
(PID.TID 0000.0001)      cg2d_last_res =   4.98419636076138E-11
(PID.TID 0000.0001) // =======================================================
(PID.TID 0000.0001) // Begin MONITOR dynamic field statistics
(PID.TID 0000.0001) // =======================================================
(PID.TID 0000.0001) %MON time_tsnumber                =                276494
(PID.TID 0000.0001) %MON time_secondsf                =   1.2442230000000E+08
(PID.TID 0000.0001) %MON dynstat_eta_max              =   2.4240984694064E+03
(PID.TID 0000.0001) %MON dynstat_eta_min              =  -3.3871134169733E+03
(PID.TID 0000.0001) %MON dynstat_eta_mean             =  -9.6394546686094E-14
(PID.TID 0000.0001) %MON dynstat_eta_sd               =   7.8055641932677E+02
(PID.TID 0000.0001) %MON dynstat_eta_del2             =   2.1059796445131E+00
(PID.TID 0000.0001) %MON dynstat_uvel_max             =   6.6993702774843E+01
(PID.TID 0000.0001) %MON dynstat_uvel_min             =  -6.7070397888947E+01
(PID.TID 0000.0001) %MON dynstat_uvel_mean            =   2.0421798806036E+00
(PID.TID 0000.0001) %MON dynstat_uvel_sd              =   1.1142410266939E+01
(PID.TID 0000.0001) %MON dynstat_uvel_del2            =   1.0699538771406E-02
(PID.TID 0000.0001) %MON dynstat_vvel_max             =   7.2342967221159E+01
(PID.TID 0000.0001) %MON dynstat_vvel_min             =  -6.9055424227067E+01
(PID.TID 0000.0001) %MON dynstat_vvel_mean            =   2.0012962812367E+00
(PID.TID 0000.0001) %MON dynstat_vvel_sd              =   1.1651109852496E+01
(PID.TID 0000.0001) %MON dynstat_vvel_del2            =   1.0967894562598E-02
(PID.TID 0000.0001) %MON dynstat_wvel_max             =   7.7141802245690E-01
(PID.TID 0000.0001) %MON dynstat_wvel_min             =  -6.8672131345020E-01
(PID.TID 0000.0001) %MON dynstat_wvel_mean            =  -4.1033335678675E-18
(PID.TID 0000.0001) %MON dynstat_wvel_sd              =   6.4405654188446E-02
(PID.TID 0000.0001) %MON dynstat_wvel_del2            =   2.0676441695517E-04
(PID.TID 0000.0001) %MON dynstat_theta_max            =   5.9727994013463E+02
(PID.TID 0000.0001) %MON dynstat_theta_min            =   2.6198005008522E+02
(PID.TID 0000.0001) %MON dynstat_theta_mean           =   3.2765718990351E+02
(PID.TID 0000.0001) %MON dynstat_theta_sd             =   6.3758256181800E+01
(PID.TID 0000.0001) %MON dynstat_theta_del2           =   5.1787587223272E-03
(PID.TID 0000.0001) %MON dynstat_salt_max             =   0.0000000000000E+00
(PID.TID 0000.0001) %MON dynstat_salt_min             =   0.0000000000000E+00
(PID.TID 0000.0001) %MON dynstat_salt_mean            =   0.0000000000000E+00
(PID.TID 0000.0001) %MON dynstat_salt_sd              =   0.0000000000000E+00
(PID.TID 0000.0001) %MON dynstat_salt_del2            =   0.0000000000000E+00
(PID.TID 0000.0001) %MON trAdv_CFL_u_max              =   2.9523237737790E-01
(PID.TID 0000.0001) %MON trAdv_CFL_v_max              =   3.1110587534662E-01
(PID.TID 0000.0001) %MON trAdv_CFL_w_max              =   6.8843276170440E-02
(PID.TID 0000.0001) %MON advcfl_uvel_max              =   2.7088129569070E-01
(PID.TID 0000.0001) %MON advcfl_vvel_max              =   2.2528729929146E-01
(PID.TID 0000.0001) %MON advcfl_wvel_max              =   6.9427622021121E-02
(PID.TID 0000.0001) %MON advcfl_W_hf_max              =   6.8843276170440E-02
(PID.TID 0000.0001) %MON am_eta_mean                  =  -2.9458368974800E+09
(PID.TID 0000.0001) %MON am_uZo_mean                  =   2.8060095926802E+11
(PID.TID 0000.0001) %MON am_tot_mean                  =   2.7765512237054E+11
(PID.TID 0000.0001) %MON pe_b_mean                    =   2.5796490458335E+00
(PID.TID 0000.0001) %MON ke_max                       =   3.2237436771762E+03
(PID.TID 0000.0001) %MON ke_mean                      =   1.3400338621627E+02
(PID.TID 0000.0001) %MON ke_vol                       =   5.0990436378172E+19
(PID.TID 0000.0001) %MON vort_r_min                   =  -1.7748752321961E-04
(PID.TID 0000.0001) %MON vort_r_max                   =   2.2433861923838E-04
(PID.TID 0000.0001) %MON vort_a_mean                  =  -2.9416262085421E-20
(PID.TID 0000.0001) %MON vort_a_sd                    =   8.8590091115353E-05
(PID.TID 0000.0001) %MON vort_p_mean                  =  -3.9221659532648E-20
(PID.TID 0000.0001) %MON vort_p_sd                    =   8.8660949139570E-05
(PID.TID 0000.0001) %MON surfExpan_theta_mean         =  -4.0264844711729E-03
(PID.TID 0000.0001) %MON surfExpan_salt_mean          =   0.0000000000000E+00
(PID.TID 0000.0001) %MON surfExpan_Heat_mean          =  -5.3550686944998E-01
(PID.TID 0000.0001) %MON En_Budget_T2PE_mean          =   2.3275671361503E-01
(PID.TID 0000.0001) // =======================================================
(PID.TID 0000.0001) // End MONITOR dynamic field statistics
(PID.TID 0000.0001) // =======================================================
 cg2d: Sum(rhs),rhsMax =   4.19095158576965E-09  1.57493270036939E+04
(PID.TID 0000.0001)      cg2d_init_res =   2.32436193440324E+03
(PID.TID 0000.0001)      cg2d_iters(min,last) =      -1      16
(PID.TID 0000.0001)      cg2d_last_res =   4.94428860148717E-11
(PID.TID 0000.0001) // =======================================================
(PID.TID 0000.0001) // Begin MONITOR dynamic field statistics
(PID.TID 0000.0001) // =======================================================
(PID.TID 0000.0001) %MON time_tsnumber                =                276495
(PID.TID 0000.0001) %MON time_secondsf                =   1.2442275000000E+08
(PID.TID 0000.0001) %MON dynstat_eta_max              =   2.4206877922998E+03
(PID.TID 0000.0001) %MON dynstat_eta_min              =  -3.3987346292877E+03
(PID.TID 0000.0001) %MON dynstat_eta_mean             =  -2.3134691204662E-13
(PID.TID 0000.0001) %MON dynstat_eta_sd               =   7.7945774798844E+02
(PID.TID 0000.0001) %MON dynstat_eta_del2             =   2.1086958821991E+00
(PID.TID 0000.0001) %MON dynstat_uvel_max             =   6.6988996970015E+01
(PID.TID 0000.0001) %MON dynstat_uvel_min             =  -6.7079238345051E+01
(PID.TID 0000.0001) %MON dynstat_uvel_mean            =   2.0417154267468E+00
(PID.TID 0000.0001) %MON dynstat_uvel_sd              =   1.1140041039836E+01
(PID.TID 0000.0001) %MON dynstat_uvel_del2            =   1.0697769410110E-02
(PID.TID 0000.0001) %MON dynstat_vvel_max             =   7.2343430350840E+01
(PID.TID 0000.0001) %MON dynstat_vvel_min             =  -6.9098862137638E+01
(PID.TID 0000.0001) %MON dynstat_vvel_mean            =   2.0003819467892E+00
(PID.TID 0000.0001) %MON dynstat_vvel_sd              =   1.1648952822090E+01
(PID.TID 0000.0001) %MON dynstat_vvel_del2            =   1.0963885629509E-02
(PID.TID 0000.0001) %MON dynstat_wvel_max             =   7.7068112553044E-01
(PID.TID 0000.0001) %MON dynstat_wvel_min             =  -6.8669033818349E-01
(PID.TID 0000.0001) %MON dynstat_wvel_mean            =  -1.4884641373637E-18
(PID.TID 0000.0001) %MON dynstat_wvel_sd              =   6.4525658047886E-02
(PID.TID 0000.0001) %MON dynstat_wvel_del2            =   2.0687563430040E-04
(PID.TID 0000.0001) %MON dynstat_theta_max            =   5.9739407400900E+02
(PID.TID 0000.0001) %MON dynstat_theta_min            =   2.6199388917577E+02
(PID.TID 0000.0001) %MON dynstat_theta_mean           =   3.2765693595059E+02
(PID.TID 0000.0001) %MON dynstat_theta_sd             =   6.3758317089385E+01
(PID.TID 0000.0001) %MON dynstat_theta_del2           =   5.1780995022539E-03
(PID.TID 0000.0001) %MON dynstat_salt_max             =   0.0000000000000E+00
(PID.TID 0000.0001) %MON dynstat_salt_min             =   0.0000000000000E+00
(PID.TID 0000.0001) %MON dynstat_salt_mean            =   0.0000000000000E+00
(PID.TID 0000.0001) %MON dynstat_salt_sd              =   0.0000000000000E+00
(PID.TID 0000.0001) %MON dynstat_salt_del2            =   0.0000000000000E+00
(PID.TID 0000.0001) %MON trAdv_CFL_u_max              =   2.9544379799418E-01
(PID.TID 0000.0001) %MON trAdv_CFL_v_max              =   3.1131010270834E-01
(PID.TID 0000.0001) %MON trAdv_CFL_w_max              =   6.8564128627313E-02
(PID.TID 0000.0001) %MON advcfl_uvel_max              =   2.7091700017851E-01
(PID.TID 0000.0001) %MON advcfl_vvel_max              =   2.2518900528618E-01
(PID.TID 0000.0001) %MON advcfl_wvel_max              =   6.9361301297740E-02
(PID.TID 0000.0001) %MON advcfl_W_hf_max              =   6.8564128627313E-02
(PID.TID 0000.0001) %MON am_eta_mean                  =  -2.9451255648436E+09
(PID.TID 0000.0001) %MON am_uZo_mean                  =   2.8059354711039E+11
(PID.TID 0000.0001) %MON am_tot_mean                  =   2.7764842154555E+11
(PID.TID 0000.0001) %MON pe_b_mean                    =   2.5723921922059E+00
(PID.TID 0000.0001) %MON ke_max                       =   3.2204917853430E+03
(PID.TID 0000.0001) %MON ke_mean                      =   1.3394909106596E+02
(PID.TID 0000.0001) %MON ke_vol                       =   5.0990436378172E+19
(PID.TID 0000.0001) %MON vort_r_min                   =  -1.7719436122126E-04
(PID.TID 0000.0001) %MON vort_r_max                   =   2.2497839427394E-04
(PID.TID 0000.0001) %MON vort_a_mean                  =  -1.8140028286010E-19
(PID.TID 0000.0001) %MON vort_a_sd                    =   8.8587594365176E-05
(PID.TID 0000.0001) %MON vort_p_mean                  =  -1.7894882155029E-19
(PID.TID 0000.0001) %MON vort_p_sd                    =   8.8658436980365E-05
(PID.TID 0000.0001) %MON surfExpan_theta_mean         =  -3.8773064707866E-03
(PID.TID 0000.0001) %MON surfExpan_salt_mean          =   0.0000000000000E+00
(PID.TID 0000.0001) %MON surfExpan_Heat_mean          =  -4.9047383809284E-01
(PID.TID 0000.0001) %MON En_Budget_T2PE_mean          =   2.3346027456821E-01
(PID.TID 0000.0001) // =======================================================
(PID.TID 0000.0001) // End MONITOR dynamic field statistics
(PID.TID 0000.0001) // =======================================================
 cg2d: Sum(rhs),rhsMax =   4.30736690759659E-09  1.58082852392885E+04
(PID.TID 0000.0001)      cg2d_init_res =   2.29689832987077E+03
(PID.TID 0000.0001)      cg2d_iters(min,last) =      -1      16
(PID.TID 0000.0001)      cg2d_last_res =   4.93697066946099E-11
(PID.TID 0000.0001) // =======================================================
(PID.TID 0000.0001) // Begin MONITOR dynamic field statistics
(PID.TID 0000.0001) // =======================================================
(PID.TID 0000.0001) %MON time_tsnumber                =                276496
(PID.TID 0000.0001) %MON time_secondsf                =   1.2442320000000E+08
(PID.TID 0000.0001) %MON dynstat_eta_max              =   2.4184705651201E+03
(PID.TID 0000.0001) %MON dynstat_eta_min              =  -3.4103153301293E+03
(PID.TID 0000.0001) %MON dynstat_eta_mean             =  -1.6708388092256E-13
(PID.TID 0000.0001) %MON dynstat_eta_sd               =   7.7878558949305E+02
(PID.TID 0000.0001) %MON dynstat_eta_del2             =   2.1091209713910E+00
(PID.TID 0000.0001) %MON dynstat_uvel_max             =   6.6985766743360E+01
(PID.TID 0000.0001) %MON dynstat_uvel_min             =  -6.7080367082126E+01
(PID.TID 0000.0001) %MON dynstat_uvel_mean            =   2.0412488701730E+00
(PID.TID 0000.0001) %MON dynstat_uvel_sd              =   1.1137524381062E+01
(PID.TID 0000.0001) %MON dynstat_uvel_del2            =   1.0696103497645E-02
(PID.TID 0000.0001) %MON dynstat_vvel_max             =   7.2337748048309E+01
(PID.TID 0000.0001) %MON dynstat_vvel_min             =  -6.9138296188618E+01
(PID.TID 0000.0001) %MON dynstat_vvel_mean            =   1.9994311990899E+00
(PID.TID 0000.0001) %MON dynstat_vvel_sd              =   1.1646626077216E+01
(PID.TID 0000.0001) %MON dynstat_vvel_del2            =   1.0959874386662E-02
(PID.TID 0000.0001) %MON dynstat_wvel_max             =   7.7630124502649E-01
(PID.TID 0000.0001) %MON dynstat_wvel_min             =  -6.8645081920789E-01
(PID.TID 0000.0001) %MON dynstat_wvel_mean            =  -4.6263074539683E-19
(PID.TID 0000.0001) %MON dynstat_wvel_sd              =   6.4651854531250E-02
(PID.TID 0000.0001) %MON dynstat_wvel_del2            =   2.0695682400880E-04
(PID.TID 0000.0001) %MON dynstat_theta_max            =   5.9750283462421E+02
(PID.TID 0000.0001) %MON dynstat_theta_min            =   2.6200837289517E+02
(PID.TID 0000.0001) %MON dynstat_theta_mean           =   3.2765668101939E+02
(PID.TID 0000.0001) %MON dynstat_theta_sd             =   6.3758378505372E+01
(PID.TID 0000.0001) %MON dynstat_theta_del2           =   5.1772417778822E-03
(PID.TID 0000.0001) %MON dynstat_salt_max             =   0.0000000000000E+00
(PID.TID 0000.0001) %MON dynstat_salt_min             =   0.0000000000000E+00
(PID.TID 0000.0001) %MON dynstat_salt_mean            =   0.0000000000000E+00
(PID.TID 0000.0001) %MON dynstat_salt_sd              =   0.0000000000000E+00
(PID.TID 0000.0001) %MON dynstat_salt_del2            =   0.0000000000000E+00
(PID.TID 0000.0001) %MON trAdv_CFL_u_max              =   2.9562878578288E-01
(PID.TID 0000.0001) %MON trAdv_CFL_v_max              =   3.1149635218365E-01
(PID.TID 0000.0001) %MON trAdv_CFL_w_max              =   6.9062209155478E-02
(PID.TID 0000.0001) %MON advcfl_uvel_max              =   2.7092155887759E-01
(PID.TID 0000.0001) %MON advcfl_vvel_max              =   2.2510991222629E-01
(PID.TID 0000.0001) %MON advcfl_wvel_max              =   6.9867112052384E-02
(PID.TID 0000.0001) %MON advcfl_W_hf_max              =   6.9062209155478E-02
(PID.TID 0000.0001) %MON am_eta_mean                  =  -2.9444477068591E+09
(PID.TID 0000.0001) %MON am_uZo_mean                  =   2.8058614298194E+11
(PID.TID 0000.0001) %MON am_tot_mean                  =   2.7764169527508E+11
(PID.TID 0000.0001) %MON pe_b_mean                    =   2.5679575458067E+00
(PID.TID 0000.0001) %MON ke_max                       =   3.2169477445343E+03
(PID.TID 0000.0001) %MON ke_mean                      =   1.3389111165612E+02
(PID.TID 0000.0001) %MON ke_vol                       =   5.0990436378172E+19
(PID.TID 0000.0001) %MON vort_r_min                   =  -1.7683299859603E-04
(PID.TID 0000.0001) %MON vort_r_max                   =   2.2559273635603E-04
(PID.TID 0000.0001) %MON vort_a_mean                  =   4.4124393128132E-20
(PID.TID 0000.0001) %MON vort_a_sd                    =   8.8585107575669E-05
(PID.TID 0000.0001) %MON vort_p_mean                  =   4.6575720646966E-20
(PID.TID 0000.0001) %MON vort_p_sd                    =   8.8655979564008E-05
(PID.TID 0000.0001) %MON surfExpan_theta_mean         =  -3.5976974505032E-03
(PID.TID 0000.0001) %MON surfExpan_salt_mean          =   0.0000000000000E+00
(PID.TID 0000.0001) %MON surfExpan_Heat_mean          =  -4.3259998107941E-01
(PID.TID 0000.0001) %MON En_Budget_T2PE_mean          =   2.4245117139394E-01
(PID.TID 0000.0001) // =======================================================
(PID.TID 0000.0001) // End MONITOR dynamic field statistics
(PID.TID 0000.0001) // =======================================================
(PID.TID 0000.0001) DIAGSTATS_CLOSE_IO: close file: dynStDiag.0000276480.txt , unit=     9
(PID.TID 0000.0001) %CHECKPOINT    276496 ckptA
(PID.TID 0000.0001)   Seconds in section "ALL                    [THE_MODEL_MAIN]":
(PID.TID 0000.0001)           User time:   12.8491426771507
(PID.TID 0000.0001)         System time:  0.000000000000000E+000
(PID.TID 0000.0001)     Wall clock time:   13.5841898918152
(PID.TID 0000.0001)          No. starts:           1
(PID.TID 0000.0001)           No. stops:           1
(PID.TID 0000.0001)   Seconds in section "INITIALISE_FIXED       [THE_MODEL_MAIN]":
(PID.TID 0000.0001)           User time:  0.217233993113041
(PID.TID 0000.0001)         System time:  0.000000000000000E+000
(PID.TID 0000.0001)     Wall clock time:  0.391651868820190
(PID.TID 0000.0001)          No. starts:           1
(PID.TID 0000.0001)           No. stops:           1
(PID.TID 0000.0001)   Seconds in section "THE_MAIN_LOOP          [THE_MODEL_MAIN]":
(PID.TID 0000.0001)           User time:   12.6318641901016
(PID.TID 0000.0001)         System time:  0.000000000000000E+000
(PID.TID 0000.0001)     Wall clock time:   13.1924889087677
(PID.TID 0000.0001)          No. starts:           1
(PID.TID 0000.0001)           No. stops:           1
(PID.TID 0000.0001)   Seconds in section "INITIALISE_VARIA    [THE_MAIN_LOOP]":
(PID.TID 0000.0001)           User time:  0.460703015327454
(PID.TID 0000.0001)         System time:  0.000000000000000E+000
(PID.TID 0000.0001)     Wall clock time:  0.650363922119141
(PID.TID 0000.0001)          No. starts:           1
(PID.TID 0000.0001)           No. stops:           1
(PID.TID 0000.0001)   Seconds in section "MAIN LOOP           [THE_MAIN_LOOP]":
(PID.TID 0000.0001)           User time:   12.1711348891258
(PID.TID 0000.0001)         System time:  0.000000000000000E+000
(PID.TID 0000.0001)     Wall clock time:   12.5420970916748
(PID.TID 0000.0001)          No. starts:           1
(PID.TID 0000.0001)           No. stops:           1
(PID.TID 0000.0001)   Seconds in section "MAIN_DO_LOOP        [THE_MAIN_LOOP]":
(PID.TID 0000.0001)           User time:   12.1709832549095
(PID.TID 0000.0001)         System time:  0.000000000000000E+000
(PID.TID 0000.0001)     Wall clock time:   12.5419363975525
(PID.TID 0000.0001)          No. starts:          16
(PID.TID 0000.0001)           No. stops:          16
(PID.TID 0000.0001)   Seconds in section "FORWARD_STEP        [MAIN_DO_LOOP]":
(PID.TID 0000.0001)           User time:   12.1706945896149
(PID.TID 0000.0001)         System time:  0.000000000000000E+000
(PID.TID 0000.0001)     Wall clock time:   12.5416266918182
(PID.TID 0000.0001)          No. starts:          16
(PID.TID 0000.0001)           No. stops:          16
(PID.TID 0000.0001)   Seconds in section "DO_STATEVARS_DIAGS  [FORWARD_STEP]":
(PID.TID 0000.0001)           User time:   1.01350659132004
(PID.TID 0000.0001)         System time:  0.000000000000000E+000
(PID.TID 0000.0001)     Wall clock time:   1.03708434104919
(PID.TID 0000.0001)          No. starts:          48
(PID.TID 0000.0001)           No. stops:          48
(PID.TID 0000.0001)   Seconds in section "LOAD_FIELDS_DRIVER  [FORWARD_STEP]":
(PID.TID 0000.0001)           User time:  1.372694969177246E-004
(PID.TID 0000.0001)         System time:  0.000000000000000E+000
(PID.TID 0000.0001)     Wall clock time:  1.354217529296875E-004
(PID.TID 0000.0001)          No. starts:          16
(PID.TID 0000.0001)           No. stops:          16
(PID.TID 0000.0001)   Seconds in section "DO_ATMOSPHERIC_PHYS [FORWARD_STEP]":
(PID.TID 0000.0001)           User time:  4.633802175521851E-002
(PID.TID 0000.0001)         System time:  0.000000000000000E+000
(PID.TID 0000.0001)     Wall clock time:  4.708909988403320E-002
(PID.TID 0000.0001)          No. starts:          16
(PID.TID 0000.0001)           No. stops:          16
(PID.TID 0000.0001)   Seconds in section "DO_OCEANIC_PHYS     [FORWARD_STEP]":
(PID.TID 0000.0001)           User time:  2.854466438293457E-004
(PID.TID 0000.0001)         System time:  0.000000000000000E+000
(PID.TID 0000.0001)     Wall clock time:  3.056526184082031E-004
(PID.TID 0000.0001)          No. starts:          16
(PID.TID 0000.0001)           No. stops:          16
(PID.TID 0000.0001)   Seconds in section "DYNAMICS            [FORWARD_STEP]":
(PID.TID 0000.0001)           User time:   2.62896692752838
(PID.TID 0000.0001)         System time:  0.000000000000000E+000
(PID.TID 0000.0001)     Wall clock time:   2.65821981430054
(PID.TID 0000.0001)          No. starts:          16
(PID.TID 0000.0001)           No. stops:          16
(PID.TID 0000.0001)   Seconds in section "UPDATE_R_STAR       [FORWARD_STEP]":
(PID.TID 0000.0001)           User time:  0.249868690967560
(PID.TID 0000.0001)         System time:  0.000000000000000E+000
(PID.TID 0000.0001)     Wall clock time:  0.249988079071045
(PID.TID 0000.0001)          No. starts:          16
(PID.TID 0000.0001)           No. stops:          16
(PID.TID 0000.0001)   Seconds in section "UPDATE_CG2D         [FORWARD_STEP]":
(PID.TID 0000.0001)           User time:  0.103121340274811
(PID.TID 0000.0001)         System time:  0.000000000000000E+000
(PID.TID 0000.0001)     Wall clock time:  0.104638576507568
(PID.TID 0000.0001)          No. starts:          16
(PID.TID 0000.0001)           No. stops:          16
(PID.TID 0000.0001)   Seconds in section "SOLVE_FOR_PRESSURE  [FORWARD_STEP]":
(PID.TID 0000.0001)           User time:  0.426168859004974
(PID.TID 0000.0001)         System time:  0.000000000000000E+000
(PID.TID 0000.0001)     Wall clock time:  0.428936004638672
(PID.TID 0000.0001)          No. starts:          16
(PID.TID 0000.0001)           No. stops:          16
(PID.TID 0000.0001)   Seconds in section "MOM_CORRECTION_STEP [FORWARD_STEP]":
(PID.TID 0000.0001)           User time:   2.98420572280884
(PID.TID 0000.0001)         System time:  0.000000000000000E+000
(PID.TID 0000.0001)     Wall clock time:   3.00955295562744
(PID.TID 0000.0001)          No. starts:          16
(PID.TID 0000.0001)           No. stops:          16
(PID.TID 0000.0001)   Seconds in section "SHAP_FILT_UV       [MOM_CORR_STEP]":
(PID.TID 0000.0001)           User time:   2.84808290004730
(PID.TID 0000.0001)         System time:  0.000000000000000E+000
(PID.TID 0000.0001)     Wall clock time:   2.86965608596802
(PID.TID 0000.0001)          No. starts:          16
(PID.TID 0000.0001)           No. stops:          16
(PID.TID 0000.0001)   Seconds in section "INTEGR_CONTINUITY   [FORWARD_STEP]":
(PID.TID 0000.0001)           User time:  0.290857076644897
(PID.TID 0000.0001)         System time:  0.000000000000000E+000
(PID.TID 0000.0001)     Wall clock time:  0.311199665069580
(PID.TID 0000.0001)          No. starts:          16
(PID.TID 0000.0001)           No. stops:          16
(PID.TID 0000.0001)   Seconds in section "CALC_R_STAR         [FORWARD_STEP]":
(PID.TID 0000.0001)           User time:  4.239869117736816E-002
(PID.TID 0000.0001)         System time:  0.000000000000000E+000
(PID.TID 0000.0001)     Wall clock time:  4.655337333679199E-002
(PID.TID 0000.0001)          No. starts:          16
(PID.TID 0000.0001)           No. stops:          16
(PID.TID 0000.0001)   Seconds in section "BLOCKING_EXCHANGES  [FORWARD_STEP]":
(PID.TID 0000.0001)           User time:  0.402749419212341
(PID.TID 0000.0001)         System time:  0.000000000000000E+000
(PID.TID 0000.0001)     Wall clock time:  0.407253265380859
(PID.TID 0000.0001)          No. starts:          32
(PID.TID 0000.0001)           No. stops:          32
(PID.TID 0000.0001)   Seconds in section "THERMODYNAMICS      [FORWARD_STEP]":
(PID.TID 0000.0001)           User time:   1.63692092895508
(PID.TID 0000.0001)         System time:  0.000000000000000E+000
(PID.TID 0000.0001)     Wall clock time:   1.64630985260010
(PID.TID 0000.0001)          No. starts:          16
(PID.TID 0000.0001)           No. stops:          16
(PID.TID 0000.0001)   Seconds in section "TRC_CORRECTION_STEP [FORWARD_STEP]":
(PID.TID 0000.0001)           User time:  4.587173461914062E-004
(PID.TID 0000.0001)         System time:  0.000000000000000E+000
(PID.TID 0000.0001)     Wall clock time:  4.444122314453125E-004
(PID.TID 0000.0001)          No. starts:          16
(PID.TID 0000.0001)           No. stops:          16
(PID.TID 0000.0001)   Seconds in section "SHAP_FILT_TS       [TRC_CORR_STEP]":
(PID.TID 0000.0001)           User time:  1.521110534667969E-004
(PID.TID 0000.0001)         System time:  0.000000000000000E+000
(PID.TID 0000.0001)     Wall clock time:  1.480579376220703E-004
(PID.TID 0000.0001)          No. starts:          16
(PID.TID 0000.0001)           No. stops:          16
(PID.TID 0000.0001)   Seconds in section "MONITOR             [FORWARD_STEP]":
(PID.TID 0000.0001)           User time:   2.17403054237366
(PID.TID 0000.0001)         System time:  0.000000000000000E+000
(PID.TID 0000.0001)     Wall clock time:   2.25683307647705
(PID.TID 0000.0001)          No. starts:          16
(PID.TID 0000.0001)           No. stops:          16
(PID.TID 0000.0001)   Seconds in section "DO_THE_MODEL_IO     [FORWARD_STEP]":
(PID.TID 0000.0001)           User time:  6.336557865142822E-002
(PID.TID 0000.0001)         System time:  0.000000000000000E+000
(PID.TID 0000.0001)     Wall clock time:  0.109786272048950
(PID.TID 0000.0001)          No. starts:          16
(PID.TID 0000.0001)           No. stops:          16
(PID.TID 0000.0001)   Seconds in section "DO_WRITE_PICKUP     [FORWARD_STEP]":
(PID.TID 0000.0001)           User time:  0.102427840232849
(PID.TID 0000.0001)         System time:  0.000000000000000E+000
(PID.TID 0000.0001)     Wall clock time:  0.223593711853027
(PID.TID 0000.0001)          No. starts:          16
(PID.TID 0000.0001)           No. stops:          16
(PID.TID 0000.0001) // ======================================================
(PID.TID 0000.0001) // Tile <-> Tile communication statistics
(PID.TID 0000.0001) // ======================================================
(PID.TID 0000.0001) // o Tile number: 000001
(PID.TID 0000.0001) //         No. X exchanges =              0
(PID.TID 0000.0001) //            Max. X spins =              0
(PID.TID 0000.0001) //            Min. X spins =     1000000000
(PID.TID 0000.0001) //          Total. X spins =              0
(PID.TID 0000.0001) //            Avg. X spins =       0.00E+00
(PID.TID 0000.0001) //         No. Y exchanges =              0
(PID.TID 0000.0001) //            Max. Y spins =              0
(PID.TID 0000.0001) //            Min. Y spins =     1000000000
(PID.TID 0000.0001) //          Total. Y spins =              0
(PID.TID 0000.0001) //            Avg. Y spins =       0.00E+00
(PID.TID 0000.0001) // o Tile number: 000002
(PID.TID 0000.0001) //         No. X exchanges =              0
(PID.TID 0000.0001) //            Max. X spins =              0
(PID.TID 0000.0001) //            Min. X spins =     1000000000
(PID.TID 0000.0001) //          Total. X spins =              0
(PID.TID 0000.0001) //            Avg. X spins =       0.00E+00
(PID.TID 0000.0001) //         No. Y exchanges =              0
(PID.TID 0000.0001) //            Max. Y spins =              0
(PID.TID 0000.0001) //            Min. Y spins =     1000000000
(PID.TID 0000.0001) //          Total. Y spins =              0
(PID.TID 0000.0001) //            Avg. Y spins =       0.00E+00
(PID.TID 0000.0001) // o Tile number: 000003
(PID.TID 0000.0001) //         No. X exchanges =              0
(PID.TID 0000.0001) //            Max. X spins =              0
(PID.TID 0000.0001) //            Min. X spins =     1000000000
(PID.TID 0000.0001) //          Total. X spins =              0
(PID.TID 0000.0001) //            Avg. X spins =       0.00E+00
(PID.TID 0000.0001) //         No. Y exchanges =              0
(PID.TID 0000.0001) //            Max. Y spins =              0
(PID.TID 0000.0001) //            Min. Y spins =     1000000000
(PID.TID 0000.0001) //          Total. Y spins =              0
(PID.TID 0000.0001) //            Avg. Y spins =       0.00E+00
(PID.TID 0000.0001) // o Tile number: 000004
(PID.TID 0000.0001) //         No. X exchanges =              0
(PID.TID 0000.0001) //            Max. X spins =              0
(PID.TID 0000.0001) //            Min. X spins =     1000000000
(PID.TID 0000.0001) //          Total. X spins =              0
(PID.TID 0000.0001) //            Avg. X spins =       0.00E+00
(PID.TID 0000.0001) //         No. Y exchanges =              0
(PID.TID 0000.0001) //            Max. Y spins =              0
(PID.TID 0000.0001) //            Min. Y spins =     1000000000
(PID.TID 0000.0001) //          Total. Y spins =              0
(PID.TID 0000.0001) //            Avg. Y spins =       0.00E+00
(PID.TID 0000.0001) // o Tile number: 000005
(PID.TID 0000.0001) //         No. X exchanges =              0
(PID.TID 0000.0001) //            Max. X spins =              0
(PID.TID 0000.0001) //            Min. X spins =     1000000000
(PID.TID 0000.0001) //          Total. X spins =              0
(PID.TID 0000.0001) //            Avg. X spins =       0.00E+00
(PID.TID 0000.0001) //         No. Y exchanges =              0
(PID.TID 0000.0001) //            Max. Y spins =              0
(PID.TID 0000.0001) //            Min. Y spins =     1000000000
(PID.TID 0000.0001) //          Total. Y spins =              0
(PID.TID 0000.0001) //            Avg. Y spins =       0.00E+00
(PID.TID 0000.0001) // o Tile number: 000006
(PID.TID 0000.0001) //         No. X exchanges =              0
(PID.TID 0000.0001) //            Max. X spins =              0
(PID.TID 0000.0001) //            Min. X spins =     1000000000
(PID.TID 0000.0001) //          Total. X spins =              0
(PID.TID 0000.0001) //            Avg. X spins =       0.00E+00
(PID.TID 0000.0001) //         No. Y exchanges =              0
(PID.TID 0000.0001) //            Max. Y spins =              0
(PID.TID 0000.0001) //            Min. Y spins =     1000000000
(PID.TID 0000.0001) //          Total. Y spins =              0
(PID.TID 0000.0001) //            Avg. Y spins =       0.00E+00
(PID.TID 0000.0001) // o Thread number: 000001
(PID.TID 0000.0001) //            No. barriers =           8354
(PID.TID 0000.0001) //      Max. barrier spins =              1
(PID.TID 0000.0001) //      Min. barrier spins =              1
(PID.TID 0000.0001) //     Total barrier spins =           8354
(PID.TID 0000.0001) //      Avg. barrier spins =       1.00E+00
PROGRAM MAIN: Execution ended Normally
