(PID.TID 0000.0001) 
(PID.TID 0000.0001) // ======================================================
(PID.TID 0000.0001) //                      MITgcm UV
(PID.TID 0000.0001) //                      =========
(PID.TID 0000.0001) // ======================================================
(PID.TID 0000.0001) // execution environment starting up...
(PID.TID 0000.0001) 
(PID.TID 0000.0001) // MITgcmUV version:  checkpoint59a
(PID.TID 0000.0001) // Build user:        jmc
(PID.TID 0000.0001) // Build host:        a54-1727-075
(PID.TID 0000.0001) // Build date:        Fri May  4 17:40:34 EDT 2007
(PID.TID 0000.0001) 
(PID.TID 0000.0001) // =======================================================
(PID.TID 0000.0001) // Execution Environment parameter file "eedata"
(PID.TID 0000.0001) // =======================================================
(PID.TID 0000.0001) ># Example "eedata" file
(PID.TID 0000.0001) ># Lines beginning "#" are comments
(PID.TID 0000.0001) ># nTx - No. threads per process in X
(PID.TID 0000.0001) ># nTy - No. threads per process in Y
(PID.TID 0000.0001) > &EEPARMS
(PID.TID 0000.0001) > useCoupler=.TRUE.,
(PID.TID 0000.0001) > useCubedSphereExchange=.TRUE.,
(PID.TID 0000.0001) ># Activate one line below to support 2, 3 or 6 way multi-threading
(PID.TID 0000.0001) > nTx=1,
(PID.TID 0000.0001) >#nTx=2,
(PID.TID 0000.0001) >#nTx=3,
(PID.TID 0000.0001) >#nTx=6,
(PID.TID 0000.0001) > &
(PID.TID 0000.0001) ># Note: Some systems use & as the
(PID.TID 0000.0001) ># namelist terminator. Other systems
(PID.TID 0000.0001) ># use a / character (as shown here).
(PID.TID 0000.0001) 
(PID.TID 0000.0001) // =======================================================
(PID.TID 0000.0001) // Computational Grid Specification ( see files "SIZE.h" )
(PID.TID 0000.0001) //                                  ( and "eedata"       )
(PID.TID 0000.0001) // =======================================================
(PID.TID 0000.0001)      nPx =    1 ; /* No. processes in X */
(PID.TID 0000.0001)      nPy =    1 ; /* No. processes in Y */
(PID.TID 0000.0001)      nSx =    6 ; /* No. tiles in X per process */
(PID.TID 0000.0001)      nSy =    1 ; /* No. tiles in Y per process */
(PID.TID 0000.0001)      sNx =   32 ; /* Tile size in X */
(PID.TID 0000.0001)      sNy =   32 ; /* Tile size in Y */
(PID.TID 0000.0001)      OLx =    2 ; /* Tile overlap distance in X */
(PID.TID 0000.0001)      OLy =    2 ; /* Tile overlap distance in Y */
(PID.TID 0000.0001)      nTx =    1 ; /* No. threads in X per process */
(PID.TID 0000.0001)      nTy =    1 ; /* No. threads in Y per process */
(PID.TID 0000.0001)       Nr =    5 ; /* No. levels in the vertical   */
(PID.TID 0000.0001)       nX =  192 ; /* Total domain size in X ( = nPx*nSx*sNx ) */
(PID.TID 0000.0001)       nY =   32 ; /* Total domain size in Y ( = nPy*nSy*sNy ) */
(PID.TID 0000.0001)   nTiles =    6 ; /* Total no. tiles per process ( = nSx*nSy ) */
(PID.TID 0000.0001)   nProcs =    1 ; /* Total no. processes ( = nPx*nPy ) */
(PID.TID 0000.0001) nThreads =    1 ; /* Total no. threads per process ( = nTx*nTy ) */
(PID.TID 0000.0001) usingMPI =    F ; /* Flag used to control whether MPI is in use */
(PID.TID 0000.0001)                   /*  note: To execute a program with MPI calls */
(PID.TID 0000.0001)                   /*  it must be launched appropriately e.g     */
(PID.TID 0000.0001)                   /*  "mpirun -np 64 ......"                    */
(PID.TID 0000.0001) useCoupler=   T ; /* Flag used to control communications with */
(PID.TID 0000.0001)                   /*  other model components, through a coupler */
(PID.TID 0000.0001) 
(PID.TID 0000.0001) ======= Starting MPI parallel Run =========
(PID.TID 0000.0001)  My Processor Name =                                        a54-1727-072.acesgrid.org
(PID.TID 0000.0001)  Located at (  0,  0) on processor grid (0:  0,0:  0)
(PID.TID 0000.0001)  Origin at  (   1,   1) on global grid (1: 192,1:  32)
(PID.TID 0000.0001)  North neighbor = processor 0000
(PID.TID 0000.0001)  South neighbor = processor 0000
(PID.TID 0000.0001)   East neighbor = processor 0000
(PID.TID 0000.0001)   West neighbor = processor 0000
(PID.TID 0000.0001) // ======================================================
(PID.TID 0000.0001) // Mapping of tiles to threads
(PID.TID 0000.0001) // ======================================================
(PID.TID 0000.0001) // -o- Thread   1, tiles (   1:   6,   1:   1)
(PID.TID 0000.0001) 
(PID.TID 0000.0001) // ======================================================
(PID.TID 0000.0001) // Tile <-> Tile connectvity table
(PID.TID 0000.0001) // ======================================================
(PID.TID 0000.0001) // Tile number: 000001 (process no. = 000000)
(PID.TID 0000.0001) //        WEST: Tile = 000006, Process = 000000, Comm = put
(PID.TID 0000.0001) //                bi = 000006, bj = 000001
(PID.TID 0000.0001) //        EAST: Tile = 000002, Process = 000000, Comm = put
(PID.TID 0000.0001) //                bi = 000002, bj = 000001
(PID.TID 0000.0001) //       SOUTH: Tile = 000001, Process = 000000, Comm = put
(PID.TID 0000.0001) //                bi = 000001, bj = 000001
(PID.TID 0000.0001) //       NORTH: Tile = 000001, Process = 000000, Comm = put
(PID.TID 0000.0001) //                bi = 000001, bj = 000001
(PID.TID 0000.0001) // Tile number: 000002 (process no. = 000000)
(PID.TID 0000.0001) //        WEST: Tile = 000001, Process = 000000, Comm = put
(PID.TID 0000.0001) //                bi = 000001, bj = 000001
(PID.TID 0000.0001) //        EAST: Tile = 000003, Process = 000000, Comm = put
(PID.TID 0000.0001) //                bi = 000003, bj = 000001
(PID.TID 0000.0001) //       SOUTH: Tile = 000002, Process = 000000, Comm = put
(PID.TID 0000.0001) //                bi = 000002, bj = 000001
(PID.TID 0000.0001) //       NORTH: Tile = 000002, Process = 000000, Comm = put
(PID.TID 0000.0001) //                bi = 000002, bj = 000001
(PID.TID 0000.0001) // Tile number: 000003 (process no. = 000000)
(PID.TID 0000.0001) //        WEST: Tile = 000002, Process = 000000, Comm = put
(PID.TID 0000.0001) //                bi = 000002, bj = 000001
(PID.TID 0000.0001) //        EAST: Tile = 000004, Process = 000000, Comm = put
(PID.TID 0000.0001) //                bi = 000004, bj = 000001
(PID.TID 0000.0001) //       SOUTH: Tile = 000003, Process = 000000, Comm = put
(PID.TID 0000.0001) //                bi = 000003, bj = 000001
(PID.TID 0000.0001) //       NORTH: Tile = 000003, Process = 000000, Comm = put
(PID.TID 0000.0001) //                bi = 000003, bj = 000001
(PID.TID 0000.0001) // Tile number: 000004 (process no. = 000000)
(PID.TID 0000.0001) //        WEST: Tile = 000003, Process = 000000, Comm = put
(PID.TID 0000.0001) //                bi = 000003, bj = 000001
(PID.TID 0000.0001) //        EAST: Tile = 000005, Process = 000000, Comm = put
(PID.TID 0000.0001) //                bi = 000005, bj = 000001
(PID.TID 0000.0001) //       SOUTH: Tile = 000004, Process = 000000, Comm = put
(PID.TID 0000.0001) //                bi = 000004, bj = 000001
(PID.TID 0000.0001) //       NORTH: Tile = 000004, Process = 000000, Comm = put
(PID.TID 0000.0001) //                bi = 000004, bj = 000001
(PID.TID 0000.0001) // Tile number: 000005 (process no. = 000000)
(PID.TID 0000.0001) //        WEST: Tile = 000004, Process = 000000, Comm = put
(PID.TID 0000.0001) //                bi = 000004, bj = 000001
(PID.TID 0000.0001) //        EAST: Tile = 000006, Process = 000000, Comm = put
(PID.TID 0000.0001) //                bi = 000006, bj = 000001
(PID.TID 0000.0001) //       SOUTH: Tile = 000005, Process = 000000, Comm = put
(PID.TID 0000.0001) //                bi = 000005, bj = 000001
(PID.TID 0000.0001) //       NORTH: Tile = 000005, Process = 000000, Comm = put
(PID.TID 0000.0001) //                bi = 000005, bj = 000001
(PID.TID 0000.0001) // Tile number: 000006 (process no. = 000000)
(PID.TID 0000.0001) //        WEST: Tile = 000005, Process = 000000, Comm = put
(PID.TID 0000.0001) //                bi = 000005, bj = 000001
(PID.TID 0000.0001) //        EAST: Tile = 000001, Process = 000000, Comm = put
(PID.TID 0000.0001) //                bi = 000001, bj = 000001
(PID.TID 0000.0001) //       SOUTH: Tile = 000006, Process = 000000, Comm = put
(PID.TID 0000.0001) //                bi = 000006, bj = 000001
(PID.TID 0000.0001) //       NORTH: Tile = 000006, Process = 000000, Comm = put
(PID.TID 0000.0001) //                bi = 000006, bj = 000001
(PID.TID 0000.0001) 
(PID.TID 0000.0001) ===== W2 TILE TOPLOGY =====
(PID.TID 0000.0001)  TILE:    1
(PID.TID 0000.0001)       NEIGHBOUR    1 = TILE    3 Comm = PUT ( PROC =    1)
(PID.TID 0000.0001)       NEIGHBOUR    2 = TILE    6 Comm = PUT ( PROC =    1)
(PID.TID 0000.0001)       NEIGHBOUR    3 = TILE    2 Comm = PUT ( PROC =    1)
(PID.TID 0000.0001)       NEIGHBOUR    4 = TILE    5 Comm = PUT ( PROC =    1)
(PID.TID 0000.0001)  TILE:    2
(PID.TID 0000.0001)       NEIGHBOUR    1 = TILE    3 Comm = PUT ( PROC =    1)
(PID.TID 0000.0001)       NEIGHBOUR    2 = TILE    6 Comm = PUT ( PROC =    1)
(PID.TID 0000.0001)       NEIGHBOUR    3 = TILE    4 Comm = PUT ( PROC =    1)
(PID.TID 0000.0001)       NEIGHBOUR    4 = TILE    1 Comm = PUT ( PROC =    1)
(PID.TID 0000.0001)  TILE:    3
(PID.TID 0000.0001)       NEIGHBOUR    1 = TILE    5 Comm = PUT ( PROC =    1)
(PID.TID 0000.0001)       NEIGHBOUR    2 = TILE    2 Comm = PUT ( PROC =    1)
(PID.TID 0000.0001)       NEIGHBOUR    3 = TILE    4 Comm = PUT ( PROC =    1)
(PID.TID 0000.0001)       NEIGHBOUR    4 = TILE    1 Comm = PUT ( PROC =    1)
(PID.TID 0000.0001)  TILE:    4
(PID.TID 0000.0001)       NEIGHBOUR    1 = TILE    5 Comm = PUT ( PROC =    1)
(PID.TID 0000.0001)       NEIGHBOUR    2 = TILE    2 Comm = PUT ( PROC =    1)
(PID.TID 0000.0001)       NEIGHBOUR    3 = TILE    6 Comm = PUT ( PROC =    1)
(PID.TID 0000.0001)       NEIGHBOUR    4 = TILE    3 Comm = PUT ( PROC =    1)
(PID.TID 0000.0001)  TILE:    5
(PID.TID 0000.0001)       NEIGHBOUR    1 = TILE    1 Comm = PUT ( PROC =    1)
(PID.TID 0000.0001)       NEIGHBOUR    2 = TILE    4 Comm = PUT ( PROC =    1)
(PID.TID 0000.0001)       NEIGHBOUR    3 = TILE    6 Comm = PUT ( PROC =    1)
(PID.TID 0000.0001)       NEIGHBOUR    4 = TILE    3 Comm = PUT ( PROC =    1)
(PID.TID 0000.0001)  TILE:    6
(PID.TID 0000.0001)       NEIGHBOUR    1 = TILE    1 Comm = PUT ( PROC =    1)
(PID.TID 0000.0001)       NEIGHBOUR    2 = TILE    4 Comm = PUT ( PROC =    1)
(PID.TID 0000.0001)       NEIGHBOUR    3 = TILE    2 Comm = PUT ( PROC =    1)
(PID.TID 0000.0001)       NEIGHBOUR    4 = TILE    5 Comm = PUT ( PROC =    1)
(PID.TID 0000.0001) Tile    1(proc =   1) sends points i=  34:  -1, j=  31:  32
(PID.TID 0000.0001)                          to points i=  -1:   0, j=  -1:  34 in tile    3(proc =   1)
(PID.TID 0000.0001) Tile    1(proc =   1) sends points i=  -1:  34, j=   1:   2
(PID.TID 0000.0001)                          to points i=  -1:  34, j=  33:  34 in tile    6(proc =   1)
(PID.TID 0000.0001) Tile    1(proc =   1) sends points i=  31:  32, j=  -1:  34
(PID.TID 0000.0001)                          to points i=  -1:   0, j=  -1:  34 in tile    2(proc =   1)
(PID.TID 0000.0001) Tile    1(proc =   1) sends points i=   1:   2, j=  34:  -1
(PID.TID 0000.0001)                          to points i=  -1:  34, j=  33:  34 in tile    5(proc =   1)
(PID.TID 0000.0001) Tile    2(proc =   1) sends points i=  -1:  34, j=  31:  32
(PID.TID 0000.0001)                          to points i=  -1:  34, j=  -1:   0 in tile    3(proc =   1)
(PID.TID 0000.0001) Tile    2(proc =   1) sends points i=  34:  -1, j=   1:   2
(PID.TID 0000.0001)                          to points i=  33:  34, j=  -1:  34 in tile    6(proc =   1)
(PID.TID 0000.0001) Tile    2(proc =   1) sends points i=  31:  32, j=  34:  -1
(PID.TID 0000.0001)                          to points i=  -1:  34, j=  -1:   0 in tile    4(proc =   1)
(PID.TID 0000.0001) Tile    2(proc =   1) sends points i=   1:   2, j=  -1:  34
(PID.TID 0000.0001)                          to points i=  33:  34, j=  -1:  34 in tile    1(proc =   1)
(PID.TID 0000.0001) Tile    3(proc =   1) sends points i=  34:  -1, j=  31:  32
(PID.TID 0000.0001)                          to points i=  -1:   0, j=  -1:  34 in tile    5(proc =   1)
(PID.TID 0000.0001) Tile    3(proc =   1) sends points i=  -1:  34, j=   1:   2
(PID.TID 0000.0001)                          to points i=  -1:  34, j=  33:  34 in tile    2(proc =   1)
(PID.TID 0000.0001) Tile    3(proc =   1) sends points i=  31:  32, j=  -1:  34
(PID.TID 0000.0001)                          to points i=  -1:   0, j=  -1:  34 in tile    4(proc =   1)
(PID.TID 0000.0001) Tile    3(proc =   1) sends points i=   1:   2, j=  34:  -1
(PID.TID 0000.0001)                          to points i=  -1:  34, j=  33:  34 in tile    1(proc =   1)
(PID.TID 0000.0001) Tile    4(proc =   1) sends points i=  -1:  34, j=  31:  32
(PID.TID 0000.0001)                          to points i=  -1:  34, j=  -1:   0 in tile    5(proc =   1)
(PID.TID 0000.0001) Tile    4(proc =   1) sends points i=  34:  -1, j=   1:   2
(PID.TID 0000.0001)                          to points i=  33:  34, j=  -1:  34 in tile    2(proc =   1)
(PID.TID 0000.0001) Tile    4(proc =   1) sends points i=  31:  32, j=  34:  -1
(PID.TID 0000.0001)                          to points i=  -1:  34, j=  -1:   0 in tile    6(proc =   1)
(PID.TID 0000.0001) Tile    4(proc =   1) sends points i=   1:   2, j=  -1:  34
(PID.TID 0000.0001)                          to points i=  33:  34, j=  -1:  34 in tile    3(proc =   1)
(PID.TID 0000.0001) Tile    5(proc =   1) sends points i=  34:  -1, j=  31:  32
(PID.TID 0000.0001)                          to points i=  -1:   0, j=  -1:  34 in tile    1(proc =   1)
(PID.TID 0000.0001) Tile    5(proc =   1) sends points i=  -1:  34, j=   1:   2
(PID.TID 0000.0001)                          to points i=  -1:  34, j=  33:  34 in tile    4(proc =   1)
(PID.TID 0000.0001) Tile    5(proc =   1) sends points i=  31:  32, j=  -1:  34
(PID.TID 0000.0001)                          to points i=  -1:   0, j=  -1:  34 in tile    6(proc =   1)
(PID.TID 0000.0001) Tile    5(proc =   1) sends points i=   1:   2, j=  34:  -1
(PID.TID 0000.0001)                          to points i=  -1:  34, j=  33:  34 in tile    3(proc =   1)
(PID.TID 0000.0001) Tile    6(proc =   1) sends points i=  -1:  34, j=  31:  32
(PID.TID 0000.0001)                          to points i=  -1:  34, j=  -1:   0 in tile    1(proc =   1)
(PID.TID 0000.0001) Tile    6(proc =   1) sends points i=  34:  -1, j=   1:   2
(PID.TID 0000.0001)                          to points i=  33:  34, j=  -1:  34 in tile    4(proc =   1)
(PID.TID 0000.0001) Tile    6(proc =   1) sends points i=  31:  32, j=  34:  -1
(PID.TID 0000.0001)                          to points i=  -1:  34, j=  -1:   0 in tile    2(proc =   1)
(PID.TID 0000.0001) Tile    6(proc =   1) sends points i=   1:   2, j=  -1:  34
(PID.TID 0000.0001)                          to points i=  33:  34, j=  -1:  34 in tile    5(proc =   1)
(PID.TID 0000.0001) Tile    1(proc =   1)recv to points i=  -1:  34, j=  33:  34from tile   3(proc =   1)
(PID.TID 0000.0001) Tile    1(proc =   1)recv to points i=  -1:  34, j=  -1:   0from tile   6(proc =   1)
(PID.TID 0000.0001) Tile    1(proc =   1)recv to points i=  33:  34, j=  -1:  34from tile   2(proc =   1)
(PID.TID 0000.0001) Tile    1(proc =   1)recv to points i=  -1:   0, j=  -1:  34from tile   5(proc =   1)
(PID.TID 0000.0001) Tile    2(proc =   1)recv to points i=  -1:  34, j=  33:  34from tile   3(proc =   1)
(PID.TID 0000.0001) Tile    2(proc =   1)recv to points i=  -1:  34, j=  -1:   0from tile   6(proc =   1)
(PID.TID 0000.0001) Tile    2(proc =   1)recv to points i=  33:  34, j=  -1:  34from tile   4(proc =   1)
(PID.TID 0000.0001) Tile    2(proc =   1)recv to points i=  -1:   0, j=  -1:  34from tile   1(proc =   1)
(PID.TID 0000.0001) Tile    3(proc =   1)recv to points i=  -1:  34, j=  33:  34from tile   5(proc =   1)
(PID.TID 0000.0001) Tile    3(proc =   1)recv to points i=  -1:  34, j=  -1:   0from tile   2(proc =   1)
(PID.TID 0000.0001) Tile    3(proc =   1)recv to points i=  33:  34, j=  -1:  34from tile   4(proc =   1)
(PID.TID 0000.0001) Tile    3(proc =   1)recv to points i=  -1:   0, j=  -1:  34from tile   1(proc =   1)
(PID.TID 0000.0001) Tile    4(proc =   1)recv to points i=  -1:  34, j=  33:  34from tile   5(proc =   1)
(PID.TID 0000.0001) Tile    4(proc =   1)recv to points i=  -1:  34, j=  -1:   0from tile   2(proc =   1)
(PID.TID 0000.0001) Tile    4(proc =   1)recv to points i=  33:  34, j=  -1:  34from tile   6(proc =   1)
(PID.TID 0000.0001) Tile    4(proc =   1)recv to points i=  -1:   0, j=  -1:  34from tile   3(proc =   1)
(PID.TID 0000.0001) Tile    5(proc =   1)recv to points i=  -1:  34, j=  33:  34from tile   1(proc =   1)
(PID.TID 0000.0001) Tile    5(proc =   1)recv to points i=  -1:  34, j=  -1:   0from tile   4(proc =   1)
(PID.TID 0000.0001) Tile    5(proc =   1)recv to points i=  33:  34, j=  -1:  34from tile   6(proc =   1)
(PID.TID 0000.0001) Tile    5(proc =   1)recv to points i=  -1:   0, j=  -1:  34from tile   3(proc =   1)
(PID.TID 0000.0001) Tile    6(proc =   1)recv to points i=  -1:  34, j=  33:  34from tile   1(proc =   1)
(PID.TID 0000.0001) Tile    6(proc =   1)recv to points i=  -1:  34, j=  -1:   0from tile   4(proc =   1)
(PID.TID 0000.0001) Tile    6(proc =   1)recv to points i=  33:  34, j=  -1:  34from tile   2(proc =   1)
(PID.TID 0000.0001) Tile    6(proc =   1)recv to points i=  -1:   0, j=  -1:  34from tile   5(proc =   1)
(PID.TID 0000.0001) // =======================================================
(PID.TID 0000.0001) // Model parameter file "data"
(PID.TID 0000.0001) // =======================================================
(PID.TID 0000.0001) ># ====================
(PID.TID 0000.0001) ># | Model parameters |
(PID.TID 0000.0001) ># ====================
(PID.TID 0000.0001) >#
(PID.TID 0000.0001) ># Continuous equation parameters
(PID.TID 0000.0001) > &PARM01
(PID.TID 0000.0001) > tRef=289.6, 298.1, 314.5, 335.8, 437.4,
(PID.TID 0000.0001) > sRef=5*0.,
(PID.TID 0000.0001) > no_slip_sides=.FALSE.,
(PID.TID 0000.0001) > no_slip_bottom=.FALSE.,
(PID.TID 0000.0001) > buoyancyRelation='ATMOSPHERIC',
(PID.TID 0000.0001) > eosType='IDEALGAS',
(PID.TID 0000.0001) > atm_Rq=0.6078E-3,
(PID.TID 0000.0001) > Integr_GeoPot=2,
(PID.TID 0000.0001) > selectFindRoSurf=1,
(PID.TID 0000.0001) > gravity=9.81,
(PID.TID 0000.0001) > rhoConst=1.0,
(PID.TID 0000.0001) > rhoConstFresh=1000.,
(PID.TID 0000.0001) > implicitFreeSurface=.TRUE.,
(PID.TID 0000.0001) > exactConserv=.TRUE.,
(PID.TID 0000.0001) > select_rStar=2,
(PID.TID 0000.0001) > nonlinFreeSurf=4,
(PID.TID 0000.0001) > hFacInf=0.2,
(PID.TID 0000.0001) > hFacSup=2.0,
(PID.TID 0000.0001) > uniformLin_PhiSurf=.FALSE.,
(PID.TID 0000.0001) > hFacMin=0.2,
(PID.TID 0000.0001) > saltAdvScheme=3,
(PID.TID 0000.0001) > vectorInvariantMomentum=.TRUE.,
(PID.TID 0000.0001) > useJamartWetPoints=.TRUE.,
(PID.TID 0000.0001) > staggerTimeStep=.TRUE.,
(PID.TID 0000.0001) > readBinaryPrec=64,
(PID.TID 0000.0001) > writeBinaryPrec=64,
(PID.TID 0000.0001) > &
(PID.TID 0000.0001) >
(PID.TID 0000.0001) ># Elliptic solver parameters
(PID.TID 0000.0001) > &PARM02
(PID.TID 0000.0001) > cg2dMaxIters=200,
(PID.TID 0000.0001) >#cg2dTargetResidual=1.E-12,
(PID.TID 0000.0001) > cg2dTargetResWunit=1.E-17,
(PID.TID 0000.0001) > &
(PID.TID 0000.0001) >
(PID.TID 0000.0001) ># Time stepping parameters
(PID.TID 0000.0001) > &PARM03
(PID.TID 0000.0001) > nIter0=0,
(PID.TID 0000.0001) > nTimeSteps=40,
(PID.TID 0000.0001) ># 10yr:
(PID.TID 0000.0001) >#endTime=311040000.,
(PID.TID 0000.0001) > deltaT=450.0,
(PID.TID 0000.0001) > abEps=0.1,
(PID.TID 0000.0001) >#forcing_In_AB=.FALSE.,
(PID.TID 0000.0001) > tracForcingOutAB=1,
(PID.TID 0000.0001) > cAdjFreq=0.,
(PID.TID 0000.0001) > pChkptFreq=2592000.,
(PID.TID 0000.0001) > taveFreq=2592000.,
(PID.TID 0000.0001) > dumpFreq=2592000.,
(PID.TID 0000.0001) > monitorFreq=86400.,
(PID.TID 0000.0001) > monitorFreq=1.,
(PID.TID 0000.0001) > &
(PID.TID 0000.0001) >
(PID.TID 0000.0001) ># Gridding parameters
(PID.TID 0000.0001) > &PARM04
(PID.TID 0000.0001) > usingCurvilinearGrid=.TRUE.,
(PID.TID 0000.0001) > horizGridFile='grid_cs32',
(PID.TID 0000.0001) > delR=100.E2, 250.E2, 300.E2, 200.E2, 150.E2,
(PID.TID 0000.0001) > Ro_SeaLevel=1.E5,
(PID.TID 0000.0001) > rSphere=6370.E3,
(PID.TID 0000.0001) > &
(PID.TID 0000.0001) >
(PID.TID 0000.0001) ># Input datasets
(PID.TID 0000.0001) > &PARM05
(PID.TID 0000.0001) > topoFile='topo.cpl_FM.bin',
(PID.TID 0000.0001) > &
(PID.TID 0000.0001) 
(PID.TID 0000.0001) S/R INI_PARMS ; starts to read PARM01
(PID.TID 0000.0001) S/R INI_PARMS ; read PARM01 : OK
(PID.TID 0000.0001) S/R INI_PARMS ; starts to read PARM02
(PID.TID 0000.0001) S/R INI_PARMS ; read PARM02 : OK
(PID.TID 0000.0001) S/R INI_PARMS ; starts to read PARM03
(PID.TID 0000.0001) S/R INI_PARMS ; read PARM03 : OK
(PID.TID 0000.0001) S/R INI_PARMS ; starts to read PARM04
(PID.TID 0000.0001) S/R INI_PARMS ; read PARM04 : OK
(PID.TID 0000.0001) S/R INI_PARMS ; starts to read PARM05
(PID.TID 0000.0001) S/R INI_PARMS ; read PARM05 : OK
(PID.TID 0000.0001)  PACKAGES_BOOT: opening data.pkg
(PID.TID 0000.0001)  OPEN_COPY_DATA_FILE: opening file data.pkg
(PID.TID 0000.0001) // =======================================================
(PID.TID 0000.0001) // Parameter file "data.pkg"
(PID.TID 0000.0001) // =======================================================
(PID.TID 0000.0001) ># Packages
(PID.TID 0000.0001) >#     useAIM  :: use Atmospheric Intermediate complexity Model
(PID.TID 0000.0001) >#     useLand :: use (simple) Land package to compute surf. BC over land
(PID.TID 0000.0001) >#   useThSIce :: use Therm. SeaIce package (+slab ocean)
(PID.TID 0000.0001) > &PACKAGES
(PID.TID 0000.0001) > useAIM=.TRUE.,
(PID.TID 0000.0001) > useLand=.TRUE.,
(PID.TID 0000.0001) > useThSIce=.TRUE.,
(PID.TID 0000.0001) > useSHAP_FILT=.TRUE.,
(PID.TID 0000.0001) >#useMNC=.TRUE.,
(PID.TID 0000.0001) > &
(PID.TID 0000.0001) 
(PID.TID 0000.0001)  PACKAGES_BOOT: finished reading data.pkg
(PID.TID 0000.0001)  SHAP_FILT_READPARMS: opening data.shap
(PID.TID 0000.0001)  OPEN_COPY_DATA_FILE: opening file data.shap
(PID.TID 0000.0001) // =======================================================
(PID.TID 0000.0001) // Parameter file "data.shap"
(PID.TID 0000.0001) // =======================================================
(PID.TID 0000.0001) ># Shapiro Filter parameters
(PID.TID 0000.0001) > &SHAP_PARM01
(PID.TID 0000.0001) > shap_filt_uvStar=.FALSE.,
(PID.TID 0000.0001) > shap_filt_TrStagg=.TRUE.,
(PID.TID 0000.0001) > Shap_funct=2,
(PID.TID 0000.0001) > nShapT=4,
(PID.TID 0000.0001) > nShapUV=4,
(PID.TID 0000.0001) > nShapTrPhys=1,
(PID.TID 0000.0001) > nShapUVPhys=0,
(PID.TID 0000.0001) > Shap_TrLength=140000.,
(PID.TID 0000.0001) >#Shap_uvLength=140000.,
(PID.TID 0000.0001) > Shap_Trtau=5400.,
(PID.TID 0000.0001) > Shap_uvtau=1800.,
(PID.TID 0000.0001) >#Shap_diagFreq=2592000.,
(PID.TID 0000.0001) > &
(PID.TID 0000.0001) 
(PID.TID 0000.0001)  SHAP_FILT_READPARMS: finished reading data.shap
(PID.TID 0000.0001) Shap_funct =   /* select Shapiro filter function */
(PID.TID 0000.0001)                       2
(PID.TID 0000.0001)     ;
(PID.TID 0000.0001) nShapT =   /* power of Shapiro filter for Temperat */
(PID.TID 0000.0001)                       4
(PID.TID 0000.0001)     ;
(PID.TID 0000.0001) nShapS =   /* power of Shapiro filter for Salinity */
(PID.TID 0000.0001)                       4
(PID.TID 0000.0001)     ;
(PID.TID 0000.0001) nShapUV =   /* power of Shapiro filter for momentum */
(PID.TID 0000.0001)                       4
(PID.TID 0000.0001)     ;
(PID.TID 0000.0001) shap_filt_uvStar = /* apply filter before Press. Solver */
(PID.TID 0000.0001)                   F
(PID.TID 0000.0001)     ;
(PID.TID 0000.0001) shap_filt_TrStagg = /* filter T,S before calc PhiHyd (staggerTimeStep) */
(PID.TID 0000.0001)                   T
(PID.TID 0000.0001)     ;
(PID.TID 0000.0001) Shap_alwaysExchUV = /* always exch(U,V)    nShapUV times*/
(PID.TID 0000.0001)                   T
(PID.TID 0000.0001)     ;
(PID.TID 0000.0001) Shap_alwaysExchTr = /* always exch(Tracer) nShapTr times*/
(PID.TID 0000.0001)                   F
(PID.TID 0000.0001)     ;
(PID.TID 0000.0001) nShapTrPhys =   /* power of physical-space filter (Tracer) */
(PID.TID 0000.0001)                       1
(PID.TID 0000.0001)     ;
(PID.TID 0000.0001) nShapUVPhys =   /* power of physical-space filter (Momentum) */
(PID.TID 0000.0001)                       0
(PID.TID 0000.0001)     ;
(PID.TID 0000.0001) Shap_Trtau =   /* time scale of Shapiro filter (Tracer) */
(PID.TID 0000.0001)                 5.400000000000000E+03
(PID.TID 0000.0001)     ;
(PID.TID 0000.0001) Shap_TrLength =   /* Length scale of Shapiro filter (Tracer) */
(PID.TID 0000.0001)                 1.400000000000000E+05
(PID.TID 0000.0001)     ;
(PID.TID 0000.0001) Shap_uvtau =   /* time scale of Shapiro filter (Momentum) */
(PID.TID 0000.0001)                 1.800000000000000E+03
(PID.TID 0000.0001)     ;
(PID.TID 0000.0001) Shap_uvLength =   /* Length scale of Shapiro filter (Momentum) */
(PID.TID 0000.0001)                 0.000000000000000E+00
(PID.TID 0000.0001)     ;
(PID.TID 0000.0001) Shap_noSlip =  /* No-slip parameter (0=Free-slip ; 1=No-slip)*/
(PID.TID 0000.0001)                 0.000000000000000E+00
(PID.TID 0000.0001)     ;
(PID.TID 0000.0001) Shap_diagFreq =   /* Frequency^-1 for diagnostic output (s)*/
(PID.TID 0000.0001)                 0.000000000000000E+00
(PID.TID 0000.0001)     ;
(PID.TID 0000.0001)  THSICE_READPARMS: opening data.ice
(PID.TID 0000.0001)  OPEN_COPY_DATA_FILE: opening file data.ice
(PID.TID 0000.0001) // =======================================================
(PID.TID 0000.0001) // Parameter file "data.ice"
(PID.TID 0000.0001) // =======================================================
(PID.TID 0000.0001) > &THSICE_CONST
(PID.TID 0000.0001) > Tf0kel  = 273.15,
(PID.TID 0000.0001) > rhosw   = 1030.,
(PID.TID 0000.0001) >#- with LANL albedo:
(PID.TID 0000.0001) >#albWarmSnow= 0.75,
(PID.TID 0000.0001) > iceMaskMin = 0.01,
(PID.TID 0000.0001) > hThinIce   = 0.1,
(PID.TID 0000.0001) > hiMax      = 10.,
(PID.TID 0000.0001) > hsMax      = 10.,
(PID.TID 0000.0001) >#albIceMax  = 0.7,
(PID.TID 0000.0001) >#albIceMin  = 0.7,
(PID.TID 0000.0001) > &
(PID.TID 0000.0001) >
(PID.TID 0000.0001) > &THSICE_PARM01
(PID.TID 0000.0001) >#startIceModel=1,
(PID.TID 0000.0001) >#stepFwd_oceMxL=.TRUE.,
(PID.TID 0000.0001) > ocean_deltaT=3600.,
(PID.TID 0000.0001) >#tauRelax_MxL=5184000.,
(PID.TID 0000.0001) >#thSIceAdvScheme=1,
(PID.TID 0000.0001) >#thSIce_diffK   =800.,
(PID.TID 0000.0001) > stressReduction=0.,
(PID.TID 0000.0001) >#thSIce_taveFreq=2592000.,
(PID.TID 0000.0001) > thSIce_diagFreq=5184000.,
(PID.TID 0000.0001) >#thSIce_monFreq=864000.,
(PID.TID 0000.0001) >#thSIce_diagFreq=0.,
(PID.TID 0000.0001) > &
(PID.TID 0000.0001) >
(PID.TID 0000.0001) 
(PID.TID 0000.0001)  THSICE_READPARMS: read THSICE_CONST
(PID.TID 0000.0001)  THSICE_READPARMS: read THSICE_PARM01
 ThSI: rhos      =   330.000000000000     
 ThSI: rhoi      =   900.000000000000     
 ThSI: rhosw     =   1030.00000000000     
 ThSI: rhofw     =   1000.00000000000     
 ThSI: rhoiw     =   130.000000000000     
 ThSI: cpIce     =   2106.00000000000     
 ThSI: cpWater   =   3994.00000000000     
 ThSI: kIce      =   2.03000000000000     
 ThSI: kSnow     =  0.300000000000000     
 ThSI: bMeltCoef =  6.000000000000000E-003
 ThSI: Lfresh    =   334000.000000000     
 ThSI: qsnow     =   334000.000000000     
 ThSI: albColdSnow=  0.850000000000000     
 ThSI: albWarmSnow=  0.700000000000000     
 ThSI: tempSnowAlb=  -10.0000000000000     
 ThSI: albOldSnow =  0.550000000000000     
 ThSI: hNewSnowAge=  2.000000000000000E-003
 ThSI: snowAgTime =   4320000.00000000     
 ThSI: albIceMax =  0.650000000000000     
 ThSI: albIceMin =  0.200000000000000     
 ThSI: hAlbIce   =  0.500000000000000     
 ThSI: hAlbSnow  =  0.300000000000000     
 ThSI: i0swFrac  =  0.300000000000000     
 ThSI: ksolar    =   1.50000000000000     
 ThSI: dhSnowLin =  0.000000000000000E+000
 ThSI: saltIce   =   4.00000000000000     
 ThSI: S_winton  =   1.00000000000000     
 ThSI: mu_Tf     =  5.400000000000000E-002
 ThSI: Tf0kel    =   273.150000000000     
 ThSI: Tmlt1     = -5.400000000000000E-002
 ThSI: Terrmax   =  0.500000000000000     
 ThSI: nitMaxTsf =          20
 ThSI: hIceMin   =  1.000000000000000E-002
 ThSI: hiMax     =   10.0000000000000     
 ThSI: hsMax     =   10.0000000000000     
 ThSI: iceMaskMax =   1.00000000000000     
 ThSI: iceMaskMin =  1.000000000000000E-002
 ThSI: fracEnMelt =  0.400000000000000     
 ThSI: fracEnFreez=  0.000000000000000E+000
 ThSI: hThinIce   =  0.100000000000000     
 ThSI: hThickIce  =   2.50000000000000     
 ThSI: hNewIceMax =   10.0000000000000     
 ThSI: stressReduction =  0.000000000000000E+000
 ThSI: thSIceAdvScheme =           0
 ThSI: thSIce_diffK  =  0.000000000000000E+000
 ThSI: thSIce_deltaT =   450.000000000000     
 ThSI: ocean_deltaT  =   3600.00000000000     
 ThSI: stepFwd_oceMxL= F
 ThSI: tauRelax_MxL  =  0.000000000000000E+000
 ThSI: hMxL_default  =   50.0000000000000     
 ThSI: sMxL_default  =   35.0000000000000     
 ThSI: vMxL_default  =  5.000000000000000E-002
 ThSI: thSIce_taveFreq=   2592000.00000000     
 ThSI: thSIce_diagFreq=   5184000.00000000     
 ThSI: thSIce_monFreq =   1.00000000000000     
 ThSI: startIceModel =           0
(PID.TID 0000.0001)  CPL_READPARMS: opening data.cpl
(PID.TID 0000.0001)  OPEN_COPY_DATA_FILE: opening file data.cpl
(PID.TID 0000.0001) // =======================================================
(PID.TID 0000.0001) // Parameter file "data.cpl"
(PID.TID 0000.0001) // =======================================================
(PID.TID 0000.0001) ># Coupling package parameters, ATM component:
(PID.TID 0000.0001) ># cpl_earlyExpImpCall :: call coupler early in the time stepping call sequence
(PID.TID 0000.0001) >#     cpl_oldPickup  :: restart from an old pickup (= until ckpt 52m_post)
(PID.TID 0000.0001) >#     useImportMxlD  :: True => use Imported Mix.Layer Detph from coupler
(PID.TID 0000.0001) >#     useImportSST   :: True => use the Imported SST from coupler
(PID.TID 0000.0001) >#     useImportSSS   :: True => use the Imported SSS from coupler
(PID.TID 0000.0001) >#     useImportVsq   :: True => use the Imported Surf. velocity^2
(PID.TID 0000.0001) >#     cpl_atmSendFrq :: Frequency^-1 for sending data to coupler (s)
(PID.TID 0000.0001) > &CPL_ATM_PARAM
(PID.TID 0000.0001) ># cpl_earlyExpImpCall=.FALSE.,
(PID.TID 0000.0001) ># cpl_oldPickup=.TRUE.,
(PID.TID 0000.0001) ># useImportMxlD=.FALSE.,
(PID.TID 0000.0001) ># useImportSST =.FALSE.,
(PID.TID 0000.0001) ># useImportSSS =.FALSE.,
(PID.TID 0000.0001) ># useImportVsq =.FALSE.,
(PID.TID 0000.0001) >  cpl_atmSendFrq=3600.,
(PID.TID 0000.0001) > &
(PID.TID 0000.0001) >
(PID.TID 0000.0001) 
(PID.TID 0000.0001)  CPL_READPARMS: finished reading data.cpl
(PID.TID 0000.0001) 
(PID.TID 0000.0001) // ===================================
(PID.TID 0000.0001) // Coupling package parameters :
(PID.TID 0000.0001) // ===================================
(PID.TID 0000.0001) cpl_earlyExpImpCall= /* call coupler early in the time-stepping */
(PID.TID 0000.0001)                   T
(PID.TID 0000.0001)     ;
(PID.TID 0000.0001) cpl_oldPickup = /* restart from old pickup on/off flag */
(PID.TID 0000.0001)                   F
(PID.TID 0000.0001)     ;
(PID.TID 0000.0001) useImportMxlD = /* use Imported MxL. Depth from Coupler flag */
(PID.TID 0000.0001)                   T
(PID.TID 0000.0001)     ;
(PID.TID 0000.0001) useImportSST = /* use Imported SST from Coupler on/off flag */
(PID.TID 0000.0001)                   T
(PID.TID 0000.0001)     ;
(PID.TID 0000.0001) useImportSSS = /* use Imported SSS from Coupler on/off flag */
(PID.TID 0000.0001)                   T
(PID.TID 0000.0001)     ;
(PID.TID 0000.0001) useImportVsq = /* use Imported surf.Vel^2 from Coupler flag */
(PID.TID 0000.0001)                   T
(PID.TID 0000.0001)     ;
(PID.TID 0000.0001) cpl_atmSendFrq = /* Frequency^o-1 for sending data to Coupler (s) */
(PID.TID 0000.0001)                 3.600000000000000E+03
(PID.TID 0000.0001)     ;
(PID.TID 0000.0001) cplSendFrq_iter =   /* send data to coupler every "cplSendFrq" iter */
(PID.TID 0000.0001)                       8
(PID.TID 0000.0001)     ;
(PID.TID 0000.0001) SET_PARMS: done
(PID.TID 0000.0001) Enter INI_VERTICAL_GRID: setInterFDr=    T ; setCenterDr=    F
(PID.TID 0000.0001) tile:   1 ; Read from file grid_cs32.face001.bin
(PID.TID 0000.0001)   => xC yC dxF dyF rA xG yG dxV dyU rAz dxC dyC rAw rAs dxG dyG AngleCS AngleSN
(PID.TID 0000.0001) tile:   2 ; Read from file grid_cs32.face002.bin
(PID.TID 0000.0001)   => xC yC dxF dyF rA xG yG dxV dyU rAz dxC dyC rAw rAs dxG dyG AngleCS AngleSN
(PID.TID 0000.0001) tile:   3 ; Read from file grid_cs32.face003.bin
(PID.TID 0000.0001)   => xC yC dxF dyF rA xG yG dxV dyU rAz dxC dyC rAw rAs dxG dyG AngleCS AngleSN
(PID.TID 0000.0001) tile:   4 ; Read from file grid_cs32.face004.bin
(PID.TID 0000.0001)   => xC yC dxF dyF rA xG yG dxV dyU rAz dxC dyC rAw rAs dxG dyG AngleCS AngleSN
(PID.TID 0000.0001) tile:   5 ; Read from file grid_cs32.face005.bin
(PID.TID 0000.0001)   => xC yC dxF dyF rA xG yG dxV dyU rAz dxC dyC rAw rAs dxG dyG AngleCS AngleSN
(PID.TID 0000.0001) tile:   6 ; Read from file grid_cs32.face006.bin
(PID.TID 0000.0001)   => xC yC dxF dyF rA xG yG dxV dyU rAz dxC dyC rAw rAs dxG dyG AngleCS AngleSN
(PID.TID 0000.0001) %MON XC_max                       =   1.7854351589505E+02
(PID.TID 0000.0001) %MON XC_min                       =  -1.7854351589505E+02
(PID.TID 0000.0001) %MON XC_mean                      =  -4.6999441375798E-15
(PID.TID 0000.0001) %MON XC_sd                        =   1.0355545336287E+02
(PID.TID 0000.0001) %MON XG_max                       =   1.8000000000000E+02
(PID.TID 0000.0001) %MON XG_min                       =  -1.7708797161002E+02
(PID.TID 0000.0001) %MON XG_mean                      =   1.8796250616675E+00
(PID.TID 0000.0001) %MON XG_sd                        =   1.0410625309932E+02
(PID.TID 0000.0001) %MON DXC_max                      =   3.2375185836900E+05
(PID.TID 0000.0001) %MON DXC_min                      =   1.1142031410131E+05
(PID.TID 0000.0001) %MON DXC_mean                     =   2.8605689051214E+05
(PID.TID 0000.0001) %MON DXC_sd                       =   3.4042087138252E+04
(PID.TID 0000.0001) %MON DXF_max                      =   3.2369947500827E+05
(PID.TID 0000.0001) %MON DXF_min                      =   1.2020820513318E+05
(PID.TID 0000.0001) %MON DXF_mean                     =   2.8605437324820E+05
(PID.TID 0000.0001) %MON DXF_sd                       =   3.4050524252539E+04
(PID.TID 0000.0001) %MON DXG_max                      =   3.2375195872773E+05
(PID.TID 0000.0001) %MON DXG_min                      =   1.0098378008791E+05
(PID.TID 0000.0001) %MON DXG_mean                     =   2.8603818508931E+05
(PID.TID 0000.0001) %MON DXG_sd                       =   3.4140406908005E+04
(PID.TID 0000.0001) %MON DXV_max                      =   3.2380418162750E+05
(PID.TID 0000.0001) %MON DXV_min                      =   8.0152299824136E+04
(PID.TID 0000.0001) %MON DXV_mean                     =   2.8603970633619E+05
(PID.TID 0000.0001) %MON DXV_sd                       =   3.4145142117723E+04
(PID.TID 0000.0001) %MON YC_max                       =   8.7940663871962E+01
(PID.TID 0000.0001) %MON YC_min                       =  -8.7940663871962E+01
(PID.TID 0000.0001) %MON YC_mean                      =   0.0000000000000E+00
(PID.TID 0000.0001) %MON YC_sd                        =   3.8676242969072E+01
(PID.TID 0000.0001) %MON YG_max                       =   9.0000000000000E+01
(PID.TID 0000.0001) %MON YG_min                       =  -9.0000000000000E+01
(PID.TID 0000.0001) %MON YG_mean                      =  -1.2094344438470E-15
(PID.TID 0000.0001) %MON YG_sd                        =   3.9086186579984E+01
(PID.TID 0000.0001) %MON DYC_max                      =   3.2375185836900E+05
(PID.TID 0000.0001) %MON DYC_min                      =   1.1142031410131E+05
(PID.TID 0000.0001) %MON DYC_mean                     =   2.8605689051214E+05
(PID.TID 0000.0001) %MON DYC_sd                       =   3.4042087138252E+04
(PID.TID 0000.0001) %MON DYF_max                      =   3.2369947500827E+05
(PID.TID 0000.0001) %MON DYF_min                      =   1.2020820513318E+05
(PID.TID 0000.0001) %MON DYF_mean                     =   2.8605437324820E+05
(PID.TID 0000.0001) %MON DYF_sd                       =   3.4050524252539E+04
(PID.TID 0000.0001) %MON DYG_max                      =   3.2375195872773E+05
(PID.TID 0000.0001) %MON DYG_min                      =   1.0098378008791E+05
(PID.TID 0000.0001) %MON DYG_mean                     =   2.8603818508931E+05
(PID.TID 0000.0001) %MON DYG_sd                       =   3.4140406908005E+04
(PID.TID 0000.0001) %MON DYU_max                      =   3.2380418162750E+05
(PID.TID 0000.0001) %MON DYU_min                      =   8.0152299824136E+04
(PID.TID 0000.0001) %MON DYU_mean                     =   2.8603970633619E+05
(PID.TID 0000.0001) %MON DYU_sd                       =   3.4145142117723E+04
(PID.TID 0000.0001) %MON RA_max                       =   1.0479260248419E+11
(PID.TID 0000.0001) %MON RA_min                       =   1.4019007022556E+10
(PID.TID 0000.0001) %MON RA_mean                      =   8.2992246709265E+10
(PID.TID 0000.0001) %MON RA_sd                        =   1.7509089299457E+10
(PID.TID 0000.0001) %MON RAW_max                      =   1.0480965274559E+11
(PID.TID 0000.0001) %MON RAW_min                      =   1.2166903467143E+10
(PID.TID 0000.0001) %MON RAW_mean                     =   8.2992246709235E+10
(PID.TID 0000.0001) %MON RAW_sd                       =   1.7481917919656E+10
(PID.TID 0000.0001) %MON RAS_max                      =   1.0480965274559E+11
(PID.TID 0000.0001) %MON RAS_min                      =   1.2166903467143E+10
(PID.TID 0000.0001) %MON RAS_mean                     =   8.2992246709235E+10
(PID.TID 0000.0001) %MON RAS_sd                       =   1.7481917919656E+10
(PID.TID 0000.0001) %MON RAZ_max                      =   1.0484349334619E+11
(PID.TID 0000.0001) %MON RAZ_min                      =   8.8317900612505E+09
(PID.TID 0000.0001) %MON RAZ_mean                     =   8.2992246709235E+10
(PID.TID 0000.0001) %MON RAZ_sd                       =   1.7482297311044E+10
(PID.TID 0000.0001) %MON AngleCS_max                  =   9.9999994756719E-01
(PID.TID 0000.0001) %MON AngleCS_min                  =  -9.9968286884824E-01
(PID.TID 0000.0001) %MON AngleCS_mean                 =   3.3078850405987E-01
(PID.TID 0000.0001) %MON AngleCS_sd                   =   6.2496317138039E-01
(PID.TID 0000.0001) %MON AngleSN_max                  =   9.9968286884824E-01
(PID.TID 0000.0001) %MON AngleSN_min                  =  -9.9999994756719E-01
(PID.TID 0000.0001) %MON AngleSN_mean                 =  -3.3078850405987E-01
(PID.TID 0000.0001) %MON AngleSN_sd                   =   6.2496317138039E-01
(PID.TID 0000.0001) 
(PID.TID 0000.0001) INI_PHIREF: PhiRef/g [m] at level Center (integer)
(PID.TID 0000.0001)                      and at level Interface (half-int.) :
(PID.TID 0000.0001)  K=  0.5  ;  r=  100000.0  ;  phiRef/g=       0.000
(PID.TID 0000.0001)  K=  1.0  ;  r=   95000.0  ;  phiRef/g=     431.199
(PID.TID 0000.0001)  K=  1.5  ;  r=   90000.0  ;  phiRef/g=    1256.487
(PID.TID 0000.0001)  K=  2.0  ;  r=   77500.0  ;  phiRef/g=    2105.998
(PID.TID 0000.0001)  K=  2.5  ;  r=   65000.0  ;  phiRef/g=    3775.246
(PID.TID 0000.0001)  K=  3.0  ;  r=   50000.0  ;  phiRef/g=    5536.327
(PID.TID 0000.0001)  K=  3.5  ;  r=   35000.0  ;  phiRef/g=    7908.298
(PID.TID 0000.0001)  K=  4.0  ;  r=   25000.0  ;  phiRef/g=   10440.915
(PID.TID 0000.0001)  K=  4.5  ;  r=   15000.0  ;  phiRef/g=   13806.721
(PID.TID 0000.0001)  K=  5.0  ;  r=    7500.0  ;  phiRef/g=   18190.889
(PID.TID 0000.0001)  K=  5.5  ;  r=       0.0  ;  phiRef/g=   39547.504
(PID.TID 0000.0001)  MDS_READ_FIELD: opening global file: topo.cpl_FM.bin
(PID.TID 0000.0001) // =======================================================
(PID.TID 0000.0001) // Field Model R_low (ini_masks_etc) at iteration          1
(PID.TID 0000.0001) // CMIN =          1.000000000000000E+32
(PID.TID 0000.0001) // CMAX =         -1.000000000000000E+32
(PID.TID 0000.0001) // CINT =          0.000000000000000E+00
(PID.TID 0000.0001) // SYMBOLS (CMIN->CMAX): -abcdefghijklmnopqrstuvwxyz+
(PID.TID 0000.0001) //                  0.0: .
(PID.TID 0000.0001) // RANGE I (Lo:Hi:Step):(  -1: 194:   1)
(PID.TID 0000.0001) // RANGE J (Lo:Hi:Step):(  34:  -1:  -1)
(PID.TID 0000.0001) // RANGE K (Lo:Hi:Step):(   1:   1:   1)
(PID.TID 0000.0001) // =======================================================
(PID.TID 0000.0001) // =======================================================
(PID.TID 0000.0001) // END OF FIELD                                          =
(PID.TID 0000.0001) // =======================================================
(PID.TID 0000.0001) 
(PID.TID 0000.0001) // =======================================================
(PID.TID 0000.0001) // Field Model Ro_surf (ini_masks_etc) at iteration          1
(PID.TID 0000.0001) // CMIN =          4.905667583685931E+04
(PID.TID 0000.0001) // CMAX =          1.000000000000000E+05
(PID.TID 0000.0001) // CINT =          1.886789783820026E+03
(PID.TID 0000.0001) // SYMBOLS (CMIN->CMAX): -abcdefghijklmnopqrstuvwxyz+
(PID.TID 0000.0001) //                  0.0: .
(PID.TID 0000.0001) // RANGE I (Lo:Hi:Step):(  -1: 194:   1)
(PID.TID 0000.0001) // RANGE J (Lo:Hi:Step):(  34:  -1:  -1)
(PID.TID 0000.0001) // RANGE K (Lo:Hi:Step):(   1:   1:   1)
(PID.TID 0000.0001) // =======================================================
(PID.TID 0000.0001) K =   1
(PID.TID 0000.0001) //                I=8       I=18      I=28      I=34      I=44      I=54      I=64      I=70      I=80      I=90      I=96      I=106     I=116     I=126     I=132     I=142     I=152     I=162     I=168     I=178     I=188
(PID.TID 0000.0001) // |--J--|101234567|901234567|901234567|901234123|567890123|567890123|567890123|563456789|123456789|123456789|123456785|789012345|789012345|789012345|789078901|345678901|345678901|345678901|901234567|901234567|901234567|901234
(PID.TID 0000.0001) //     34 ++++++++++++++++++zxwwwwwy++++nmnounnounny+zzzzzxxwwrnmmmqsuvvxxw+++++++++++++++++++++xxyzyxwtmlnnoy+++++++++++++++++++++++++++++++++++++++++++++++++++++++++++++++yxxwwxy++++++++++++++++++++++++++++++++++++++++++++++
(PID.TID 0000.0001) //     33 ++++++++++++++++++wttvwww++ywqstuuuouuuooy+yyzzyxwwqoomlmqtvutwyy++++++++++++++++++++xxxyyyxwunmnopx+++++++++++++++++++++++++++++++++++++++++++++++++++++++++++++++zyxwwwwy+++++++++++++++++++++++++++++++++++++++++++++
(PID.TID 0000.0001) //     32 ++++++++++++++++++wy+y+ww+xsrtwxyxvoyxvonrywwzywommlmpppqtttsuy++yy++yyy++++++++++++yxxyyxxxxvqmnpqw+++++++++++++++++++++++++++++++++++++++++++++++++++++++++++++++zyxwwwww+++++++++++++++++++++++++++++++++++++++++++++
(PID.TID 0000.0001) //     31 ++++++++++++++++wv++++++y+yxywxxyywqyywqnotsswwphglqttrnnqssswz++++++++++++++++++++zxxxyyxxyxwuport++++++++++++++++++++++++++++++++++++++++++++++++++++++++++++++++zyyxwwwww++++++++++++++++++++++++++++++++++++++++++++
(PID.TID 0000.0001) //     30 ++++++++++++++++w+++++++++++++wwxzyuxzyumnstsspmfdhmlhgfekosuxz+++++++++++++++++++++xxxyzyyyxwwsptx+++++++++++++++++++++++++++++++++++++++++++++++++++++++++++++zzzzyyxxwxxwwy++++++++++++++++++++++++++++++++++++++++++
(PID.TID 0000.0001) //     29 ++++++++++++++++++wwx+++++++++wwxyzxxyzxrnosspllkeabbaabdhmsvyzz++++++++++++++++++zxwwx++zyyxxwtps++++++++++++++++++++++++++++++++++++++++++++++++++++++++++++++yyzzyxxxxxxxxxz+++++++++++++++++++++++++++++++++++++++++
(PID.TID 0000.0001) //     28 +++++++++++++++xsvwxxxy+zzzzywwwwxyzwxyzypnorqnrwnc--aaabelsvxyx++++++++++++++++++zxxxx+++zyxxwvpr++++++++++++++++++++++++++++++++++++++++++++++++++++++++++++++yyzzyyxxyyyyyyzz++++++++++++++++++++++++++++++++++++++++
(PID.TID 0000.0001) //     27 +++++++++++++++vvwxxxxxxzzzyxwwvvwxyvwxyz+++trrwzwkdabccbenvwxxw++++++++++++++++++++xxyz++zyxxxwst+++++++++++++++++++++++++++++++++++++++++++++++++++++++++++++ywyz+zyxxyzz++zzz++++++++++++++++++++++++++++++++++++++++
(PID.TID 0000.0001) //     26 ++++++++++++++yxxyxwwwwxyyxxyxyyvwwxvwwxz++++yyyyyxvnmmmhhnuwxxy++++++++++++++++++++++++++zyxxxwss++++++++++++++++++++++++++++++++++++++++++++++++++++++++++++ywwx++zyyyxxxz++++z+++z+++++++++++++++++++++++++++++++++++
(PID.TID 0000.0001) //     25 +++++++++++++yyyyyxvuvwwwxwxyxy+vvwxvvwxzzx++++zxxxyxywwqorwxyy+++++++++++++++++++++++x++yyyxxxwss++++++++++++++++++++++++++++++++++++++++++++++++++++++++++++ywvwz+zzzwmkmrwyyzz+++z+++++++++++++++++++++++++++++++++++
(PID.TID 0000.0001) //     24 +++++++++++++yyyyyxwwwwstwwxyxy+wswxwswxyzz+++++xxxxy++xutvx++++++++++++++++++++++++++xx+yyzyxxvst++++++++++++++++++++++++++++++++++++++++++++++++++++++++++++ywxz++zzukgfghkqvxzz++zz++++++++++++++++++++++++++++++++++
(PID.TID 0000.0001) //     23 +++++++++++++zyyyyxxwwxxwwwxxxw++pvw+pvwxz++++++yxxy+++ywwwx+++++++++++++++++++++++oq+++xxzzyyxvsr++++++++++++++++++++++++++++++++++++++++++++++z+++++++++++++trwy+++wher+yumhkrwxy+wxy+++++++++++++++ww++++++++++++++++
(PID.TID 0000.0001) //     22 +++++++++++++zyyyyxyxxyyxwwwxxvr++wy++wy++++++++yxy+++++yxxw+++++++++++++++++++++++vlr+++x++zzywusw+++++++++++++++++++++++++++++++++++++++++++++xy++++++++++++wpqvy+xrht++++++xuuvwwuvww+++++++++++++lhhknw+++++++++++++
(PID.TID 0000.0001) //     21 +++++++++++++yxxyyyyxxyyxwwwxxrnv+++v++++++++++++yy++++++zyxy++++++++++++++++++++++vkkn++++++++xuutw++++++++++++++++++++++++++++++++++++++++++++xxx++++++++++++ywqsuop++++++++++++wu++wuwy++++++++++pkhghkklw+++++++++++
(PID.TID 0000.0001) //     20 +++++++++++++yxxyyyxxwxxxwwxxxpmqvwxqvwx+++++++++y++++++++++++++++++++++++++++++++++khknwt++++++wwwx++++++++++++++++++++++++++++++++++++++++++++xxxxxz++++++++++++wuw+++++++++++++++++++++++++x+++++okhhhhklr+++++++++++
(PID.TID 0000.0001) //     19 ++++++++++++++yyyyyyxwwwxwwxxwrnqwxyqwxy+++++++++++++++++y+++++++++++++++++++++++x++qlkmxx++++++xyy+++++++++++++++++++++++++++++++++++++++++++++yyxxwxz+++++++y++++++++++++++++++++++++++++++++ws++xqkhgghlow+++++++++++
(PID.TID 0000.0001) //     18 +++++++++++++++++++++wwxxxxwwwutwxz+wxz+++++++++++++++++yy++++yy++++++++w++++z++++++++rs++++++++++++++++++++++++++++++++++++++++++++++++++++++++yyyyxxz++++++y++++++++++++++++++++++++++++++++++xv+xqlhgfghkr+++++++++++
(PID.TID 0000.0001) //     17 +++++++++++++++++++++yxxyyxwturuy+++y++++++++++++++++++++yy++ywy++++++++v+++zy++++++++++++++++++++y+++++++++++++++++++++++++++++++++++++++++++++xxyzzyz++++zw+++++++++++++++++++++++++++++++++++xuwupkhgffghkq++++++++++
(PID.TID 0000.0001) //     16 +++++++++++++++++++++zxxxxxvrtqtz+++z+++++++++++++++++++++y++yy++++++z+++wwzz++++++++++++++++++++xxy++++++++++++++++++++++++++++++++++++++++++++xxyyyzz++++yw+++++++++++++++++++++++++++++++++++xsonnkhhggghho++++++++++
(PID.TID 0000.0001) //     15 zzzy++++++++++++++++++yxxxxvsusv+++++++++++++++++++++++++++z++++++++++yw+ytxy++xw++++++++++++++++wwx++++++++++++++++++++++++++++++++++++++++y+++yxxxxyz++++y+++++++++++++++++++++++++++++++++++++uoqsvkkhhhhkp++++++++++
(PID.TID 0000.0001) //     14 yyyxxy++++++++++++++++ywwwwvtttw++++++++++++++++++++++++++++++++++++++++++twxzzxwwwx++++++++++++zxwx+++++++++++++++++++++++++++++++++++++++++yy+xxwwxxxyz++v+++++++++++++++++++++++++++++++++++++woux+xmkhhklv++++++++++
(PID.TID 0000.0001) //     13 yxxxx++++++++++++++++++vvvvutsux+++++++++++++++++++++++++++++++++++++++++yvwxz++zzyy+++++++++++zyxwxx+++++++++++++++++++++++++++++++++++++++++++wvuttvwwvqot++++++++++++++++++++++++++++++++++++++vwy++plkkko+++++++++++
(PID.TID 0000.0001) //     12 xwwwy+++++++++++++++++xsuvuuuuwx++++++++++++++++++++++++++++++++++++++++++wwxzzzzzyy+++++++z+++xwwv++x++++++++++++++++++++++++++++++++++++++++++uqnmlossqoq++++++++++++++++++++++++++++++++++++++++++++qlkklw+++++++++++
(PID.TID 0000.0001) //     11 wwww++++++++++++++++++wtvvvvvvwy+++y+++y++++++++++++++++++++++++++zzzz+++wwwxyzzzzzz+++++zzyzywvtrv+++++++++++++++++++++++++++++++++++++++++++++pmmllnqpqw+++++++++++++++++++++++++++++++++++++++++++++qmmmq++++++++++++
(PID.TID 0000.0001) //     10 wwwx++++++++++++++++++xuvwwvuwy+++xw++xw+++++++++++++++++++++++++zyyyyzzywwwxyzzzzzzzzy++zxxxywvtsx+++++++++++++++++++++++++++++++++++++++++++++onnnoquw++++++++++++++++++++++++++++++++++++++++++++++++ww++++++++++++++
(PID.TID 0000.0001) //      9 wwwy+++++++++++++++++++tuvwvvw++++w+++w+++++++++++++++++++++++++zzyxyyyy+++yzzzzzzzzyxxzzywwxxyxxwx+++++++++++++++++++++++++++++++++++++++++++++rponrwy+++++++++++++++++++++++++++++++++++++++++++++++++++++++++++++++++
(PID.TID 0000.0001) //      8 wwy++++++++++++++++++++tuvvvwy++++x+++x+++++++++++++++++++++++yxxyxxxxyyyx+++zzzzzzyxyz+zzwwxxyxxwwxy+++++++++++++++++++++++++++++++++++++++++++tqposx++++++++++++++++++++++++++++++++++++++++++++++++++++++++++++++++++
(PID.TID 0000.0001) //      7 w++++++++++++++++++++++wvvusuz++++y+++y+++++++++++++++++++++++yxxxxxxxyzxsy++zzzzzzyyzzzzzxxxxwwwvvvxx+++++++++++++++++++++++++++++++++yxxxyy++++wxyy+++++++++++++++++++++++++++++++++++++++++++++++++++++++++++++++++++
(PID.TID 0000.0001) //      6 +++++++++++++++++++++++ywusqw+++++++++++++++++++++++++++++++++yxxxxxxxz+yrw++wzzzzyxyzzzzzxxxwuuwwxwxx++++++++++++++++++++++++++++++++zyyyyxxy++++++++++++++++++++++++++++++++++++++++++++++++++++++++++++++++++++++++++
(PID.TID 0000.0001) //      5 ++++++++++++++++++++++++vtrv++++++++++++++++++++++++++++++++++yxxyyyyyzzwtq++py++zyxzzzzzyxxxwsuwwxxxx+++++++++++++++++++++++++++++++yyxyzzzyy++++++++++++++++++++++++++++++++++++++++++++++++++++++++++++++++++++++++++
(PID.TID 0000.0001) //      4 ++++++++++++++++++++++++yyy+++++++++++++++++++++++++++++++++++yyyzzzzzzyxwsnnny++zyyyyzzywvtuvtvwwxxwx+++y+++y++++++++++++++++++w+++xxyyzzzzzz++++++++++++++++++++++++++++++++++++++++++++++++++++++++++++++++++++++++++
(PID.TID 0000.0001) //      3 +++++++++++++++++++++++++++++++++++++++++++++++++++++++++++++++++++++zzyxxtmnvz+zzzyxxxxwqpnotsuvwyxwy++++y+++y++++++++++++++++wv+++zyzzzzzyz+++++++++++++++++++++++++++++++++++++++++++++++++++++++++++++++++++++++++++
(PID.TID 0000.0001) //      2 ++++++++++++++++++++++++++++++++++++++++++++++++++++++++++++++++++++++zyyyunny+zzzzzxxwwrnmmmqsuvvxxw+++++y+++y++++++++++++++++w++++zyyz+zyyy+++++++++++++++++++++++++++++++++++++++++++++++++++++++++++++++++++++++++++
(PID.TID 0000.0001) //      1 ++++++++++++++++++++++++++++++++++++++++++++++++++++++++++++++++++++++++yxuooy+yyzzyxwwqoomlmqtvutwyy+++++y+++y++++++++++++++++y++++zyyyzzzzz+++++++++++++++++++++++++++++++++++++++++++++++++++++++++++y+++++++++++++++
(PID.TID 0000.0001) //      0 ++++++++++++++++++++++++++++++++++++++++++++++++++++++++++++++++++++++++wvvonrywwzywommlmpppqtttsuy++yy++yy++yy+++++++++++++++z++++zyyxxxyzz++++++++++++++++++++++++++++++++++++++++++++++++++++++++++++y+++++++yyz++++z
(PID.TID 0000.0001) //     -1 ++++++++++++++++++++++++++++++++++++++++++++++++++++++++++++++++++++++++qowqnotsswwphglqttrnnqssswz++++++++++++++++++++++++++++++++zyyxxxyz++++++++++++++++++++++++++++++++++++++++++++++++++++++++++++y+++++++yxyzzyz+y
(PID.TID 0000.0001) // =======================================================
(PID.TID 0000.0001) // END OF FIELD                                          =
(PID.TID 0000.0001) // =======================================================
(PID.TID 0000.0001) 
(PID.TID 0000.0001) // =======================================================
(PID.TID 0000.0001) // Field hFacC at iteration          1
(PID.TID 0000.0001) // CMIN =          2.000000000000000E-01
(PID.TID 0000.0001) // CMAX =          1.000000000000000E+00
(PID.TID 0000.0001) // CINT =          2.962962962962963E-02
(PID.TID 0000.0001) // SYMBOLS (CMIN->CMAX): -abcdefghijklmnopqrstuvwxyz+
(PID.TID 0000.0001) //                  0.0: .
(PID.TID 0000.0001) // RANGE I (Lo:Hi:Step):(  -1: 194:   1)
(PID.TID 0000.0001) // RANGE J (Lo:Hi:Step):(  34:  -1:  -1)
(PID.TID 0000.0001) // RANGE K (Lo:Hi:Step):(   1:   1:   1)
(PID.TID 0000.0001) // =======================================================
(PID.TID 0000.0001) K =   1
(PID.TID 0000.0001) //                I=8       I=18      I=28      I=34      I=44      I=54      I=64      I=70      I=80      I=90      I=96      I=106     I=116     I=126     I=132     I=142     I=152     I=162     I=168     I=178     I=188
(PID.TID 0000.0001) // |--J--|101234567|901234567|901234567|901234123|567890123|567890123|567890123|563456789|123456789|123456789|123456785|789012345|789012345|789012345|789078901|345678901|345678901|345678901|901234567|901234567|901234567|901234
(PID.TID 0000.0001) //     34 ++++++++++++++++++qe--bbap++++...........k+vtutskgc-..........hj-+++++++++++++++++++++hiorojd......k+++++++++++++++++++++++++++++++++++++++++++++++++++++++++++++++mgecdel++++++++++++++++++++++++++++++++++++++++++++++
(PID.TID 0000.0001) //     33 ++++++++++++++++++b...bac++k-............k+pqvspec-...........elk++++++++++++++++++++ihknomid......e+++++++++++++++++++++++++++++++++++++++++++++++++++++++++++++++tnhdc--l+++++++++++++++++++++++++++++++++++++++++++++
(PID.TID 0000.0001) //     32 ++++++++++++++++++ak+k+c-+e...bilg..lg....kaaro-..............k++kl++kkk++++++++++++mgillkije......d++++++++++++++++++++++++++++++++++++++++++++++++++++++++++++++ysnheba--+++++++++++++++++++++++++++++++++++++++++++++
(PID.TID 0000.0001) //     31 ++++++++++++++++-.++++++k+kfkdeipp-.pp-......db..............ar++++++++++++++++++++vkfilljikga.....+++++++++++++++++++++++++++++++++++++++++++++++++++++++++++++++yspmhbadcc++++++++++++++++++++++++++++++++++++++++++++
(PID.TID 0000.0001) //     30 ++++++++++++++++c+++++++++++++-citk.itk......................ju+++++++++++++++++++++hfipsnkmhc-...k+++++++++++++++++++++++++++++++++++++++++++++++++++++++++++++wuvrmlkgdhha-l++++++++++++++++++++++++++++++++++++++++++
(PID.TID 0000.0001) //     29 ++++++++++++++++++baf+++++++++-bfmvkfmvk.....................ouw++++++++++++++++++rkddi++tpoifa...++++++++++++++++++++++++++++++++++++++++++++++++++++++++++++++qoutnjjgfijgfhr+++++++++++++++++++++++++++++++++++++++++
(PID.TID 0000.0001) //     28 +++++++++++++++e..-fhjm+uuvtl---bfnwbfnwl.......-............kki++++++++++++++++++rjeej+++uoigc...++++++++++++++++++++++++++++++++++++++++++++++++++++++++++++++lovwolkjnpooqqrv++++++++++++++++++++++++++++++++++++++++
(PID.TID 0000.0001) //     27 +++++++++++++++..egiifekstspjd-..beo.beot+++...bta..........bjhd++++++++++++++++++++kint++xpige-..+++++++++++++++++++++++++++++++++++++++++++++++++++++++++++++ldmwytniiouwxxxvw++++++++++++++++++++++++++++++++++++++++
(PID.TID 0000.0001) //     26 ++++++++++++++kfimidbcdgkmiknill.-bj.-bjw++++llpmpe.........bfgl++++++++++++++++++++++++++vpjiga..++++++++++++++++++++++++++++++++++++++++++++++++++++++++++++m--iyzvnmnffiszxxxv+++v+++++++++++++++++++++++++++++++++++
(PID.TID 0000.0001) //     25 +++++++++++++qmmonf...b-agcgnil+..bj..bjutg++++vhhknhkc-...-ill+++++++++++++++++++++++j++qopkih-..++++++++++++++++++++++++++++++++++++++++++++++++++++++++++++l-.euzwtr-....dlpus+++s+++++++++++++++++++++++++++++++++++
(PID.TID 0000.0001) //     24 ++++++++++++xplmnng--a-..achmil+-.-i-.-inus+++++ighho++e...h++++++++++++++++++++++++++jh+pqslih...++++++++++++++++++++++++++++++++++++++++++++++++++++++++++++lbkrxxxu.........isw++sw++++++++++++++++++++++++++++++++++
(PID.TID 0000.0001) //     23 ++++++++++++ysnmmlhf-bifdcbgijc++..c+..cht++++++lgil+++ob-bg+++++++++++++++++++++++..+++jjrwpli...++++++++++++++++++++++++++++++++++++++++++++++v+++++++++++++..-qyyxc...+l.....afm+afm+++++++++++++++-c++++++++++++++++
(PID.TID 0000.0001) //     22 ++++++++++++ysonmmjkfhmnia-cfi..++al++al++++++++ofk+++++nigc+++++++++++++++++++++++...+++h++rrna..a+++++++++++++++++++++++++++++++++++++++++++++km++++++++++++e...nxi...++++++e...-d..-d+++++++++++++.....-+++++++++++++
(PID.TID 0000.0001) //     21 ++++++++++++yojkmnmlhjmmha-cfe...+++.++++++++++++ll++++++spjl++++++++++++++++++++++....++++++++j...a++++++++++++++++++++++++++++++++++++++++++++fgi++++++++++++l-.....++++++++++++e.++e.-l++++++++++........-+++++++++++
(PID.TID 0000.0001) //     20 +++++++++++++lfhlnljecfiidbgie....af..af+++++++++l+++++++++y++++++++++++++++++++++++....-.++++++-cej++++++++++++++++++++++++++++++++++++++++++++iihhjr++++++++++++-.c+++++++++++++++++++++++++j+++++.........+++++++++++
(PID.TID 0000.0001) //     19 ++++++++++++++lkoqpqi--bfdcegd...-fm.-fm+++++++++++++++++q+++++++++++++++++++++++j++....jj++++++kmp+++++++++++++++++++++++++++++++++++++++++++++llkidfsz++++++l++++++++++++++++++++++++++++++++b.++j........a+++++++++++
(PID.TID 0000.0001) //     18 +++++++++++++++++++++bbehgeb--..-kr+-kr+++++++++++++++++ll++++ll++++++++-++++t++++++++..++++++++++++++++++++++++++++++++++++++++++++++++++++++++llnoihr++++++l++++++++++++++++++++++++++++++++++j.+j.........+++++++++++
(PID.TID 0000.0001) //     17 +++++++++++++++++++++lghlkh-....lx++lx+++++++++++++++++++lp++lal++++++++.+++ro++++++++++++++++++++o+++++++++++++++++++++++++++++++++++++++++++++jkorrqv++++tc+++++++++++++++++++++++++++++++++++j.a...........++++++++++
(PID.TID 0000.0001) //     16 yy+++++++++++++++++++rhhkkg.....r+++r+++++++++++++++++++++l++pl++++++r+++abqw++++++++++++++++++++fim++++++++++++++++++++++++++++++++++++++++++++iimoorwz+++n-+++++++++++++++++++++++++++++++++++j.............++++++++++
(PID.TID 0000.0001) //     15 sstm++++++++++++++++++lfghe.....+++++++++++++++++++++++++++s++++++++++l-+k.eq++fc++++++++++++++++dbj++++++++++++++++++++++++++++++++++++++++o+++kjijkntx+++l+++++++++++++++++++++++++++++++++++++.............++++++++++
(PID.TID 0000.0001) //     14 pnnghl++++++++++++++++l--aa....a++++++++++++++++++++++++++++++++++++++++++.-kxwjccbj++++++++++++ufah+++++++++++++++++++++++++++++++++++++++++kl+geddegins++.+++++++++++++++++++++++++++++++++++++a..i+j.......++++++++++
(PID.TID 0000.0001) //     13 mhhei++++++++++++++++++........e+++++++++++++++++++++++++++++++++++++++++k.-guy+vsll+++++++++++uqe-jj+++++++++++++++++++++++++++++++++++++++++++a.....--....++++++++++++++++++++++++++++++++++++++.cn++......+++++++++++
(PID.TID 0000.0001) //     12 hedcn+++++++++++++++++g.......-g+++++++++++++++++++++++++++++++++++++x++++bbgsvwwuqp+++++++r+++gb-.++k++++++++++++++++++++++++++++++++++++++++++...........++++++++++++++++++++++++++++++++++++++++++++.....a+++++++++++
(PID.TID 0000.0001) //     11 bbcd++++++++++++++++++c.......al+++l+++l++++++++++++++++++++++++++sttt+++cabfqstuutu+++++wsqtna....+++++++++++++++++++++++++++++++++++++++++++++.........b+++++++++++++++++++++++++++++++++++++++++++++.....++++++++++++
(PID.TID 0000.0001) //     10 aa-e++++++++++++++++++e..--..-k+++gd++gd+++++++++++++++++++++++++vkknpswk-cafqsrrttuusqxytiijkb...j+++++++++++++++++++++++++++++++++++++++++++++.......-++++++++++++++++++++++++++++++++++++++++++++++++-a++++++++++++++
(PID.TID 0000.0001) //      9 d--l+++++++++++++++++++...-..c++++a+++a+++++++++++++++++++++++++urlkkmoq+++prtsrsuttmghtxnabejljh-j+++++++++++++++++++++++++++++++++++++++++++++.....-l+++++++++++++++++++++++++++++++++++++++++++++++++++++++++++++++++
(PID.TID 0000.0001) //      8 c-l++++++++++++++++++++.....-o++++f+++f+++++++++++++++++++++++ohilkihhmpke++yvsstutqjnsxxrddfikie--ko+++++++++++++++++++++++++++++++++++++++++++.....f++++++++++++++++++++++++++++++++++++++++++++++++++++++++++++++++++
(PID.TID 0000.0001) //      7 c++++++++++++++++++++++a.....s++++l+++l+++++++++++++++++++++++nggiigfhouf.k++rvtstsnmuxwvshghgc--...ek+++++++++++++++++++++++++++++++++piffkk++++dekk+++++++++++++++++++++++++++++++++++++++++++++++++++++++++++++++++++
(PID.TID 0000.0001) //      6 +++++++++++++++++++++++l-...a+++++++++++++++++++++++++++++++++nhhiiggjtyk.-++-swwumhowxwwtiihb..-bfafk++++++++++++++++++++++++++++++++sklnlifm++++++++++++++++++++++++++++++++++++++++++++++++++++++++++++++++++++++++++
(PID.TID 0000.0001) //      5 ++++++++++++++++++++++++....++++++++++++++++++++++++++++++++++oijlnmnqvxd..++.l+zuliquvxwqkhe-..-bjgge+++++++++++++++++++++++++++++++nmjottuqp++++++++++++++++++++++++++++++++++++++++++++++++++++++++++++++++++++++++++
(PID.TID 0000.0001) //      4 ++++++++++++++++++++++++kkk+++++++++++++++++++++++++++++++++++qmosuutttqeb....m++toooorul-......--jgck+++k+++k++++++++++++++++++-+++jglpsuuvvu++++++++++++++++++++++++++++++++++++++++++++++++++++++++++++++++++++++++++
(PID.TID 0000.0001) //      3 +++++++++++++++++++++++++++++++++++++++++++++++++++++++++++++++++++++vrnii....tyvtrqjhhh-........-kjak++++k+++k++++++++++++++++-.++xtprtvwtpr+++++++++++++++++++++++++++++++++++++++++++++++++++++++++++++++++++++++++++
(PID.TID 0000.0001) //      2 ++++++++++++++++++++++++++++++++++++++++++++++++++++++++++++++++++++++sppl...k+vtutskgc-..........hj-+++++k+++k++++++++++++++++-++++wqpuyxqnp+++++++++++++++++++++++++++++++++++++++++++++++++++++++++++++++++++++++++++
(PID.TID 0000.0001) //      1 ++++++++++++++++++++++++++++++++++++++++++++++++++++++++++++++++++++++++pg...k+pqvspec-...........elk+++++k+++k++++++++++++++++l++++somotvtrs+++++++++++++++++++++++++++++++++++++++++++++++++++++++++++l+++++++++++++++
(PID.TID 0000.0001) //      0 ++++++++++++++++++++++++++++++++++++++++++++++++++++++++++++++++++++++++-.....kaaro-..............k++kl++kk++kk+++++++++++++++r+++xtpmhhjqtv++++++++++++++++++++++++++++++++++++++++++++++++++++++++++++k+++++++mpu++++s
(PID.TID 0000.0001) //     -1 ++++++++++++++++++++++++++++++++++++++++++++++++++++++++++++++++++++++++..-......db..............ar++++++++++++++++++++++++++++++++tnkhfgnt++++++++++++++++++++++++++++++++++++++++++++++++++++++++++++o+++++++kfqvrps+p
(PID.TID 0000.0001) // =======================================================
(PID.TID 0000.0001) // END OF FIELD                                          =
(PID.TID 0000.0001) // =======================================================
(PID.TID 0000.0001) 
(PID.TID 0000.0001) // =======================================================
(PID.TID 0000.0001) // Field hFacW at iteration          1
(PID.TID 0000.0001) // CMIN =          2.000000000000000E-01
(PID.TID 0000.0001) // CMAX =          1.000000000000000E+00
(PID.TID 0000.0001) // CINT =          2.962962962962963E-02
(PID.TID 0000.0001) // SYMBOLS (CMIN->CMAX): -abcdefghijklmnopqrstuvwxyz+
(PID.TID 0000.0001) //                  0.0: .
(PID.TID 0000.0001) // RANGE I (Lo:Hi:Step):(  -1: 194:   1)
(PID.TID 0000.0001) // RANGE J (Lo:Hi:Step):(  34:  -1:  -1)
(PID.TID 0000.0001) // RANGE K (Lo:Hi:Step):(   1:   1:   1)
(PID.TID 0000.0001) // =======================================================
(PID.TID 0000.0001) K =   1
(PID.TID 0000.0001) //                I=8       I=18      I=28      I=34      I=44      I=54      I=64      I=70      I=80      I=90      I=96      I=106     I=116     I=126     I=132     I=142     I=152     I=162     I=168     I=178     I=188
(PID.TID 0000.0001) // |--J--|101234567|901234567|901234567|901234123|567890123|567890123|567890123|563456789|123456789|123456789|123456785|789012345|789012345|789012345|789078901|345678901|345678901|345678901|901234567|901234567|901234567|901234
(PID.TID 0000.0001) //     34 ++++++++++++++++++qe---baap+++............kvtttskgc-...........h--++++k+++++++++++++++hhioojd.......k++++++++++++++++++++++++++++++++++++++++++++++++++++++++++++++mgeccdel+++++++++++++++++++++++++++++++++++++++++++++
(PID.TID 0000.0001) //     33 ++++++++++++++++++b....aac+k-.............kppqspec-............ekk++++k++++++++++++++ihhknmid.......e++++++++++++++++++++++++++++++++++++++++++++++++++++++++++++++tnhdc---l++++++++++++++++++++++++++++++++++++++++++++
(PID.TID 0000.0001) //     32 ++++++++++++++++++aakkkc--e....big..ig.....aaao-...............k+kkl+kkk++++++++++++mggilkiie.......d+++++++++++++++++++++++++++++++++++++++++++++++++++++++++++++ysnheba---++++++++++++++++++++++++++++++++++++++++++++
(PID.TID 0000.0001) //     31 ++++++++++++++++-..+++++kkkffddeip-.ip-.......b...............ar+++++++++++++++++++vkffiljiiga......++++++++++++++++++++++++++++++++++++++++++++++++++++++++++++++yspmhbaaccc+++++++++++++++++++++++++++++++++++++++++++
(PID.TID 0000.0001) //     30 ++++++++++++++++cc++++++++++++--cik.cik.......................ju++++++++++++++++++++hffipnkkhc-....k++++++++++++++++++++++++++++++++++++++++++++++++++++++++++++wuurmlkgddha--l+++++++++++++++++++++++++++++++++++++++++
(PID.TID 0000.0001) //     29 ++++++++++++++++++baaf++++++++--bfmkbfmk......................ouw+++++++++++++++++rkdddi+tpoifa....+++++++++++++++++++++++++++++++++++++++++++++++++++++++++++++qootnjjgffigffhr++++++++++++++++++++++++++++++++++++++++
(PID.TID 0000.0001) //     28 +++++++++++++++e...-fhjmuuutl----bfn-bfnl.....................kii+++++++++++++++++rjeeej++uoigc....+++++++++++++++++++++++++++++++++++++++++++++++++++++++++++++llovolkjjnoooqqrv+++v+++++++++++++++++++++++++++++++++++
(PID.TID 0000.0001) //     27 +++++++++++++++...egifeeksspjd-...be..beot++....ba...........bhdd+++++++++++++++++++kiint+xpige-...++++++++++++++++++++++++++++++++++++++++++++++++++++++++++++lddmwtniiiouwxxvvw+++w+++++++++++++++++++++++++++++++++++
(PID.TID 0000.0001) //     26 ++++++++++++++kffiidbbcdgkiikiil..-b..-bjw+++lllmme..........bfgl+++++++++++++++++++++++++vpjiga...+++++++++++++++++++++++++++++++++++++++++++++++++++++++++++m---iyvnmmfffisxxxvv++vv++++++++++++++++++++++++++++++++++
(PID.TID 0000.0001) //     25 +++++++++++++qmmmnf....--accgiil...b...bjtgg+++vhhhkhhc-....-ill++++++++++++++++++++++jj+qookih-...+++++++++++++++++++++++++++++++++++++++++++++++++++++++++++l-..euwtr-.....dlpss++ss++++++++++++++++++++++++++++++++++
(PID.TID 0000.0001) //     24 ++++++++++++xpllmng----...achiil-..--..-inss++++igghho+e....h+++++++++++++++++++++++++jhhppqlih....+++++++++++++++++++++++++++++++++++++++++++++++++++++++++++lbbkrxxu..........isw+isw+++++++++++++++++++++++++++++++++
(PID.TID 0000.0001) //     23 ++++++++++++ysnmmlhf--bfdcbbgicc+...+...cht+++++lggil++ob--bg++++++++++++++++++++++...++jjjrpli....+++++++++++++++++++++++++++++++++++++++++++++vv++++++++++++...-qyxc....l......afm.afm++++++++++++++--c+++++++++++++++
(PID.TID 0000.0001) //     22 ++++++++++++ysonmmjjffhmia--cf...+aa.+aal+++++++offk++++nigcc++++++++++++++++++++++....++hh+rrna...a++++++++++++++++++++++++++++++++++++++++++++hkm+++++++++++e....ni....+++++e....-...-d++++++++++++......-++++++++++++
(PID.TID 0000.0001) //     21 ++++++++++++yojjkmmlhhjmha--ce....++..+++++++++++lll+++++spjjl+++++++++++++++++++++.....+++++++j....a+++++++++++++++++++++++++++++++++++++++++++ffgi+++++++++++l-......+++++++++++e.++e..-l+++++++++.........-++++++++++
(PID.TID 0000.0001) //     20 +++++++++++++lffhlljeccfidbbge.....a...af++++++++ll++++++++yy+++++++++++++++++++++++.......+++++--cej+++++++++++++++++++++++++++++++++++++++++++iihhhjr+++++++++++-..c++++++++++++++++++++++++jj++++..........++++++++++
(PID.TID 0000.0001) //     19 ++++++++++++++lkkoppi---bdcced....-f..-fm++++++++++++++++qq++++++++++++++++++++++jj+.....jj+++++kkmp++++++++++++++++++++++++++++++++++++++++++++llkiddfsz+++++ll+++++++++++++++++++++++++++++++b..+j.........a++++++++++
(PID.TID 0000.0001) //     18 w++++++++++++++++++++bbbegeb--...-kr.-kr++++++++++++++++lll+++lll+++++++--+++tt+++++++...+++++++++++++++++++++++++++++++++++++++++++++++++++++++lllnihhr+++++ll+++++++++++++++++++++++++++++++++j..j..........++++++++++
(PID.TID 0000.0001) //     17 u++++++++++++++++++++lgghkh-.....lx+.lx++++++++++++++++++llp+laal+++++++..++roo+++++++++++++++++++oo++++++++++++++++++++++++++++++++++++++++++++jjkorqqv+++tcc++++++++++++++++++++++++++++++++++j..............+++++++++
(PID.TID 0000.0001) //     16 vyy++++++++++++++++++rhhhkg......r++.r++++++++++++++++++++ll+pll+++++rr++aabqw+++++++++++++++++++ffim+++++++++++++++++++++++++++++++++++++++++++iiimoorwz++n--++++++++++++++++++++++++++++++++++j..............+++++++++
(PID.TID 0000.0001) //     15 rssmm+++++++++++++++++lffge......+++.++++++++++++++++++++++ss+++++++++l-+k..eq+fcc+++++++++++++++dbbj+++++++++++++++++++++++++++++++++++++++oo++kjiijkntx++ll++++++++++++++++++++++++++++++++++++..............+++++++++
(PID.TID 0000.0001) //     14 mnngghl+++++++++++++++l---a.....a+++a+++++++++++++++++++++++++++++++++++++..-kwjccbbj+++++++++++ufaah++++++++++++++++++++++++++++++++++++++++kklgedddegins+..++++++++++++++++++++++++++++++++++++a...ij........+++++++++
(PID.TID 0000.0001) //     13 lhheei+++++++++++++++++.........e+++e++++++++++++++++++++++++++++++++++++k..-guyvslll++++++++++uqe--jj++++++++++++++++++++++++++++++++++++++++++a......-.....+++++++++++++++++++++++++++++++++++++..cn+.......++++++++++
(PID.TID 0000.0001) //     12 hedccn++++++++++++++++g........-g+++g++++++++++++++++++++++++++++++++xx+++bbbgsvwuqpp++++++rr++gb-..+kk+++++++++++++++++++++++++++++++++++++++++............+++++++++++++++++++++++++++++++++++++++++++......a++++++++++
(PID.TID 0000.0001) //     11 bbbcd+++++++++++++++++c........al++ll++ll+++++++++++++++++++++++++ssttt++caabfqstuttu++++wsqqna.....++++++++++++++++++++++++++++++++++++++++++++..........b++++++++++++++++++++++++++++++++++++++++++++......+++++++++++
(PID.TID 0000.0001) //     10 aa--e+++++++++++++++++e...-...-k++gd++gdd++++++++++++++++++++++++vkkknpsk--aafqrrrttusqqxtiiijb....j++++++++++++++++++++++++++++++++++++++++++++........-+++++++++++++++++++++++++++++++++++++++++++++++--a+++++++++++++
(PID.TID 0000.0001) //      9 d---l++++++++++++++++++.......c+++aa++aa++++++++++++++++++++++++urlkkkmo+++pprsrrsttmgghtnaabejjh--j++++++++++++++++++++++++++++++++++++++++++++......-l++++++++++++++++++++++++++++++++++++++++++++++++++++++++++++++++
(PID.TID 0000.0001) //      8 c--l+++++++++++++++++++......-o+++ff++ff++++++++++++++++++++++ohhikihhhmkee+yvsssttqjjnsxrdddfiie---ko++++++++++++++++++++++++++++++++++++++++++......f+++++++++++++++++++++++++++++++++++++++++++++++++++++++++++++++++
(PID.TID 0000.0001) //      7 ac+++++++++++++++++++++a......s+++ll++ll++++++++++++++++++++++ngggigffhof..k+rrtsssnmmuwvshgggc--....ek++++++++++++++++++++++++++++++++pifffkk+++ddekk++++++++++++++++++++++++++++++++++++++++++++++++++++++++++++++++++
(PID.TID 0000.0001) //      6 -++++++++++++++++++++++l-....a++++++++++++++++++++++++++++++++nhhhigggjtk..-+--swumhhowwwtiihb...-baafk+++++++++++++++++++++++++++++++skklliffm+++++++++++++++++++++++++++++++++++++++++++++++++++++++++++++++++++++++++
(PID.TID 0000.0001) //      5 l+++++++++++++++++++++++.....+++++++++++++++++++++++++++++++++oiijlmmnqvd...+..lzuliiquvwqkhe-...-bggee++++++++++++++++++++++++++++++nmjjottqpp+++++++++++++++++++++++++++++++++++++++++++++++++++++++++++++++++++++++++
(PID.TID 0000.0001) //      4 ++++++++++++++++++++++++kkkk++++++++++++++++++++++++++++++++++qmmosutttq-b.....m+tooooorl-.......--gcck++kk++kk+++++++++++++++++--++jgglpsuuvuu+++++++++++++++++++++++++++++++++++++++++++++++++++++++++++++++++++++++++
(PID.TID 0000.0001) //      3 +++++++++++++++++++++++++++++++++++++++++++++++++++++++++++++++++++++vrnci.....tvtrqjhhh-.........-jaak+++kk++kk+++++++++++++++-..+xtpprtvtppr++++++++++++++++++++++++++++++++++++++++++++++++++++++++++++++++++++++++++
(PID.TID 0000.0001) //      2 ++++++++++++++++++++++++++++++++++++++++++++++++++++++++++++++++++++++spil....kvtttskgc-...........h--++++kk++kk+++++++++++++++--+++wqppuxqnnp++++++++++++++++++++++++++++++++++++++++++++++++++++++++++++++++++++++++++
(PID.TID 0000.0001) //      1 ++++++++++++++++++++++++++++++++++++++++++++++++++++++++++++++++++++++++pg....kppqspec-............ekk++++kk++kk+++++++++++++++ll+++sommottrrs++++++++++++++++++++++++++++++++++++++++++++++++++++++++++ll++++++++++++++
(PID.TID 0000.0001) //      0 ++++++++++++++++++++++++++++++++++++++++++++++++++++++++++++++++++++++++-......aaao-...............k+kkl+kkk+kkk++++++++++++++rr++xtpmhhhjqtv+++++++++++++++++++++++++++++++++++++++++++++++++++++++++++kk++++++mmpu+++s
(PID.TID 0000.0001) //     -1 ++++++++++++++++++++++++++++++++++++++++++++++++++++++++++++++++++++++++..-.......b...............ar+++++++++++++++++++++++++++++++tnkhffgnt+++++++++++++++++++++++++++++++++++++++++++++++++++++++++++oo++++++kffqrppsp
(PID.TID 0000.0001) // =======================================================
(PID.TID 0000.0001) // END OF FIELD                                          =
(PID.TID 0000.0001) // =======================================================
(PID.TID 0000.0001) 
(PID.TID 0000.0001) // =======================================================
(PID.TID 0000.0001) // Field hFacS at iteration          1
(PID.TID 0000.0001) // CMIN =          2.000000000000000E-01
(PID.TID 0000.0001) // CMAX =          1.000000000000000E+00
(PID.TID 0000.0001) // CINT =          2.962962962962963E-02
(PID.TID 0000.0001) // SYMBOLS (CMIN->CMAX): -abcdefghijklmnopqrstuvwxyz+
(PID.TID 0000.0001) //                  0.0: .
(PID.TID 0000.0001) // RANGE I (Lo:Hi:Step):(  -1: 194:   1)
(PID.TID 0000.0001) // RANGE J (Lo:Hi:Step):(  34:  -1:  -1)
(PID.TID 0000.0001) // RANGE K (Lo:Hi:Step):(   1:   1:   1)
(PID.TID 0000.0001) // =======================================================
(PID.TID 0000.0001) K =   1
(PID.TID 0000.0001) //                I=8       I=18      I=28      I=34      I=44      I=54      I=64      I=70      I=80      I=90      I=96      I=106     I=116     I=126     I=132     I=142     I=152     I=162     I=168     I=178     I=188
(PID.TID 0000.0001) // |--J--|101234567|901234567|901234567|901234123|567890123|567890123|567890123|563456789|123456789|123456789|123456785|789012345|789012345|789012345|789078901|345678901|345678901|345678901|901234567|901234567|901234567|901234
(PID.TID 0000.0001) //     34 ++++++++++++++++++b...baap+k-........g...k+pquspec-...........ej-+++++k++++++++++++++ihinomid......e+++++++++++++++++++++++++++++++++++++++++++++++++++++++++++++++mgecc--l+++++++++++++++++++++++++++++++++++++++++++++
(PID.TID 0000.0001) //     33 ++++++++++++++++++a...ba-+e...............kaaro-..............elkkl++kkk++++++++++++mghklkiid......d++++++++++++++++++++++++++++++++++++++++++++++++++++++++++++++ysnhdb---+++++++++++++++++++++++++++++++++++++++++++++
(PID.TID 0000.0001) //     32 ++++++++++++++++-.ak+k+c-+e...bilg..lg.......db...............k++kl++kkk+++++++++++vkfilljije......d++++++++++++++++++++++++++++++++++++++++++++++++++++++++++++++ysnheba--c++++++++++++++++++++++++++++++++++++++++++++
(PID.TID 0000.0001) //     31 ++++++++++++++++-.++++++k+kfkd-cip-.ip-......................ar++++++++++++++++++++vhfilljikga.....+++++++++++++++++++++++++++++++++++++++++++++++++++++++++++++wuvrmlhbadca-l++++++++++++++++++++++++++++++++++++++++++
(PID.TID 0000.0001) //     30 ++++++++++++++++c+baf+++++++++-bfmk.fmk......................juw++++++++++++++++++rkddipsnkmhc-...k+++++++++++++++++++++++++++++++++++++++++++++++++++++++++++++qourmjjgdhha-hr+++++++++++++++++++++++++++++++++++++++++
(PID.TID 0000.0001) //     29 +++++++++++++++e..-afjm+uuvtl---bfnkbfnk.....................kki++++++++++++++++++rjddi++tpoifa...++++++++++++++++++++++++++++++++++++++++++++++++++++++++++++++loutnjjgfijgfhrv++++++++++++++++++++++++++++++++++++++++
(PID.TID 0000.0001) //     28 +++++++++++++++...-fhfekstspj--..beo.beol.......-............jhd++++++++++++++++++rjeejt++uoigc...+++++++++++++++++++++++++++++++++++++++++++++++++++++++++++++ldmvwoliinpooqqrv++++++++++++++++++++++++++++++++++++++++
(PID.TID 0000.0001) //     27 ++++++++++++++k..egdbcdgkmikjd-..-bj.-bjt+++...bma..........bfgd++++++++++++++++++++kint++vpige-..++++++++++++++++++++++++++++++++++++++++++++++++++++++++++++m--iwytniiffisxxvwv+++v+++++++++++++++++++++++++++++++++++
(PID.TID 0000.0001) //     26 +++++++++++++qkfimf...b-agcgnill..bj..bjutg++llphhe.........bfgl++++++++++++++++++++++j++qopjig-..++++++++++++++++++++++++++++++++++++++++++++++++++++++++++++l-.euzvnm-....dlpus+++s+++++++++++++++++++++++++++++++++++
(PID.TID 0000.0001) //     25 ++++++++++++xplmnnf...-..acgmil+..-i..-intg++++vhghhhkc-...-ill+++++++++++++++++++++++jh+popkih...++++++++++++++++++++++++++++++++++++++++++++++++++++++++++++l-.euxwt.........isw++sw++++++++++++++++++++++++++++++++++
(PID.TID 0000.0001) //     24 ++++++++++++xplmmlg--a-..abgiic+-..c-..chts+++++ighho++e...g+++++++++++++++++++++++..+jhjjqslih...++++++++++++++++++++++++++++++++++++++++++++++v+++++++++++++..-qxxxc..........afm+afm+++++++++++++++-c++++++++++++++++
(PID.TID 0000.0001) //     23 ++++++++++++ysnmmlhf-bifda-cfi..+..c+..cht++++++lfil+++ob-bc+++++++++++++++++++++++...++jhrwpli...a+++++++++++++++++++++++++++++++++++++++++++++km++++++++++++....nxi....+l.......-d..-d+++++++++++++.....-+++++++++++++
(PID.TID 0000.0001) //     22 ++++++++++++yojkmmjkfhmmha-cfe...+al.+al++++++++ofk+++++nigcl++++++++++++++++++++++....++h++rrna...a++++++++++++++++++++++++++++++++++++++++++++fgi+++++++++++e.........++++++e...-...-.-l++++++++++........-+++++++++++
(PID.TID 0000.0001) //     21 ++++++++++++ylfhlnljecfiha-cfe....af..af+++++++++ll++++++spjl++++++++++++++++++++++.....-.+++++j...a++++++++++++++++++++++++++++++++++++++++++++fghhjr+++++++++l-.....++++++++++++e.++e.-l++++j+++++.........+++++++++++
(PID.TID 0000.0001) //     20 +++++++++++++lfhlnlje--bfdbegd....af..af+++++++++l+++++++q+y+++++++++++++++++++++j++....-.++++++-cej++++++++++++++++++++++++++++++++++++++++++++iihhdfsz++++++l+++-.c+++++++++++++++++++++++++jb.++j.........+++++++++++
(PID.TID 0000.0001) //     19 ++++++++++++++lkoqpqi--bfdcb--...-fm.-fm++++++++++++++++ll++++ll++++++++-++++t+++j++....jj++++++kmp+++++++++++++++++++++++++++++++++++++++++++++llkidfrz+++++ll++++++++++++++++++++++++++++++++b..+j.........+++++++++++
(PID.TID 0000.0001) //     18 +++++++++++++++++++++bbehge-....-kr+-kr+++++++++++++++++llp++lal++++++++.+++ro++++++++..++++++++++o+++++++++++++++++++++++++++++++++++++++++++++jknoihr++++tcl++++++++++++++++++++++++++++++++++j.a...........++++++++++
(PID.TID 0000.0001) //     17 yy+++++++++++++++++++lghkkg.....lx++lx+++++++++++++++++++ll++lal+++++r++.abqro+++++++++++++++++++fim++++++++++++++++++++++++++++++++++++++++++++iimooqvz+++n-+++++++++++++++++++++++++++++++++++j.............++++++++++
(PID.TID 0000.0001) //     16 sstm+++++++++++++++++rhfghe.....r+++r+++++++++++++++++++++ls+pl++++++rl-+a.eq++fc++++++++++++++++dbj++++++++++++++++++++++++++++++++++++++++o+++iiijkntx+++l-+++++++++++++++++++++++++++++++++++j.............++++++++++
(PID.TID 0000.0001) //     15 pnnghl++++++++++++++++l--aa.....+++++++++++++++++++++++++++s++++++++++l-+k.-kxwfccbj++++++++++++udah++++++++++++++++++++++++++++++++++++++++okl+geddegins++.+++++++++++++++++++++++++++++++++++++.............++++++++++
(PID.TID 0000.0001) //     14 mhhehl++++++++++++++++l........a+++++++++++++++++++++++++++++++++++++++++k.-guwjccbj+++++++++++uqe-hj++++++++++++++++++++++++++++++++++++++++kl+a.....--....+++++++++++++++++++++++++++++++++++++a..i+j.......++++++++++
(PID.TID 0000.0001) //     13 hedci+++++++++++++++++g........e+++++++++++++++++++++++++++++++++++++x+++k.-gsvwvsll+++++++r+++gb-.jjk++++++++++++++++++++++++++++++++++++++++++............++++++++++++++++++++++++++++++++++++++.cn++......+++++++++++
(PID.TID 0000.0001) //     12 bbccn+++++++++++++++++c.......-g+++l+++l++++++++++++++++++++++++++sttt+++cabfqstuuqp+++++wsqtna....++k++++++++++++++++++++++++++++++++++++++++++...........++++++++++++++++++++++++++++++++++++++++++++.....a+++++++++++
(PID.TID 0000.0001) //     11 aa-d++++++++++++++++++c.......al++gd++gd+++++++++++++++++++++++++vkknpswk-aafqsrrttuusqxytiijka....+++++++++++++++++++++++++++++++++++++++++++++.........b+++++++++++++++++++++++++++++++++++++++++++++.....++++++++++++
(PID.TID 0000.0001) //     10 a--e++++++++++++++++++e...-..-k+++ad++ad++++++++++++++++++++++++urkkkmoqk-cafqsrrtttmghtxnabejb...j+++++++++++++++++++++++++++++++++++++++++++++.......-++++++++++++++++++++++++++++++++++++++++++++++++-a++++++++++++++
(PID.TID 0000.0001) //      9 c--l+++++++++++++++++++......c++++a+++a+++++++++++++++++++++++ohilkihhmpke+prtsrsutqjghtxnabeikie--ko+++++++++++++++++++++++++++++++++++++++++++.....-l+++++++++++++++++++++++++++++++++++++++++++++++++++++++++++++++++
(PID.TID 0000.0001) //      8 c-l++++++++++++++++++++......o++++f+++f+++++++++++++++++++++++nggiigfhmpf.k+yrssstsnjnswvrddfgc--...ek+++++++++++++++++++++++++++++++++piffkk+++.....f++++++++++++++++++++++++++++++++++++++++++++++++++++++++++++++++++
(PID.TID 0000.0001) //      7 c++++++++++++++++++++++a.....s++++l+++l+++++++++++++++++++++++nggiigfhouf.-++-ststmhmuxwvshghb..-...ek++++++++++++++++++++++++++++++++skiffifm+++dekk+++++++++++++++++++++++++++++++++++++++++++++++++++++++++++++++++++
(PID.TID 0000.0001) //      6 +++++++++++++++++++++++l....a+++++++++++++++++++++++++++++++++nhhiiggjtxd..++.lwwulhouvwwqihe-..-bfafe+++++++++++++++++++++++++++++++nmjlnlifm++++++++++++++++++++++++++++++++++++++++++++++++++++++++++++++++++++++++++
(PID.TID 0000.0001) //      5 ++++++++++++++++++++++++....++++++++++++++++++++++++++++++++++oijlnmnqtqd.....l+ztlioorul-......--jgce+++k+++k++++++++++++++++++-+++jgljottuqp++++++++++++++++++++++++++++++++++++++++++++++++++++++++++++++++++++++++++
(PID.TID 0000.0001) //      4 ++++++++++++++++++++++++kkk+++++++++++++++++++++++++++++++++++qmosuuttrneb....myvtoojhhh-........-jgak+++kk++kk++++++++++++++++-.++xjglpsutpru++++++++++++++++++++++++++++++++++++++++++++++++++++++++++++++++++++++++++
(PID.TID 0000.0001) //      3 +++++++++++++++++++++++++++++++++++++++++++++++++++++++++++++++++++++vrnii....tvttrqjgc-..........hj-k++++k+++k++++++++++++++++-.++xtpptvwqnp+++++++++++++++++++++++++++++++++++++++++++++++++++++++++++++++++++++++++++
(PID.TID 0000.0001) //      2 ++++++++++++++++++++++++++++++++++++++++++++++++++++++++++++++++++++++sppg...k+pquspec-...........ej-+++++k+++k++++++++++++++++-++++somotvqnp+++++++++++++++++++++++++++++++++++++++++++++++++++++++++++l+++++++++++++++
(PID.TID 0000.0001) //      1 ++++++++++++++++++++++++++++++++++++++++++++++++++++++++++++++++++++++++-.....kaaro-..............elkkl++kk++kk+++++++++++++++rl++xtpmhhjqtrs+++++++++++++++++++++++++++++++++++++++++++++++++++++++++++k+++++++mpu++++s
(PID.TID 0000.0001) //      0 ++++++++++++++++++++++++++++++++++++++++++++++++++++++++++++++++++++++++.g.......db...............k++kl++kk+++k+++++++++++++++r+++xtnkhfgntv+++++++++++++++++++++++++++++++++++++++++++++++++++++++++++ok++++++kfpurps+p
(PID.TID 0000.0001) //     -1 +++++++++++++++++++++++++++++++++++++++++++++++++++++++++++++++++++++++pip-......................ar++++++++++++++++++++++++++++++++tkkhfgmt++++++++++++++++++++++++++++++++++++++++++++++++++++++++++++o+++++++kfqvpnrv+
(PID.TID 0000.0001) // =======================================================
(PID.TID 0000.0001) // END OF FIELD                                          =
(PID.TID 0000.0001) // =======================================================
(PID.TID 0000.0001) 
(PID.TID 0000.0001) 
(PID.TID 0000.0001) // ===================================
(PID.TID 0000.0001) // GAD parameters :
(PID.TID 0000.0001) // ===================================
(PID.TID 0000.0001) tempAdvScheme =   /* Temp. Horiz.Advection scheme selector */
(PID.TID 0000.0001)                       2
(PID.TID 0000.0001)     ;
(PID.TID 0000.0001) tempVertAdvScheme =   /* Temp. Vert. Advection scheme selector */
(PID.TID 0000.0001)                       2
(PID.TID 0000.0001)     ;
(PID.TID 0000.0001) tempMultiDimAdvec =   /* use Muti-Dim Advec method for Temp */
(PID.TID 0000.0001)                   F
(PID.TID 0000.0001)     ;
(PID.TID 0000.0001) tempSOM_Advection = /* use 2nd Order Moment Advection for Temp */
(PID.TID 0000.0001)                   F
(PID.TID 0000.0001)     ;
(PID.TID 0000.0001) AdamsBashforthGt = /* apply Adams-Bashforth extrapolation on Gt */
(PID.TID 0000.0001)                   T
(PID.TID 0000.0001)     ;
(PID.TID 0000.0001) AdamsBashforth_T = /* apply Adams-Bashforth extrapolation on Temp */
(PID.TID 0000.0001)                   F
(PID.TID 0000.0001)     ;
(PID.TID 0000.0001) saltAdvScheme =   /* Salt. Horiz.advection scheme selector */
(PID.TID 0000.0001)                       3
(PID.TID 0000.0001)     ;
(PID.TID 0000.0001) saltVertAdvScheme =   /* Salt. Vert. Advection scheme selector */
(PID.TID 0000.0001)                       3
(PID.TID 0000.0001)     ;
(PID.TID 0000.0001) saltMultiDimAdvec =   /* use Muti-Dim Advec method for Salt */
(PID.TID 0000.0001)                   F
(PID.TID 0000.0001)     ;
(PID.TID 0000.0001) saltSOM_Advection = /* use 2nd Order Moment Advection for Salt */
(PID.TID 0000.0001)                   F
(PID.TID 0000.0001)     ;
(PID.TID 0000.0001) AdamsBashforthGs = /* apply Adams-Bashforth extrapolation on Gs */
(PID.TID 0000.0001)                   T
(PID.TID 0000.0001)     ;
(PID.TID 0000.0001) AdamsBashforth_S = /* apply Adams-Bashforth extrapolation on Salt */
(PID.TID 0000.0001)                   F
(PID.TID 0000.0001)     ;
(PID.TID 0000.0001) // ===================================
- INPHYS: k,SIG, SIGH,   SIGL,   WVI(1),  WVI(2):
  1   0.0750   0.1500  -2.5903   0.8306   0.5757
  2   0.2500   0.3500  -1.3863   1.4427   0.4854
  3   0.5000   0.6500  -0.6931   2.2818   0.5987
  4   0.7750   0.9000  -0.2549   4.9116   0.7344
  5   0.9500   1.0000  -0.0513   0.0000   0.0377
- INPHYS: end setup WVI.
(PID.TID 0000.0001)  AIM_READ_PHYSPARMS: opening data.aimphys
(PID.TID 0000.0001)  OPEN_COPY_DATA_FILE: opening file data.aimphys
(PID.TID 0000.0001) // =======================================================
(PID.TID 0000.0001) // Parameter file "data.aimphys"
(PID.TID 0000.0001) // =======================================================
(PID.TID 0000.0001) ># AIM physics package parameters:
(PID.TID 0000.0001) >
(PID.TID 0000.0001) >C--   AIM interface parameter (namelist AIM_PARAMS):
(PID.TID 0000.0001) >#     aim_useFMsurfBC :: select surface B.C. from Franco Molteni
(PID.TID 0000.0001) >#     aim_useMMsurfFc :: select Monthly Mean surface forcing (e.g., NCEP)
(PID.TID 0000.0001) >#     aim_surfPotTemp :: surf.Temp input file is in Pot.Temp (aim_useMMsurfFc)
(PID.TID 0000.0001) >#     aim_energPrecip :: account for energy of precipitation (snow & rain temp)
(PID.TID 0000.0001) >#     aim_splitSIOsFx :: compute separately Sea-Ice & Ocean surf. Flux
(PID.TID 0000.0001) >#     aim_LandFile :: file name for Land fraction [0-1]
(PID.TID 0000.0001) >#     aim_MMsufx   :: sufix for all Monthly Mean surface forcing files
(PID.TID 0000.0001) >#     aim_MMsufxLength :: Length of sufix (Monthly Mean surf. forc. files)
(PID.TID 0000.0001) >#     aim_albFile  :: file name for Albedo input file   (F.M. surfBC)
(PID.TID 0000.0001) >#     aim_vegFile  :: file name for vegetation fraction (F.M. surfBC)
(PID.TID 0000.0001) >#     aim_sstFile  :: file name for  Sea.Surf.Temp      (F.M. surfBC)
(PID.TID 0000.0001) >#     aim_lstFile  :: file name for Land.Surf.Temp      (F.M. surfBC)
(PID.TID 0000.0001) >#     aim_oiceFile :: file name for Sea Ice fraction    (F.M. surfBC)
(PID.TID 0000.0001) >#     aim_snowFile :: file name for Snow depth          (F.M. surfBC)
(PID.TID 0000.0001) >#     aim_swcFile  :: file name for Soil Water content  (F.M. surfBC)
(PID.TID 0000.0001) >#     aim_dragStrato :: stratospheric-drag damping time scale (s)
(PID.TID 0000.0001) >#     aim_clrSkyDiag :: compute clear-sky radiation for diagnostics
(PID.TID 0000.0001) >#     aim_taveFreq :: Frequency^-1 for time-average output (s)
(PID.TID 0000.0001) >#     aim_diagFreq :: Frequency^-1 for diagnostic output (s)
(PID.TID 0000.0001) >#     aim_tendFreq :: Frequency^-1 for tendencies output (s)
(PID.TID 0000.0001) > &AIM_PARAMS
(PID.TID 0000.0001) >#  aim_useFMsurfBC=.FALSE.,
(PID.TID 0000.0001) >#  aim_useMMsurfFc=.TRUE.,
(PID.TID 0000.0001) >#  aim_surfPotTemp=.TRUE.,
(PID.TID 0000.0001) >   aim_energPrecip=.TRUE.,
(PID.TID 0000.0001) >   aim_splitSIOsFx=.TRUE.,
(PID.TID 0000.0001) >   aim_LandFile= 'landFrc.cpl_FM.bin',
(PID.TID 0000.0001) >   aim_albFile = 'albedo_cs32.bin',
(PID.TID 0000.0001) >   aim_vegFile = 'vegetFrc.cpl_FM.bin',
(PID.TID 0000.0001) >   aim_sstFile = 'seaSurfT.cpl_FM.bin',
(PID.TID 0000.0001) >   aim_lstFile = 'lndSurfT.cpl_FM.bin',
(PID.TID 0000.0001) >   aim_oiceFile= 'seaIce.cpl3FM.bin',
(PID.TID 0000.0001) >   aim_snowFile= 'snowDepth.cpl_FM.bin',
(PID.TID 0000.0001) >   aim_swcFile = 'soilMoist.cpl_FM.bin',
(PID.TID 0000.0001) >   aim_dragStrato= 2592000.,
(PID.TID 0000.0001) >#  aim_clrSkyDiag=.TRUE.,
(PID.TID 0000.0001) >#  aim_diagFreq=3600.,
(PID.TID 0000.0001) > &
(PID.TID 0000.0001) >
(PID.TID 0000.0001) >#--   Physical constants
(PID.TID 0000.0001) >#       P0    = reference pressure                 [Pa=N/m2]
(PID.TID 0000.0001) >#       GG    = gravity accel.                     [m/s2]
(PID.TID 0000.0001) >#       RD    = gas constant for dry air           [J/kg/K]
(PID.TID 0000.0001) >#       CP    = specific heat at constant pressure [J/kg/K]
(PID.TID 0000.0001) >#       ALHC  = latent heat of condensation        [J/g]
(PID.TID 0000.0001) >#       ALHF  = latent heat of freezing            [J/g]
(PID.TID 0000.0001) >#       SBC   = Stefan-Boltzmann constant
(PID.TID 0000.0001) >#     rainCP  = heat capacity of liquid water      [J/g/K]
(PID.TID 0000.0001) >#     tFreeze = freezing temperature of pure water [K]
(PID.TID 0000.0001) >
(PID.TID 0000.0001) >#--   Constants for forcing fields (namelist AIM_PAR_FOR):
(PID.TID 0000.0001) >#      SOLC   = Solar constant (area averaged) in W/m^2
(PID.TID 0000.0001) >#      ALBSEA = Albedo over sea
(PID.TID 0000.0001) >#      ALBICE = Albedo over sea ice (for ice fraction = 1)
(PID.TID 0000.0001) >#      ALBSN  = Albedo over snow (for snow depth > SDALB)
(PID.TID 0000.0001) >#      SDALB  = Snow depth (mm water) corresponding to maximum albedo
(PID.TID 0000.0001) >#      SWCAP  = Soil wetness at field capacity (volume fraction)
(PID.TID 0000.0001) >#      SWWIL  = Soil wetness at wilting point  (volume fraction)
(PID.TID 0000.0001) >#      hSnowWetness :: snow depth (m) corresponding to maximum wetness
(PID.TID 0000.0001) > &AIM_PAR_FOR
(PID.TID 0000.0001) > &
(PID.TID 0000.0001) >
(PID.TID 0000.0001) >#--   Constants for surface fluxes (namelist AIM_PAR_SFL):
(PID.TID 0000.0001) >#      FWIND0 = ratio of near-sfc wind to lowest-level wind
(PID.TID 0000.0001) >#      FTEMP0 = weight for near-sfc temperature extrapolation (0-1) :
(PID.TID 0000.0001) >#               1 : linear extrapolation from two lowest levels
(PID.TID 0000.0001) >#               0 : constant potential temperature ( = lowest level)
(PID.TID 0000.0001) >#      FHUM0  = weight for near-sfc specific humidity extrapolation (0-1) :
(PID.TID 0000.0001) >#               1 : extrap. with constant relative hum. ( = lowest level)
(PID.TID 0000.0001) >#               0 : constant specific hum. ( = lowest level)
(PID.TID 0000.0001) >#      CDL    = drag coefficient for momentum over land
(PID.TID 0000.0001) >#      CDS    = drag coefficient for momentum over sea
(PID.TID 0000.0001) >#      CHL    = heat exchange coefficient over land
(PID.TID 0000.0001) >#      CHS    = heat exchange coefficient over sea
(PID.TID 0000.0001) >#      VGUST  = wind speed for sub-grid-scale gusts
(PID.TID 0000.0001) >#      CTDAY  = daily-cycle correction (dTskin/dSSRad)
(PID.TID 0000.0001) >#      DTHETA = Potential temp. gradient for stability correction
(PID.TID 0000.0001) >#      dTstab = potential temp. increment for stability function derivative
(PID.TID 0000.0001) >#      FSTAB  = Amplitude of stability correction (fraction)
(PID.TID 0000.0001) >#      HDRAG  = Height scale for orographic correction
(PID.TID 0000.0001) >#      FHDRAG = Amplitude of orographic correction (fraction)
(PID.TID 0000.0001) > &AIM_PAR_SFL
(PID.TID 0000.0001) >#  FTEMP0 = 0.,
(PID.TID 0000.0001) >#  FHUM0  = 0.,
(PID.TID 0000.0001) >#  dTstab = 0.,
(PID.TID 0000.0001) > &
(PID.TID 0000.0001) >
(PID.TID 0000.0001) >#--   Convection constants (namelist AIM_PAR_CNV):
(PID.TID 0000.0001) >#      PSMIN  = minimum (norm.) sfc. pressure for the occurrence of convection
(PID.TID 0000.0001) >#      TRCNV  = time of relaxation (in hours) towards reference state
(PID.TID 0000.0001) >#      QBL    = specific hum. threshold in the boundary layer
(PID.TID 0000.0001) >#      RHBL   = relative hum. threshold in the boundary layer
(PID.TID 0000.0001) >#      RHIL   = rel. hum. threshold in intermed. layers for secondary mass flux
(PID.TID 0000.0001) >#      ENTMAX = max. entrainment as a fraction of cloud-base mass flux
(PID.TID 0000.0001) >#      SMF    = ratio between secondary and primary mass flux at cloud-base
(PID.TID 0000.0001) > &AIM_PAR_CNV
(PID.TID 0000.0001) > &
(PID.TID 0000.0001) >
(PID.TID 0000.0001) >#--   Constants for large-scale condensation (namelist AIM_PAR_LSC):
(PID.TID 0000.0001) >#      TRLSC  = Relaxation time (in hours) for specific humidity
(PID.TID 0000.0001) >#      RHLSC  = Maximum relative humidity threshold (at sigma=1)
(PID.TID 0000.0001) >#      DRHLSC = Vertical range of relative humidity threshold
(PID.TID 0000.0001) >#      QSMAX  = used to define the maximum latent heat release
(PID.TID 0000.0001) > &AIM_PAR_LSC
(PID.TID 0000.0001) > &
(PID.TID 0000.0001) >
(PID.TID 0000.0001) >#--   Radiation constants (namelist AIM_PAR_RAD):
(PID.TID 0000.0001) >#      RHCL1  = relative hum. corresponding to cloud cover = 0
(PID.TID 0000.0001) >#      RHCL2  = relative hum. corresponding to cloud cover = 1
(PID.TID 0000.0001) >#      QACL1  = specific hum. threshold for cloud cover in the upper troposphere
(PID.TID 0000.0001) >#      QACL2  = specific hum. threshold for cloud cover in the upper troposphere
(PID.TID 0000.0001) >#      ALBCL  = cloud albedo (for cloud cover = 1)
(PID.TID 0000.0001) >#      EPSSW  = fraction of incoming solar radiation absorbed by ozone
(PID.TID 0000.0001) >#      EPSLW  = fraction of surface LW radiation emitted directly to space
(PID.TID 0000.0001) >#      EMISFC = longwave surface emissivity
(PID.TID 0000.0001) >#--:            shortwave absorptivities (for dp = 10^5 Pa) :
(PID.TID 0000.0001) >#      ABSDRY = abs. of dry air      (visible band)
(PID.TID 0000.0001) >#      ABSAER = abs. of aerosols     (visible band)
(PID.TID 0000.0001) >#      ABSWV1 = abs. of water vapour (visible band, for dq = 1 g/kg)
(PID.TID 0000.0001) >#      ABSWV2 = abs. of water vapour (near IR band, for dq = 1 g/kg)
(PID.TID 0000.0001) >#      ABSCL1 = abs. of clouds       (visible band, constant term)
(PID.TID 0000.0001) >#      ABSCL2 = abs. of clouds       (visible band, for dw = 1 g/kg)
(PID.TID 0000.0001) >#--:            longwave absorptivities (per dp = 10^5 Pa) :
(PID.TID 0000.0001) >#      ABLWIN = abs. of air in "window" band
(PID.TID 0000.0001) >#      ABLCO2 = abs. of air in CO2 band
(PID.TID 0000.0001) >#      ABLWV1 = abs. of water vapour in H2O band 1 (weak),   for dq = 1 g/kg
(PID.TID 0000.0001) >#      ABLWV2 = abs. of water vapour in H2O band 2 (strong), for dq = 1 g/kg
(PID.TID 0000.0001) >#      ABLCL1 = abs. of clouds       in "window" band,       constant term
(PID.TID 0000.0001) >#      ABLCL2 = abs. of clouds       in "window" band,       for dw = 1 g/kg
(PID.TID 0000.0001) > &AIM_PAR_RAD
(PID.TID 0000.0001) > &
(PID.TID 0000.0001) >
(PID.TID 0000.0001) >#--   Constants for vertical dif. and sh. conv. (namelist AIM_PAR_VDI):
(PID.TID 0000.0001) >#      TRSHC  = relaxation time (in hours) for shallow convection
(PID.TID 0000.0001) >#      TRVDI  = relaxation time (in hours) for moisture diffusion
(PID.TID 0000.0001) >#      TRVDS  = relaxation time (in hours) for super-adiab. conditions
(PID.TID 0000.0001) >#      RHGRAD = maximum gradient of relative humidity (d_RH/d_sigma)
(PID.TID 0000.0001) >#      SEGRAD = minimum gradient of dry static energy (d_DSE/d_phi)
(PID.TID 0000.0001) > &AIM_PAR_VDI
(PID.TID 0000.0001) > &
(PID.TID 0000.0001) >
(PID.TID 0000.0001) 
(PID.TID 0000.0001)  AIM_READ_PHYSPARMS: finished reading data.aimphys
(PID.TID 0000.0001) 
(PID.TID 0000.0001) // ===================================
(PID.TID 0000.0001) // AIM physics parameters :
(PID.TID 0000.0001) // ===================================
(PID.TID 0000.0001) useLand =   /* use Land package for surf.BC over land  */
(PID.TID 0000.0001)                   T
(PID.TID 0000.0001)     ;
(PID.TID 0000.0001) aim_useFMsurfBC =   /* F.Molteni surf. BC scheme on/off flag */
(PID.TID 0000.0001)                   T
(PID.TID 0000.0001)     ;
(PID.TID 0000.0001) aim_useMMsurfFc =   /* Monthly Mean surf. Forcing on/off flag */
(PID.TID 0000.0001)                   F
(PID.TID 0000.0001)     ;
(PID.TID 0000.0001) aim_surfForc_TimePeriod = /* Length of forcing time period (s) */
(PID.TID 0000.0001)                 2.592000000000000E+06
(PID.TID 0000.0001)     ;
(PID.TID 0000.0001) aim_surfForc_NppCycle   = /* Number of time period per Cycle */
(PID.TID 0000.0001)                      12
(PID.TID 0000.0001)     ;
(PID.TID 0000.0001) aim_surfForc_TransRatio = /* transition ratio from one month to the next */
(PID.TID 0000.0001)                 1.000000000000000E+00
(PID.TID 0000.0001)     ;
(PID.TID 0000.0001) aim_surfPotTemp =   /* Surf Temp file in Pot.Temp on/off flag */
(PID.TID 0000.0001)                   F
(PID.TID 0000.0001)     ;
(PID.TID 0000.0001) aim_energPrecip = /* account for energy of precip. on/off flag */
(PID.TID 0000.0001)                   T
(PID.TID 0000.0001)     ;
(PID.TID 0000.0001) aim_splitSIOsFx = /* separate Sea-Ice & Ocean Flux on/off flag */
(PID.TID 0000.0001)                   T
(PID.TID 0000.0001)     ;
(PID.TID 0000.0001) aim_dragStrato= /* stratospheric-drag damping time scale (s) */
(PID.TID 0000.0001)                 2.592000000000000E+06
(PID.TID 0000.0001)     ;
(PID.TID 0000.0001) aim_clrSkyDiag = /* do clear-sky radiation diagnostics */
(PID.TID 0000.0001)                   F
(PID.TID 0000.0001)     ;
(PID.TID 0000.0001) aim_taveFreq =   /* Frequency^-1 for time-Aver. output (s) */
(PID.TID 0000.0001)                 2.592000000000000E+06
(PID.TID 0000.0001)     ;
(PID.TID 0000.0001) aim_diagFreq =   /* Frequency^-1 for diagnostic output (s) */
(PID.TID 0000.0001)                 2.592000000000000E+06
(PID.TID 0000.0001)     ;
(PID.TID 0000.0001) aim_tendFreq =   /* Frequency^-1 for tendencies output (s) */
(PID.TID 0000.0001)                 0.000000000000000E+00
(PID.TID 0000.0001)     ;
(PID.TID 0000.0001) aim_selectOceAlbedo =   /* Ocean albedo(latitude) flag */
(PID.TID 0000.0001)                       0
(PID.TID 0000.0001)     ;
(PID.TID 0000.0001) AIM_FOR:   SOLC =   /* Solar constant (area averaged) in W/m2 */
(PID.TID 0000.0001)                 3.420000000000000E+02
(PID.TID 0000.0001)     ;
(PID.TID 0000.0001) AIM_FOR: ALBSEA =   /* Albedo over sea [0-1]      */
(PID.TID 0000.0001)                 7.000000000000001E-02
(PID.TID 0000.0001)     ;
(PID.TID 0000.0001) AIM_FOR: ALBICE =   /* Albedo over sea ice (for ice fraction =1) */
(PID.TID 0000.0001)                 6.000000000000000E-01
(PID.TID 0000.0001)     ;
(PID.TID 0000.0001) AIM_FOR:  ALBSN =   /* Albedo over snow (for snow depth > SDALB) */
(PID.TID 0000.0001)                 6.000000000000000E-01
(PID.TID 0000.0001)     ;
(PID.TID 0000.0001) AIM_FOR:  SDALB =   /* Snow depth (mm H2O) corresp. maximum albedo */
(PID.TID 0000.0001)                 6.000000000000000E+01
(PID.TID 0000.0001)     ;
(PID.TID 0000.0001) AIM_FOR:  SWCAP =   /* Soil wetness at field capacity (Vol.fract.) */
(PID.TID 0000.0001)                 3.000000000000000E-01
(PID.TID 0000.0001)     ;
(PID.TID 0000.0001) AIM_FOR:  SWWIL =   /* Soil wetness at wilting point  (Vol.fract.) */
(PID.TID 0000.0001)                 1.700000000000000E-01
(PID.TID 0000.0001)     ;
(PID.TID 0000.0001) AIM_FOR: hSnowWetness=   /* snow depth corresp. maximum wetness (m) */
(PID.TID 0000.0001)                 1.000000000000000E-02
(PID.TID 0000.0001)     ;
(PID.TID 0000.0001) AIM_SFL: FWIND0 =   /* ratio of near-sfc wind to lowest-level wind */
(PID.TID 0000.0001)                 6.000000000000000E-01
(PID.TID 0000.0001)     ;
(PID.TID 0000.0001) AIM_SFL: FTEMP0 =  /* weight for near-sfc temp. extrapolation (0-1)*/
(PID.TID 0000.0001)                 1.000000000000000E+00
(PID.TID 0000.0001)     ;
(PID.TID 0000.0001) AIM_SFL:  FHUM0 =  /* weight for near-sfc spec.humid. extrap. (0-1)*/
(PID.TID 0000.0001)                 1.000000000000000E+00
(PID.TID 0000.0001)     ;
(PID.TID 0000.0001) AIM_SFL:    CDL =   /* drag coefficient for momentum over land */
(PID.TID 0000.0001)                 1.800000000000000E-03
(PID.TID 0000.0001)     ;
(PID.TID 0000.0001) AIM_SFL:    CDS =   /* drag coefficient for momentum over sea  */
(PID.TID 0000.0001)                 8.000000000000000E-04
(PID.TID 0000.0001)     ;
(PID.TID 0000.0001) AIM_SFL:    CHL =   /* heat exchange coefficient over land */
(PID.TID 0000.0001)                 1.200000000000000E-03
(PID.TID 0000.0001)     ;
(PID.TID 0000.0001) AIM_SFL:    CHS =   /* heat exchange coefficient over sea  */
(PID.TID 0000.0001)                 8.000000000000000E-04
(PID.TID 0000.0001)     ;
(PID.TID 0000.0001) AIM_SFL:  VGUST =   /* wind speed [m/s] for sub-grid-scale gusts */
(PID.TID 0000.0001)                 5.000000000000000E+00
(PID.TID 0000.0001)     ;
(PID.TID 0000.0001) AIM_SFL:  CTDAY =   /* daily-cycle correction (dTskin/dSSRad) */
(PID.TID 0000.0001)                 1.000000000000000E-02
(PID.TID 0000.0001)     ;
(PID.TID 0000.0001) AIM_SFL: DTHETA =   /* Pot.Temp. gradient for stability correction */
(PID.TID 0000.0001)                 3.000000000000000E+00
(PID.TID 0000.0001)     ;
(PID.TID 0000.0001) AIM_SFL: dTstab =   /* Pot.Temp. increment for stab.funct. derivative */
(PID.TID 0000.0001)                 1.000000000000000E+00
(PID.TID 0000.0001)     ;
(PID.TID 0000.0001) AIM_SFL:  FSTAB =   /* Amplitude of stability correction (fract.) */
(PID.TID 0000.0001)                 6.700000000000000E-01
(PID.TID 0000.0001)     ;
(PID.TID 0000.0001) AIM_SFL:  HDRAG =   /* Height scale for orographic correction */
(PID.TID 0000.0001)                 2.000000000000000E+03
(PID.TID 0000.0001)     ;
(PID.TID 0000.0001) AIM_SFL: FHDRAG =   /* Amplitude of orographic correction (fract.)*/
(PID.TID 0000.0001)                 8.000000000000000E-01
(PID.TID 0000.0001)     ;
(PID.TID 0000.0001) AIM_CNV:  PSMIN =   /* min norm.sfc.P. for occurrence of convect. */
(PID.TID 0000.0001)                 7.000000000000000E-01
(PID.TID 0000.0001)     ;
(PID.TID 0000.0001) AIM_CNV:  TRCNV =   /* time of relaxation [h] towards ref state */
(PID.TID 0000.0001)                 6.000000000000000E+00
(PID.TID 0000.0001)     ;
(PID.TID 0000.0001) AIM_CNV:    QBL =   /* specific hum. threshold in the Bound.layer */
(PID.TID 0000.0001)                 1.500000000000000E+01
(PID.TID 0000.0001)     ;
(PID.TID 0000.0001) AIM_CNV:   RHBL =   /* relative hum. threshold in the Bound.layer */
(PID.TID 0000.0001)                 8.000000000000000E-01
(PID.TID 0000.0001)     ;
(PID.TID 0000.0001) AIM_CNV:   RHIL =   /* rel.hum. threshold (intern) for 2nd mass.Flx*/
(PID.TID 0000.0001)                 7.000000000000000E-01
(PID.TID 0000.0001)     ;
(PID.TID 0000.0001) AIM_CNV: ENTMAX =   /* time of relaxation [h] towards neutral eq. */
(PID.TID 0000.0001)                 5.000000000000000E-01
(PID.TID 0000.0001)     ;
(PID.TID 0000.0001) AIM_CNV:    SMF =   /* ratio 2ndary/primary mass.Flx at cloud-base*/
(PID.TID 0000.0001)                 5.000000000000000E-01
(PID.TID 0000.0001)     ;
(PID.TID 0000.0001) AIM_LSC:  TRLSC =   /* relaxation time [h] for supersat. spec.hum. */
(PID.TID 0000.0001)                 4.000000000000000E+00
(PID.TID 0000.0001)     ;
(PID.TID 0000.0001) AIM_LSC:  RHLSC =   /* Max rel.humidity threshold (at sigma=1) */
(PID.TID 0000.0001)                 9.000000000000000E-01
(PID.TID 0000.0001)     ;
(PID.TID 0000.0001) AIM_LSC: DRHLSC =   /* Vertical range of rel.humidity threshold */
(PID.TID 0000.0001)                 1.000000000000000E-01
(PID.TID 0000.0001)     ;
(PID.TID 0000.0001) AIM_LSC:  QSMAX =   /* Define the maximum latent heat release */
(PID.TID 0000.0001)                 5.000000000000000E+01
(PID.TID 0000.0001)     ;
(PID.TID 0000.0001) AIM_RAD:  RHCL1 =   /*  rel.hum. corresponding to cloud cover = 0 */
(PID.TID 0000.0001)                 4.500000000000000E-01
(PID.TID 0000.0001)     ;
(PID.TID 0000.0001) AIM_RAD:  RHCL2 =   /*  rel.hum. corresponding to cloud cover = 1 */
(PID.TID 0000.0001)                 8.500000000000000E-01
(PID.TID 0000.0001)     ;
(PID.TID 0000.0001) AIM_RAD:  QACL1 =   /* spec.hum. threshold for cloud, upper trop. */
(PID.TID 0000.0001)                 1.000000000000000E-01
(PID.TID 0000.0001)     ;
(PID.TID 0000.0001) AIM_RAD:  QACL2 =   /* spec.hum. threshold for cloud, upper trop. */
(PID.TID 0000.0001)                 1.000000000000000E+00
(PID.TID 0000.0001)     ;
(PID.TID 0000.0001) AIM_RAD:  ALBCL =   /*  cloud albedo (for cloud cover = 1) */
(PID.TID 0000.0001)                 4.000000000000000E-01
(PID.TID 0000.0001)     ;
(PID.TID 0000.0001) AIM_RAD:  EPSSW =   /*  fract. of inc.solar rad. absorbed by ozone */
(PID.TID 0000.0001)                 1.500000000000000E-02
(PID.TID 0000.0001)     ;
(PID.TID 0000.0001) AIM_RAD:  EPSLW =   /*  fract. of sfc LW emitted directly to space */
(PID.TID 0000.0001)                 0.000000000000000E+00
(PID.TID 0000.0001)     ;
(PID.TID 0000.0001) AIM_RAD: EMISFC =   /*  longwave surface emissivity */
(PID.TID 0000.0001)                 9.800000000000000E-01
(PID.TID 0000.0001)     ;
(PID.TID 0000.0001)  AIM_RAD : ShortWave absorptivities (for dp = 10^5 Pa) :
(PID.TID 0000.0001) AIM_RAD: ABSDRY =   /* abs. of dry air (visible band) */
(PID.TID 0000.0001)                 3.300000000000000E-02
(PID.TID 0000.0001)     ;
(PID.TID 0000.0001) AIM_RAD: ABSAER =   /* abs. of aerosols (visible band) */
(PID.TID 0000.0001)                 3.300000000000000E-02
(PID.TID 0000.0001)     ;
(PID.TID 0000.0001) AIM_RAD: ABSWV1 =   /* abs. of water vap. (vis. band)(/dq, 1g/kg) */
(PID.TID 0000.0001)                 2.200000000000000E-02
(PID.TID 0000.0001)     ;
(PID.TID 0000.0001) AIM_RAD: ABSWV2 =   /* abs. of water vap.(near IR bd)(/dq, 1g/kg) */
(PID.TID 0000.0001)                 1.500000000000000E+01
(PID.TID 0000.0001)     ;
(PID.TID 0000.0001) AIM_RAD: ABSCL1 =   /* abs. of clouds (vis.band)(constant term) */
(PID.TID 0000.0001)                 0.000000000000000E+00
(PID.TID 0000.0001)     ;
(PID.TID 0000.0001) AIM_RAD: ABSCL2 =   /* abs. of clouds (vis.band) (/dw, 1g/kg) */
(PID.TID 0000.0001)                 1.000000000000000E-02
(PID.TID 0000.0001)     ;
(PID.TID 0000.0001) AIM_RAD: ABLWIN =   /* abs. of air in "window" band */
(PID.TID 0000.0001)                 7.000000000000000E-01
(PID.TID 0000.0001)     ;
(PID.TID 0000.0001) AIM_RAD: ABLCO2 =   /* abs. of air in CO2 band */
(PID.TID 0000.0001)                 4.000000000000000E+00
(PID.TID 0000.0001)     ;
(PID.TID 0000.0001) AIM_RAD: ABLWV1 =   /* abs. of Water vap. H2O bd-1(weak)(/dq,1g/kg)*/
(PID.TID 0000.0001)                 7.000000000000000E-01
(PID.TID 0000.0001)     ;
(PID.TID 0000.0001) AIM_RAD: ABLWV2 =   /* abs. of W. vap., H2O bd-2(strong)(/dq,1g/kg)*/
(PID.TID 0000.0001)                 5.000000000000000E+01
(PID.TID 0000.0001)     ;
(PID.TID 0000.0001) AIM_RAD: ABLCL1 =   /* abs. of clouds in window band (const term) */
(PID.TID 0000.0001)                 1.200000000000000E+01
(PID.TID 0000.0001)     ;
(PID.TID 0000.0001) AIM_RAD: ABLCL2 =   /* abs. of clouds in window band (/dw, 1g/kg) */
(PID.TID 0000.0001)                 0.000000000000000E+00
(PID.TID 0000.0001)     ;
(PID.TID 0000.0001) AIM_VDI:  TRSHC =   /* relaxation time [h] for shallow convection */
(PID.TID 0000.0001)                 2.400000000000000E+01
(PID.TID 0000.0001)     ;
(PID.TID 0000.0001) AIM_VDI:  TRVDI =   /* relaxation time [h] for moisture diffusion */
(PID.TID 0000.0001)                 4.000000000000000E+01
(PID.TID 0000.0001)     ;
(PID.TID 0000.0001) AIM_VDI:  TRVDS =   /* relaxation time [h] for super-adiab. cond. */
(PID.TID 0000.0001)                 5.000000000000000E+00
(PID.TID 0000.0001)     ;
(PID.TID 0000.0001) AIM_VDI: RHGRAD =   /* max gradient of rel.humidity (d_RH/d_sigma)*/
(PID.TID 0000.0001)                 5.000000000000000E-01
(PID.TID 0000.0001)     ;
(PID.TID 0000.0001) AIM_VDI: RHGRAD =   /* max grad. of dry static Energy(d_DSE/d_phi)*/
(PID.TID 0000.0001)                 5.000000000000000E-01
(PID.TID 0000.0001)     ;
(PID.TID 0000.0001)  MDS_READ_FIELD: opening global file: landFrc.cpl_FM.bin
(PID.TID 0000.0001)  LAND_READPARMS: opening data.land
(PID.TID 0000.0001)  OPEN_COPY_DATA_FILE: opening file data.land
(PID.TID 0000.0001) // =======================================================
(PID.TID 0000.0001) // Parameter file "data.land"
(PID.TID 0000.0001) // =======================================================
(PID.TID 0000.0001) ># Land package parameters:
(PID.TID 0000.0001) >
(PID.TID 0000.0001) >#--  Land model parameter (namelist LAND_MODEL_PAR):
(PID.TID 0000.0001) >#     land_calc_grT  :: step forward ground Temperature
(PID.TID 0000.0001) >#     land_calc_grW  :: step forward soil moiture
(PID.TID 0000.0001) >#     land_impl_grT  :: solve ground Temperature implicitly
(PID.TID 0000.0001) >#     land_calc_snow :: step forward snow thickness
(PID.TID 0000.0001) >#     land_calc_alb  :: compute albedo of snow over land
(PID.TID 0000.0001) >#     land_oldPickup :: restart from an old pickup (=before checkpoint 52l)
(PID.TID 0000.0001) >#     land_grT_iniFile  :: File containing initial ground Temp.
(PID.TID 0000.0001) >#     land_grW_iniFile  :: File containing initial ground Water.
(PID.TID 0000.0001) >#     land_snow_iniFile :: File containing initial snow thickness.
(PID.TID 0000.0001) >#     land_deltaT   :: land model time-step
(PID.TID 0000.0001) >#     land_taveFreq :: Frequency^-1 for time-Aver. output (s)
(PID.TID 0000.0001) >#     land_diagFreq :: Frequency^-1 for diagnostic output (s)
(PID.TID 0000.0001) >#     land_monFreq  :: Frequency^-1 for monitor    output (s)
(PID.TID 0000.0001) >#     land_dzF      :: layer thickness
(PID.TID 0000.0001) > &LAND_MODEL_PAR
(PID.TID 0000.0001) ># land_calc_grT =.FALSE.,
(PID.TID 0000.0001) ># land_calc_grW =.FALSE.,
(PID.TID 0000.0001) ># land_impl_grT =.FALSE.,
(PID.TID 0000.0001) ># land_calc_snow=.FALSE.,
(PID.TID 0000.0001) ># land_calc_alb =.FALSE.,
(PID.TID 0000.0001) >  land_grT_iniFile='land_grT_ini.cpl.bin',
(PID.TID 0000.0001) >  land_grW_iniFile='land_grW_ini.mn.bin',
(PID.TID 0000.0001) >  land_snow_iniFile='land_snw_ini.cpl.bin',
(PID.TID 0000.0001) ># land_oldPickup=.TRUE.,
(PID.TID 0000.0001) >  land_dzF= 0.1, 4.0,
(PID.TID 0000.0001) ># land_diagFreq=2592000.,
(PID.TID 0000.0001) > &
(PID.TID 0000.0001) >
(PID.TID 0000.0001) >#--  Physical constants (namelist LAND_PHYS_PAR):
(PID.TID 0000.0001) >#     land_grdLambda  :: Thermal conductivity of the ground (W/m/K)
(PID.TID 0000.0001) >#     land_heatCs     :: Heat capacity of dry soil (J/m3/K)
(PID.TID 0000.0001) >#     land_CpWater    :: Heat capacity of water    (J/kg/K)
(PID.TID 0000.0001) >#     land_wTauDiff   :: soil moisture diffusion time scale
(PID.TID 0000.0001) >#     land_waterCap   :: field capacity per meter of soil
(PID.TID 0000.0001) >#     land_fractRunOff:: fraction of water in excess which run-off
(PID.TID 0000.0001) >#     land_rhoLiqW    :: density of liquid water (kg/m3)
(PID.TID 0000.0001) >#     land_rhoSnow    :: density of snow (kg/m3)
(PID.TID 0000.0001) >#     land_Lfreez     :: Latent heat of freezing (J/kg)
(PID.TID 0000.0001) >#     land_hMaxSnow   :: Maximum snow-thickness  (m)
(PID.TID 0000.0001) >#     diffKsnow       :: thermal conductivity of snow (W/m/K)
(PID.TID 0000.0001) >#     timeSnowAge     :: snow aging time scale   (s)
(PID.TID 0000.0001) >#     hNewSnowAge     :: new snow thickness that refresh the snow-age (by 1/e)
(PID.TID 0000.0001) >#     albColdSnow     :: albedo of cold (=dry) new snow (Tsfc < -10)
(PID.TID 0000.0001) >#     albWarmSnow     :: albedo of warm (=wet) new snow (Tsfc = 0)
(PID.TID 0000.0001) >#     albOldSnow      :: albedo of old snow (snowAge > 35.d)
(PID.TID 0000.0001) >#     hAlbSnow        :: snow thickness for albedo transition: snow/ground
(PID.TID 0000.0001) > &LAND_PHYS_PAR
(PID.TID 0000.0001) ># land_Lfreez=0.,
(PID.TID 0000.0001) >  land_hMaxSnow=10.,
(PID.TID 0000.0001) > &
(PID.TID 0000.0001) 
(PID.TID 0000.0001)  LAND_READPARMS: finished reading data.land
(PID.TID 0000.0001) 
(PID.TID 0000.0001) // ===================================
(PID.TID 0000.0001) // Land package parameters :
(PID.TID 0000.0001) // ===================================
(PID.TID 0000.0001) land_calc_grT = /* step forward ground Temp. on/off flag */
(PID.TID 0000.0001)                   T
(PID.TID 0000.0001)     ;
(PID.TID 0000.0001) land_calc_grW = /* step forward soil moiture on/off flag */
(PID.TID 0000.0001)                   T
(PID.TID 0000.0001)     ;
(PID.TID 0000.0001) land_impl_grT = /* solve ground temperature implicitly */
(PID.TID 0000.0001)                   T
(PID.TID 0000.0001)     ;
(PID.TID 0000.0001) land_calc_snow = /* step forward snow thickness */
(PID.TID 0000.0001)                   T
(PID.TID 0000.0001)     ;
(PID.TID 0000.0001) land_calc_alb = /* compute land+snow albedo */
(PID.TID 0000.0001)                   T
(PID.TID 0000.0001)     ;
(PID.TID 0000.0001) land_grT_iniFile = /* Initial ground-Temp Input-File */
(PID.TID 0000.0001)                 land_grT_ini.cpl.bin
(PID.TID 0000.0001)     ;
(PID.TID 0000.0001) land_grW_iniFile = /* Initial soil-Water Input-File */
(PID.TID 0000.0001)                 land_grW_ini.mn.bin
(PID.TID 0000.0001)     ;
(PID.TID 0000.0001) land_snow_iniFile= /* Initial snow thickness Input-File */
(PID.TID 0000.0001)                 land_grW_ini.mn.bin
(PID.TID 0000.0001)     ;
(PID.TID 0000.0001) land_deltaT = /* land model Time-Step (s) */
(PID.TID 0000.0001)                 4.500000000000000E+02
(PID.TID 0000.0001)     ;
(PID.TID 0000.0001) land_taveFreq = /* Frequency^-1 for time-Aver. output (s) */
(PID.TID 0000.0001)                 2.592000000000000E+06
(PID.TID 0000.0001)     ;
(PID.TID 0000.0001) land_diagFreq = /* Frequency^-1 for diagnostic output (s) */
(PID.TID 0000.0001)                 2.592000000000000E+06
(PID.TID 0000.0001)     ;
(PID.TID 0000.0001) land_monFreq = /* Frequency^-1 for monitor output (s) */
(PID.TID 0000.0001)                 2.592000000000000E+06
(PID.TID 0000.0001)     ;
(PID.TID 0000.0001) land_dzF = /* layer thickness ( m ) */
(PID.TID 0000.0001)                 1.000000000000000E-01,      /* K =  1 */
(PID.TID 0000.0001)                 4.000000000000000E+00       /* K =  2 */
(PID.TID 0000.0001)     ;
(PID.TID 0000.0001) land_rec_dzC= /* recip. vertical spacing (m-1) */
(PID.TID 0000.0001)                 2.000000000000000E+01,      /* K =  1 */
(PID.TID 0000.0001)                 4.878048780487805E-01       /* K =  2 */
(PID.TID 0000.0001)     ;
(PID.TID 0000.0001) land_timeave_mdsio = /* use MDSIO for Tave output */
(PID.TID 0000.0001)                   T
(PID.TID 0000.0001)     ;
(PID.TID 0000.0001) land_timeave_mnc = /* use MNC for Tave output */
(PID.TID 0000.0001)                   F
(PID.TID 0000.0001)     ;
(PID.TID 0000.0001) land_snapshot_mdsio = /* use MDSIO for snapshot output */
(PID.TID 0000.0001)                   T
(PID.TID 0000.0001)     ;
(PID.TID 0000.0001) land_snapshot_mnc = /* use MNC for snapshot output */
(PID.TID 0000.0001)                   F
(PID.TID 0000.0001)     ;
(PID.TID 0000.0001) land_mon_stdio = /* use STDOUT for monitor output */
(PID.TID 0000.0001)                   T
(PID.TID 0000.0001)     ;
(PID.TID 0000.0001) land_mon_mnc = /* use MNC for monitor output */
(PID.TID 0000.0001)                   F
(PID.TID 0000.0001)     ;
(PID.TID 0000.0001) land_pickup_write_mnc = /* use MNC for writing pickups */
(PID.TID 0000.0001)                   F
(PID.TID 0000.0001)     ;
(PID.TID 0000.0001) land_pickup_read_mnc = /* use MNC for reading pickups */
(PID.TID 0000.0001)                   F
(PID.TID 0000.0001)     ;
(PID.TID 0000.0001) land_grdLambda = /* Thermal conductivity of the ground (W/m/K)*/
(PID.TID 0000.0001)                 4.200000000000000E-01
(PID.TID 0000.0001)     ;
(PID.TID 0000.0001) land_heatCs = /* Heat capacity of dry soil (J/m3/K) */
(PID.TID 0000.0001)                 1.130000000000000E+06
(PID.TID 0000.0001)     ;
(PID.TID 0000.0001) land_CpWater = /* Heat capacity of water    (J/kg/K) */
(PID.TID 0000.0001)                 4.200000000000000E+03
(PID.TID 0000.0001)     ;
(PID.TID 0000.0001) land_wTauDiff = /* soil moisture diffusion time scale (s) */
(PID.TID 0000.0001)                 1.728000000000000E+05
(PID.TID 0000.0001)     ;
(PID.TID 0000.0001) land_waterCap = /* field capacity per meter of soil (1) */
(PID.TID 0000.0001)                 2.400000000000000E-01
(PID.TID 0000.0001)     ;
(PID.TID 0000.0001) land_fractRunOff= /* fraction of water in excess which run-off */
(PID.TID 0000.0001)                 5.000000000000000E-01
(PID.TID 0000.0001)     ;
(PID.TID 0000.0001) land_rhoLiqW = /* density of liquid water (kg/m3) */
(PID.TID 0000.0001)                 1.000000000000000E+03
(PID.TID 0000.0001)     ;
(PID.TID 0000.0001) land_rhoSnow = /* density of snow (kg/m3) */
(PID.TID 0000.0001)                 3.300000000000000E+02
(PID.TID 0000.0001)     ;
(PID.TID 0000.0001) land_Lfreez = /* Latent heat of freezing (J/kg) */
(PID.TID 0000.0001)                 3.340000000000000E+05
(PID.TID 0000.0001)     ;
(PID.TID 0000.0001) land_hMaxSnow = /* maximum snow-thickness (m) */
(PID.TID 0000.0001)                 1.000000000000000E+01
(PID.TID 0000.0001)     ;
(PID.TID 0000.0001) diffKsnow = /* thermal conductivity of snow (W/m/K) */
(PID.TID 0000.0001)                 3.000000000000000E-01
(PID.TID 0000.0001)     ;
(PID.TID 0000.0001) timeSnowAge = /* snow aging time scale   (s) */
(PID.TID 0000.0001)                 4.320000000000000E+06
(PID.TID 0000.0001)     ;
(PID.TID 0000.0001) hNewSnowAge = /* new snow thickness to refresh snow-age by 1/e */
(PID.TID 0000.0001)                 2.000000000000000E-03
(PID.TID 0000.0001)     ;
(PID.TID 0000.0001) albColdSnow = /* albedo of cold (=dry) new snow */
(PID.TID 0000.0001)                 8.500000000000000E-01
(PID.TID 0000.0001)     ;
(PID.TID 0000.0001) albWarmSnow = /* albedo of warm (=wet) new snow */
(PID.TID 0000.0001)                 7.000000000000000E-01
(PID.TID 0000.0001)     ;
(PID.TID 0000.0001) tempSnowAlbL = /* Temp. transition from ColdSnow to WarmSnow Alb. (oC) */
(PID.TID 0000.0001)                -1.000000000000000E+01
(PID.TID 0000.0001)     ;
(PID.TID 0000.0001) albOldSnow = /* albedo of old snow (snowAge >35.d)*/
(PID.TID 0000.0001)                 5.500000000000000E-01
(PID.TID 0000.0001)     ;
(PID.TID 0000.0001) hAlbSnow = /* snow depth for albedo transition */
(PID.TID 0000.0001)                 3.000000000000000E-01
(PID.TID 0000.0001)     ;
(PID.TID 0000.0001) GAD_CHECK: #define ALLOW_GENERIC_ADVDIFF
(PID.TID 0000.0001) THSICE_CHECK: #define THSICE
(PID.TID 0000.0001) %MON fCori_max                    =   1.4574827780704E-04
(PID.TID 0000.0001) %MON fCori_min                    =  -1.4574827780704E-04
(PID.TID 0000.0001) %MON fCori_mean                   =   0.0000000000000E+00
(PID.TID 0000.0001) %MON fCori_sd                     =   8.4202189509968E-05
(PID.TID 0000.0001) %MON fCoriG_max                   =   1.4584247033981E-04
(PID.TID 0000.0001) %MON fCoriG_min                   =  -1.4584247033981E-04
(PID.TID 0000.0001) %MON fCoriG_mean                  =   2.3068131329479E-21
(PID.TID 0000.0001) %MON fCoriG_sd                    =   8.5093242784592E-05
(PID.TID 0000.0001) %MON fCoriCos_max                 =   1.4580166994612E-04
(PID.TID 0000.0001) %MON fCoriCos_min                 =   5.2407700865903E-06
(PID.TID 0000.0001) %MON fCoriCos_mean                =   1.1514045869113E-04
(PID.TID 0000.0001) %MON fCoriCos_sd                  =   3.0375849106513E-05
(PID.TID 0000.0001) INI_CG2D: CG2D normalisation factor =  9.9119603843467461E-06
(PID.TID 0000.0001) INI_CG2D: cg2dTolerance = 1.123144856357769E-10 (Area=5.0990436378E+14)
(PID.TID 0000.0001) 
(PID.TID 0000.0001) CONFIG_CHECK: OK
(PID.TID 0000.0001) // =======================================================
(PID.TID 0000.0001) // Model configuration
(PID.TID 0000.0001) // =======================================================
(PID.TID 0000.0001) //
(PID.TID 0000.0001) // "Physical" paramters ( PARM01 in namelist )
(PID.TID 0000.0001) //
(PID.TID 0000.0001) buoyancyRelation = ATMOSPHERIC
(PID.TID 0000.0001) fluidIsAir  =  /* fluid major constituent is Air */
(PID.TID 0000.0001)                   T
(PID.TID 0000.0001)     ;
(PID.TID 0000.0001) fluidIsWater=  /* fluid major constituent is Water */
(PID.TID 0000.0001)                   F
(PID.TID 0000.0001)     ;
(PID.TID 0000.0001) usingPCoords =  /* use p (or p*) vertical coordinate */
(PID.TID 0000.0001)                   T
(PID.TID 0000.0001)     ;
(PID.TID 0000.0001) usingZCoords =  /* use z (or z*) vertical coordinate */
(PID.TID 0000.0001)                   F
(PID.TID 0000.0001)     ;
(PID.TID 0000.0001) tRef =   /* Reference temperature profile ( oC or K ) */
(PID.TID 0000.0001)                 2.896000000000000E+02,      /* K =  1 */
(PID.TID 0000.0001)                 2.981000000000000E+02,      /* K =  2 */
(PID.TID 0000.0001)                 3.145000000000000E+02,      /* K =  3 */
(PID.TID 0000.0001)                 3.358000000000000E+02,      /* K =  4 */
(PID.TID 0000.0001)                 4.374000000000000E+02       /* K =  5 */
(PID.TID 0000.0001)     ;
(PID.TID 0000.0001) sRef =   /* Reference salinity profile ( psu ) */
(PID.TID 0000.0001)     5 @  0.000000000000000E+00              /* K =  1:  5 */
(PID.TID 0000.0001)     ;
(PID.TID 0000.0001) viscAh =   /* Lateral eddy viscosity ( m^2/s ) */
(PID.TID 0000.0001)                 0.000000000000000E+00
(PID.TID 0000.0001)     ;
(PID.TID 0000.0001) viscAhMax =   /* Maximum lateral eddy viscosity ( m^2/s ) */
(PID.TID 0000.0001)                 1.000000000000000E+21
(PID.TID 0000.0001)     ;
(PID.TID 0000.0001) viscAhGrid =   /* Grid dependent lateral eddy viscosity ( non-dim. ) */
(PID.TID 0000.0001)                 0.000000000000000E+00
(PID.TID 0000.0001)     ;
(PID.TID 0000.0001) useFullLeith =   /* Use Full Form of Leith Viscosity on/off flag*/
(PID.TID 0000.0001)                   F
(PID.TID 0000.0001)     ;
(PID.TID 0000.0001) useStrainTensionVisc =   /* Use StrainTension Form of Viscous Operator on/off flag*/
(PID.TID 0000.0001)                   F
(PID.TID 0000.0001)     ;
(PID.TID 0000.0001) useAreaViscLength =   /* Use area for visc length instead of geom. mean*/
(PID.TID 0000.0001)                   F
(PID.TID 0000.0001)     ;
(PID.TID 0000.0001) viscC2leith = /* Leith harmonic visc. factor (on grad(vort),non-dim.) */
(PID.TID 0000.0001)                 0.000000000000000E+00
(PID.TID 0000.0001)     ;
(PID.TID 0000.0001) viscC2leithD = /* Leith harmonic viscosity factor (on grad(div),non-dim.) */
(PID.TID 0000.0001)                 0.000000000000000E+00
(PID.TID 0000.0001)     ;
(PID.TID 0000.0001) viscC2smag =   /* Smagorinsky harmonic viscosity factor (non-dim.) */
(PID.TID 0000.0001)                 0.000000000000000E+00
(PID.TID 0000.0001)     ;
(PID.TID 0000.0001) viscA4 =   /* Lateral biharmonic viscosity ( m^4/s ) */
(PID.TID 0000.0001)                 0.000000000000000E+00
(PID.TID 0000.0001)     ;
(PID.TID 0000.0001) viscA4Max =   /* Maximum biharmonic viscosity ( m^2/s ) */
(PID.TID 0000.0001)                 1.000000000000000E+21
(PID.TID 0000.0001)     ;
(PID.TID 0000.0001) viscA4Grid =   /* Grid dependent biharmonic viscosity ( non-dim. ) */
(PID.TID 0000.0001)                 0.000000000000000E+00
(PID.TID 0000.0001)     ;
(PID.TID 0000.0001) viscC4leith = /* Leith biharm viscosity factor (on grad(vort), non-dim.) */
(PID.TID 0000.0001)                 0.000000000000000E+00
(PID.TID 0000.0001)     ;
(PID.TID 0000.0001) viscC4leithD = /* Leith biharm viscosity factor (on grad(div), non-dim.) */
(PID.TID 0000.0001)                 0.000000000000000E+00
(PID.TID 0000.0001)     ;
(PID.TID 0000.0001) viscC4Smag = /* Smagorinsky biharm viscosity factor (non-dim) */
(PID.TID 0000.0001)                 0.000000000000000E+00
(PID.TID 0000.0001)     ;
(PID.TID 0000.0001) no_slip_sides =  /* Viscous BCs: No-slip sides */
(PID.TID 0000.0001)                   F
(PID.TID 0000.0001)     ;
(PID.TID 0000.0001) sideDragFactor = /* side-drag scaling factor (non-dim) */
(PID.TID 0000.0001)                 2.000000000000000E+00
(PID.TID 0000.0001)     ;
(PID.TID 0000.0001) viscAr =   /* Vertical eddy viscosity ( units of r^2/s ) */
(PID.TID 0000.0001)                 0.000000000000000E+00
(PID.TID 0000.0001)     ;
(PID.TID 0000.0001) no_slip_bottom =  /* Viscous BCs: No-slip bottom */
(PID.TID 0000.0001)                   F
(PID.TID 0000.0001)     ;
(PID.TID 0000.0001) bottomDragLinear = /* linear bottom-drag coefficient ( 1/s ) */
(PID.TID 0000.0001)                 0.000000000000000E+00
(PID.TID 0000.0001)     ;
(PID.TID 0000.0001) bottomDragQuadratic = /* quadratic bottom-drag coeff. ( 1/m ) */
(PID.TID 0000.0001)                 0.000000000000000E+00
(PID.TID 0000.0001)     ;
(PID.TID 0000.0001) diffKhT =   /* Laplacian diffusion of heat laterally ( m^2/s ) */
(PID.TID 0000.0001)                 0.000000000000000E+00
(PID.TID 0000.0001)     ;
(PID.TID 0000.0001) diffK4T =   /* Bihaarmonic diffusion of heat laterally ( m^4/s ) */
(PID.TID 0000.0001)                 0.000000000000000E+00
(PID.TID 0000.0001)     ;
(PID.TID 0000.0001) diffKhS =   /* Laplacian diffusion of salt laterally ( m^2/s ) */
(PID.TID 0000.0001)                 0.000000000000000E+00
(PID.TID 0000.0001)     ;
(PID.TID 0000.0001) diffK4S =   /* Bihaarmonic diffusion of salt laterally ( m^4/s ) */
(PID.TID 0000.0001)                 0.000000000000000E+00
(PID.TID 0000.0001)     ;
(PID.TID 0000.0001) diffKrNrT = /* vertical profile of vertical diffusion of Temp ( m^2/s )*/
(PID.TID 0000.0001)     5 @  0.000000000000000E+00              /* K =  1:  5 */
(PID.TID 0000.0001)     ;
(PID.TID 0000.0001) diffKrNrS = /* vertical profile of vertical diffusion of Salt ( m^2/s )*/
(PID.TID 0000.0001)     5 @  0.000000000000000E+00              /* K =  1:  5 */
(PID.TID 0000.0001)     ;
(PID.TID 0000.0001) diffKrBL79surf =   /* Surface diffusion for Bryan and Lewis 1979 ( m^2/s ) */
(PID.TID 0000.0001)                 0.000000000000000E+00
(PID.TID 0000.0001)     ;
(PID.TID 0000.0001) diffKrBL79deep =   /* Deep diffusion for Bryan and Lewis 1979 ( m^2/s ) */
(PID.TID 0000.0001)                 0.000000000000000E+00
(PID.TID 0000.0001)     ;
(PID.TID 0000.0001) diffKrBL79scl =   /* Depth scale for Bryan and Lewis 1979 ( m ) */
(PID.TID 0000.0001)                 2.000000000000000E+02
(PID.TID 0000.0001)     ;
(PID.TID 0000.0001) diffKrBL79Ho =   /* Turning depth for Bryan and Lewis 1979 ( m ) */
(PID.TID 0000.0001)                -2.000000000000000E+03
(PID.TID 0000.0001)     ;
(PID.TID 0000.0001) Equation of State : eosType = IDEALG ;
(PID.TID 0000.0001) tAlpha =   /* Linear EOS thermal expansion coefficient ( 1/oC ) */
(PID.TID 0000.0001)                 1.234567000000000E+05
(PID.TID 0000.0001)     ;
(PID.TID 0000.0001) sBeta =   /* Linear EOS haline contraction coefficient ( 1/psu ) */
(PID.TID 0000.0001)                 1.234567000000000E+05
(PID.TID 0000.0001)     ;
(PID.TID 0000.0001) atm_Rd =  /* gas constant for dry air ( J/kg/K ) */
(PID.TID 0000.0001)                 2.868571428571428E+02
(PID.TID 0000.0001)     ;
(PID.TID 0000.0001) atm_Cp =  /* specific heat (Cp) of dry air ( J/kg/K ) */
(PID.TID 0000.0001)                 1.004000000000000E+03
(PID.TID 0000.0001)     ;
(PID.TID 0000.0001) atm_kappa =  /* kappa (=Rd/Cp ) of dry air */
(PID.TID 0000.0001)                 2.857142857142857E-01
(PID.TID 0000.0001)     ;
(PID.TID 0000.0001) atm_Rq = /* water vap. specific vol. anomaly relative to dry air */
(PID.TID 0000.0001)                 6.078000000000000E-04
(PID.TID 0000.0001)     ;
(PID.TID 0000.0001) atm_Po =  /* standard reference pressure ( Pa ) */
(PID.TID 0000.0001)                 1.000000000000000E+05
(PID.TID 0000.0001)     ;
(PID.TID 0000.0001) integr_GeoPot =  /* select how the geopotential is integrated */
(PID.TID 0000.0001)                       2
(PID.TID 0000.0001)     ;
(PID.TID 0000.0001) selectFindRoSurf=  /* select how Surf.Ref. pressure is defined */
(PID.TID 0000.0001)                       1
(PID.TID 0000.0001)     ;
(PID.TID 0000.0001) rhonil =   /* Reference density ( kg/m^3 ) */
(PID.TID 0000.0001)                 9.998000000000000E+02
(PID.TID 0000.0001)     ;
(PID.TID 0000.0001) rhoConst =   /* Reference density ( kg/m^3 ) */
(PID.TID 0000.0001)                 1.000000000000000E+00
(PID.TID 0000.0001)     ;
(PID.TID 0000.0001) rhoFacC = /* normalized Reference density @ cell-Center (-) */
(PID.TID 0000.0001)     5 @  1.000000000000000E+00              /* K =  1:  5 */
(PID.TID 0000.0001)     ;
(PID.TID 0000.0001) rhoFacF = /* normalized Reference density @ W-Interface (-) */
(PID.TID 0000.0001)     6 @  1.000000000000000E+00              /* K =  1:  6 */
(PID.TID 0000.0001)     ;
(PID.TID 0000.0001) rhoConstFresh =   /* Reference density ( kg/m^3 ) */
(PID.TID 0000.0001)                 1.000000000000000E+03
(PID.TID 0000.0001)     ;
(PID.TID 0000.0001) gravity =   /* Gravitational acceleration ( m/s^2 ) */
(PID.TID 0000.0001)                 9.810000000000000E+00
(PID.TID 0000.0001)     ;
(PID.TID 0000.0001) gBaro =   /* Barotropic gravity ( m/s^2 ) */
(PID.TID 0000.0001)                 9.810000000000000E+00
(PID.TID 0000.0001)     ;
(PID.TID 0000.0001) rotationPeriod =   /* Rotation Period ( s ) */
(PID.TID 0000.0001)                 8.616400000000000E+04
(PID.TID 0000.0001)     ;
(PID.TID 0000.0001) omega =   /* Angular velocity ( rad/s ) */
(PID.TID 0000.0001)                 7.292123516990375E-05
(PID.TID 0000.0001)     ;
(PID.TID 0000.0001) f0 =   /* Reference coriolis parameter ( 1/s ) */
(PID.TID 0000.0001)                 1.000000000000000E-04
(PID.TID 0000.0001)     ;
(PID.TID 0000.0001) beta =   /* Beta ( 1/(m.s) ) */
(PID.TID 0000.0001)                 9.999999999999999E-12
(PID.TID 0000.0001)     ;
(PID.TID 0000.0001) freeSurfFac =   /* Implicit free surface factor */
(PID.TID 0000.0001)                 1.000000000000000E+00
(PID.TID 0000.0001)     ;
(PID.TID 0000.0001) implicitFreeSurface =   /* Implicit free surface on/off flag */
(PID.TID 0000.0001)                   T
(PID.TID 0000.0001)     ;
(PID.TID 0000.0001) rigidLid =   /* Rigid lid on/off flag */
(PID.TID 0000.0001)                   F
(PID.TID 0000.0001)     ;
(PID.TID 0000.0001) implicSurfPress =   /* Surface Pressure implicit factor (0-1)*/
(PID.TID 0000.0001)                 1.000000000000000E+00
(PID.TID 0000.0001)     ;
(PID.TID 0000.0001) implicDiv2Dflow =   /* Barot. Flow Div. implicit factor (0-1)*/
(PID.TID 0000.0001)                 1.000000000000000E+00
(PID.TID 0000.0001)     ;
(PID.TID 0000.0001) exactConserv =   /* Exact Volume Conservation on/off flag*/
(PID.TID 0000.0001)                   T
(PID.TID 0000.0001)     ;
(PID.TID 0000.0001) linFSConserveTr =   /* Tracer correction for Lin Free Surface on/off flag*/
(PID.TID 0000.0001)                   F
(PID.TID 0000.0001)     ;
(PID.TID 0000.0001) uniformLin_PhiSurf =   /* use uniform Bo_surf on/off flag*/
(PID.TID 0000.0001)                   F
(PID.TID 0000.0001)     ;
(PID.TID 0000.0001) nonlinFreeSurf =   /* Non-linear Free Surf. options (-1,0,1,2,3)*/
(PID.TID 0000.0001)                       4
(PID.TID 0000.0001)     ;
(PID.TID 0000.0001)      -1,0= Off ; 1,2,3= On, 2=+rescale gU,gV, 3=+update cg2d solv.
(PID.TID 0000.0001) hFacInf =   /* lower threshold for hFac (nonlinFreeSurf only)*/
(PID.TID 0000.0001)                 2.000000000000000E-01
(PID.TID 0000.0001)     ;
(PID.TID 0000.0001) hFacSup =   /* upper threshold for hFac (nonlinFreeSurf only)*/
(PID.TID 0000.0001)                 2.000000000000000E+00
(PID.TID 0000.0001)     ;
(PID.TID 0000.0001) select_rStar =   /* r* Coordinate options (not yet implemented)*/
(PID.TID 0000.0001)                       2
(PID.TID 0000.0001)     ;
(PID.TID 0000.0001) useRealFreshWaterFlux =   /* Real Fresh Water Flux on/off flag*/
(PID.TID 0000.0001)                   F
(PID.TID 0000.0001)     ;
(PID.TID 0000.0001) convertFW2Salt = /* convert F.W. Flux to Salt Flux (-1=use local S)(ppt)*/
(PID.TID 0000.0001)                 3.500000000000000E+01
(PID.TID 0000.0001)     ;
(PID.TID 0000.0001) use3Dsolver = /* use 3-D pressure solver on/off flag */
(PID.TID 0000.0001)                   F
(PID.TID 0000.0001)     ;
(PID.TID 0000.0001) nonHydrostatic =  /* Non-Hydrostatic on/off flag */
(PID.TID 0000.0001)                   F
(PID.TID 0000.0001)     ;
(PID.TID 0000.0001) nh_Am2 = /* Non-Hydrostatic terms scaling factor */
(PID.TID 0000.0001)                 1.000000000000000E+00
(PID.TID 0000.0001)     ;
(PID.TID 0000.0001) quasiHydrostatic = /* Quasi-Hydrostatic on/off flag */
(PID.TID 0000.0001)                   F
(PID.TID 0000.0001)     ;
(PID.TID 0000.0001) momStepping =  /* Momentum equation on/off flag */
(PID.TID 0000.0001)                   T
(PID.TID 0000.0001)     ;
(PID.TID 0000.0001) vectorInvariantMomentum= /* Vector-Invariant Momentum on/off */
(PID.TID 0000.0001)                   T
(PID.TID 0000.0001)     ;
(PID.TID 0000.0001) momAdvection =  /* Momentum advection on/off flag */
(PID.TID 0000.0001)                   T
(PID.TID 0000.0001)     ;
(PID.TID 0000.0001) momViscosity =  /* Momentum viscosity on/off flag */
(PID.TID 0000.0001)                   T
(PID.TID 0000.0001)     ;
(PID.TID 0000.0001) momImplVertAdv =/* Momentum implicit vert. advection on/off*/
(PID.TID 0000.0001)                   F
(PID.TID 0000.0001)     ;
(PID.TID 0000.0001) implicitViscosity = /* Implicit viscosity on/off flag */
(PID.TID 0000.0001)                   F
(PID.TID 0000.0001)     ;
(PID.TID 0000.0001) metricTerms =  /* metric-Terms on/off flag */
(PID.TID 0000.0001)                   F
(PID.TID 0000.0001)     ;
(PID.TID 0000.0001) useNHMTerms = /* Non-Hydrostatic Metric-Terms on/off */
(PID.TID 0000.0001)                   F
(PID.TID 0000.0001)     ;
(PID.TID 0000.0001) useConstantF =  /* use Constant f0 Coriolis flag */
(PID.TID 0000.0001)                   F
(PID.TID 0000.0001)     ;
(PID.TID 0000.0001) useBetaPlaneF = /* use Beta-Plane Coriolis flag */
(PID.TID 0000.0001)                   F
(PID.TID 0000.0001)     ;
(PID.TID 0000.0001) useSphereF  =   /* use Spherical Coriolis flag */
(PID.TID 0000.0001)                   T
(PID.TID 0000.0001)     ;
(PID.TID 0000.0001) use3dCoriolis = /* 3-D Coriolis on/off flag */
(PID.TID 0000.0001)                   F
(PID.TID 0000.0001)     ;
(PID.TID 0000.0001) useCoriolis =  /* Coriolis on/off flag */
(PID.TID 0000.0001)                   T
(PID.TID 0000.0001)     ;
(PID.TID 0000.0001) useCDscheme =  /* CD scheme on/off flag */
(PID.TID 0000.0001)                   F
(PID.TID 0000.0001)     ;
(PID.TID 0000.0001) useJamartWetPoints= /* Coriolis WetPoints method flag */
(PID.TID 0000.0001)                   T
(PID.TID 0000.0001)     ;
(PID.TID 0000.0001) useJamartMomAdv= /* V.I. Non-linear terms Jamart flag */
(PID.TID 0000.0001)                   F
(PID.TID 0000.0001)     ;
(PID.TID 0000.0001) SadournyCoriolis= /* Sadourny Coriolis discr. flag */
(PID.TID 0000.0001)                   F
(PID.TID 0000.0001)     ;
(PID.TID 0000.0001) upwindVorticity= /* Upwind bias vorticity flag */
(PID.TID 0000.0001)                   F
(PID.TID 0000.0001)     ;
(PID.TID 0000.0001) useAbsVorticity= /* Work with f+zeta in Coriolis */
(PID.TID 0000.0001)                   F
(PID.TID 0000.0001)     ;
(PID.TID 0000.0001) highOrderVorticity= /* High order interp. of vort. flag */
(PID.TID 0000.0001)                   F
(PID.TID 0000.0001)     ;
(PID.TID 0000.0001) upwindShear= /* Upwind vertical Shear advection flag */
(PID.TID 0000.0001)                   F
(PID.TID 0000.0001)     ;
(PID.TID 0000.0001) selectKEscheme= /* Kinetic Energy scheme selector */
(PID.TID 0000.0001)                       0
(PID.TID 0000.0001)     ;
(PID.TID 0000.0001) momForcing =  /* Momentum forcing on/off flag */
(PID.TID 0000.0001)                   T
(PID.TID 0000.0001)     ;
(PID.TID 0000.0001) momPressureForcing =  /* Momentum pressure term on/off flag */
(PID.TID 0000.0001)                   T
(PID.TID 0000.0001)     ;
(PID.TID 0000.0001) implicitIntGravWave= /* Implicit Internal Gravity Wave flag */
(PID.TID 0000.0001)                   F
(PID.TID 0000.0001)     ;
(PID.TID 0000.0001) staggerTimeStep =   /* Stagger time stepping on/off flag */
(PID.TID 0000.0001)                   T
(PID.TID 0000.0001)     ;
(PID.TID 0000.0001) multiDimAdvection =   /* enable/disable Multi-Dim Advection */
(PID.TID 0000.0001)                   T
(PID.TID 0000.0001)     ;
(PID.TID 0000.0001) useMultiDimAdvec =   /* Multi-Dim Advection is/is-not used */
(PID.TID 0000.0001)                   F
(PID.TID 0000.0001)     ;
(PID.TID 0000.0001) implicitDiffusion =/* Implicit Diffusion on/off flag */
(PID.TID 0000.0001)                   F
(PID.TID 0000.0001)     ;
(PID.TID 0000.0001) tempStepping =  /* Temperature equation on/off flag */
(PID.TID 0000.0001)                   T
(PID.TID 0000.0001)     ;
(PID.TID 0000.0001) tempAdvection=  /* Temperature advection on/off flag */
(PID.TID 0000.0001)                   T
(PID.TID 0000.0001)     ;
(PID.TID 0000.0001) tempImplVertAdv =/* Temp. implicit vert. advection on/off */
(PID.TID 0000.0001)                   F
(PID.TID 0000.0001)     ;
(PID.TID 0000.0001) tempForcing  =  /* Temperature forcing on/off flag */
(PID.TID 0000.0001)                   T
(PID.TID 0000.0001)     ;
(PID.TID 0000.0001) saltStepping =  /* Salinity equation on/off flag */
(PID.TID 0000.0001)                   T
(PID.TID 0000.0001)     ;
(PID.TID 0000.0001) saltAdvection=  /* Salinity advection on/off flag */
(PID.TID 0000.0001)                   T
(PID.TID 0000.0001)     ;
(PID.TID 0000.0001) saltImplVertAdv =/* Sali. implicit vert. advection on/off */
(PID.TID 0000.0001)                   F
(PID.TID 0000.0001)     ;
(PID.TID 0000.0001) saltForcing  =  /* Salinity forcing on/off flag */
(PID.TID 0000.0001)                   T
(PID.TID 0000.0001)     ;
(PID.TID 0000.0001)  readBinaryPrec = /* Precision used for reading binary files */
(PID.TID 0000.0001)                      64
(PID.TID 0000.0001)     ;
(PID.TID 0000.0001) writeBinaryPrec = /* Precision used for writing binary files */
(PID.TID 0000.0001)                      64
(PID.TID 0000.0001)     ;
(PID.TID 0000.0001)  globalFiles = /* write "global" (=not per tile) files */
(PID.TID 0000.0001)                   F
(PID.TID 0000.0001)     ;
(PID.TID 0000.0001)  useSingleCpuIO = /* only master MPI process does I/O */
(PID.TID 0000.0001)                   F
(PID.TID 0000.0001)     ;
(PID.TID 0000.0001)  debugMode  =  /* Debug Mode on/off flag */
(PID.TID 0000.0001)                   F
(PID.TID 0000.0001)     ;
(PID.TID 0000.0001)    debLevA  =  /* 1rst level of debugging */
(PID.TID 0000.0001)                       1
(PID.TID 0000.0001)     ;
(PID.TID 0000.0001)    debLevB  =  /* 2nd  level of debugging */
(PID.TID 0000.0001)                       2
(PID.TID 0000.0001)     ;
(PID.TID 0000.0001)  debugLevel =  /* select debugging level */
(PID.TID 0000.0001)                       1
(PID.TID 0000.0001)     ;
(PID.TID 0000.0001) //
(PID.TID 0000.0001) // Elliptic solver(s) paramters ( PARM02 in namelist )
(PID.TID 0000.0001) //
(PID.TID 0000.0001) cg2dMaxIters =   /* Upper limit on 2d con. grad iterations  */
(PID.TID 0000.0001)                     200
(PID.TID 0000.0001)     ;
(PID.TID 0000.0001) cg2dChkResFreq =   /* 2d con. grad convergence test frequency */
(PID.TID 0000.0001)                       1
(PID.TID 0000.0001)     ;
(PID.TID 0000.0001) cg2dTargetResidual =   /* 2d con. grad target residual  */
(PID.TID 0000.0001)                 1.000000000000000E-07
(PID.TID 0000.0001)     ;
(PID.TID 0000.0001) cg2dTargetResWunit =   /* CG2d target residual [W units] */
(PID.TID 0000.0001)                 1.000000000000000E-17
(PID.TID 0000.0001)     ;
(PID.TID 0000.0001) cg2dPreCondFreq =   /* Freq. for updating cg2d preconditioner */
(PID.TID 0000.0001)                       1
(PID.TID 0000.0001)     ;
(PID.TID 0000.0001) //
(PID.TID 0000.0001) // Time stepping paramters ( PARM03 in namelist )
(PID.TID 0000.0001) //
(PID.TID 0000.0001) nIter0 =   /* Run starting timestep number  */
(PID.TID 0000.0001)                       0
(PID.TID 0000.0001)     ;
(PID.TID 0000.0001) nTimeSteps =   /* Number of timesteps */
(PID.TID 0000.0001)                      40
(PID.TID 0000.0001)     ;
(PID.TID 0000.0001) deltaTmom =   /* Momentum equation timestep ( s ) */
(PID.TID 0000.0001)                 4.500000000000000E+02
(PID.TID 0000.0001)     ;
(PID.TID 0000.0001) deltaTfreesurf =   /* FreeSurface equation timestep ( s ) */
(PID.TID 0000.0001)                 4.500000000000000E+02
(PID.TID 0000.0001)     ;
(PID.TID 0000.0001) dTtracerLev =   /* Tracer equation timestep ( s ) */
(PID.TID 0000.0001)     5 @  4.500000000000000E+02              /* K =  1:  5 */
(PID.TID 0000.0001)     ;
(PID.TID 0000.0001) deltaTClock  =   /* Model clock timestep ( s ) */
(PID.TID 0000.0001)                 4.500000000000000E+02
(PID.TID 0000.0001)     ;
(PID.TID 0000.0001) cAdjFreq =   /* Convective adjustment interval ( s ) */
(PID.TID 0000.0001)                 0.000000000000000E+00
(PID.TID 0000.0001)     ;
(PID.TID 0000.0001) momForcingOutAB = /* =1: take Momentum Forcing out of Adams-Bash. stepping */
(PID.TID 0000.0001)                       0
(PID.TID 0000.0001)     ;
(PID.TID 0000.0001) tracForcingOutAB = /* =1: take T,S,pTr Forcing out of Adams-Bash. stepping */
(PID.TID 0000.0001)                       1
(PID.TID 0000.0001)     ;
(PID.TID 0000.0001) momDissip_In_AB = /* put Dissipation Tendency in Adams-Bash. stepping */
(PID.TID 0000.0001)                   T
(PID.TID 0000.0001)     ;
(PID.TID 0000.0001) doAB_onGtGs = /* apply AB on Tendencies (rather than on T,S)*/
(PID.TID 0000.0001)                   T
(PID.TID 0000.0001)     ;
(PID.TID 0000.0001) abEps =   /* Adams-Bashforth-2 stabilizing weight */
(PID.TID 0000.0001)                 1.000000000000000E-01
(PID.TID 0000.0001)     ;
(PID.TID 0000.0001) baseTime =   /* Model base time ( s ). */
(PID.TID 0000.0001)                 0.000000000000000E+00
(PID.TID 0000.0001)     ;
(PID.TID 0000.0001) startTime =   /* Run start time ( s ). */
(PID.TID 0000.0001)                 0.000000000000000E+00
(PID.TID 0000.0001)     ;
(PID.TID 0000.0001) endTime =   /* Integration ending time ( s ). */
(PID.TID 0000.0001)                 1.800000000000000E+04
(PID.TID 0000.0001)     ;
(PID.TID 0000.0001) pChkPtFreq =   /* Permanent restart/checkpoint file interval ( s ). */
(PID.TID 0000.0001)                 2.592000000000000E+06
(PID.TID 0000.0001)     ;
(PID.TID 0000.0001) chkPtFreq =   /* Rolling restart/checkpoint file interval ( s ). */
(PID.TID 0000.0001)                 0.000000000000000E+00
(PID.TID 0000.0001)     ;
(PID.TID 0000.0001) pickup_write_mdsio =   /* Model IO flag. */
(PID.TID 0000.0001)                   T
(PID.TID 0000.0001)     ;
(PID.TID 0000.0001) pickup_read_mdsio =   /* Model IO flag. */
(PID.TID 0000.0001)                   T
(PID.TID 0000.0001)     ;
(PID.TID 0000.0001) pickup_write_mnc =   /* Model IO flag. */
(PID.TID 0000.0001)                   F
(PID.TID 0000.0001)     ;
(PID.TID 0000.0001) pickup_read_mnc =   /* Model IO flag. */
(PID.TID 0000.0001)                   F
(PID.TID 0000.0001)     ;
(PID.TID 0000.0001) pickup_write_immed =   /* Model IO flag. */
(PID.TID 0000.0001)                   F
(PID.TID 0000.0001)     ;
(PID.TID 0000.0001) dumpFreq =   /* Model state write out interval ( s ). */
(PID.TID 0000.0001)                 2.592000000000000E+06
(PID.TID 0000.0001)     ;
(PID.TID 0000.0001) dumpInitAndLast= /* write out Initial & Last iter. model state */
(PID.TID 0000.0001)                   T
(PID.TID 0000.0001)     ;
(PID.TID 0000.0001) snapshot_mdsio =   /* Model IO flag. */
(PID.TID 0000.0001)                   T
(PID.TID 0000.0001)     ;
(PID.TID 0000.0001) snapshot_mnc =   /* Model IO flag. */
(PID.TID 0000.0001)                   F
(PID.TID 0000.0001)     ;
(PID.TID 0000.0001) monitorFreq =   /* Monitor output interval ( s ). */
(PID.TID 0000.0001)                 1.000000000000000E+00
(PID.TID 0000.0001)     ;
(PID.TID 0000.0001) monitor_stdio =   /* Model IO flag. */
(PID.TID 0000.0001)                   T
(PID.TID 0000.0001)     ;
(PID.TID 0000.0001) monitor_mnc =   /* Model IO flag. */
(PID.TID 0000.0001)                   F
(PID.TID 0000.0001)     ;
(PID.TID 0000.0001) externForcingPeriod =   /* forcing period (s) */
(PID.TID 0000.0001)                 0.000000000000000E+00
(PID.TID 0000.0001)     ;
(PID.TID 0000.0001) externForcingCycle =   /* period of the cyle (s). */
(PID.TID 0000.0001)                 0.000000000000000E+00
(PID.TID 0000.0001)     ;
(PID.TID 0000.0001) tauThetaClimRelax =   /* relaxation time scale (s) */
(PID.TID 0000.0001)                 0.000000000000000E+00
(PID.TID 0000.0001)     ;
(PID.TID 0000.0001) tauSaltClimRelax =   /* relaxation time scale (s) */
(PID.TID 0000.0001)                 0.000000000000000E+00
(PID.TID 0000.0001)     ;
(PID.TID 0000.0001) latBandClimRelax =   /* max. Lat. where relaxation */
(PID.TID 0000.0001)                 1.800000000000000E+02
(PID.TID 0000.0001)     ;
(PID.TID 0000.0001) //
(PID.TID 0000.0001) // Gridding paramters ( PARM04 in namelist )
(PID.TID 0000.0001) //
(PID.TID 0000.0001) usingCartesianGrid = /* Cartesian coordinates flag ( True/False ) */
(PID.TID 0000.0001)                   F
(PID.TID 0000.0001)     ;
(PID.TID 0000.0001) usingCylindricalGrid = /* Cylindrical coordinates flag ( True/False ) */
(PID.TID 0000.0001)                   F
(PID.TID 0000.0001)     ;
(PID.TID 0000.0001) usingSphericalPolarGrid = /* Spherical coordinates flag ( True/False ) */
(PID.TID 0000.0001)                   F
(PID.TID 0000.0001)     ;
(PID.TID 0000.0001) usingCurvilinearGrid = /* Curvilinear coordinates flag ( True/False ) */
(PID.TID 0000.0001)                   T
(PID.TID 0000.0001)     ;
(PID.TID 0000.0001) Ro_SeaLevel = /* r(1) ( units of r ) */
(PID.TID 0000.0001)                 1.000000000000000E+05
(PID.TID 0000.0001)     ;
(PID.TID 0000.0001) rkSign =   /* index orientation relative to vertical coordinate */
(PID.TID 0000.0001)                -1.000000000000000E+00
(PID.TID 0000.0001)     ;
(PID.TID 0000.0001) gravitySign = /* gravity orientation relative to vertical coordinate */
(PID.TID 0000.0001)                 1.000000000000000E+00
(PID.TID 0000.0001)     ;
(PID.TID 0000.0001) horiVertRatio =   /* Ratio on units : Horiz - Vertical */
(PID.TID 0000.0001)                 9.810000000000000E+00
(PID.TID 0000.0001)     ;
(PID.TID 0000.0001) drC =   /* C spacing ( units of r ) */
(PID.TID 0000.0001)                 5.000000000000000E+03,      /* K =  1 */
(PID.TID 0000.0001)                 1.750000000000000E+04,      /* K =  2 */
(PID.TID 0000.0001)                 2.750000000000000E+04,      /* K =  3 */
(PID.TID 0000.0001)                 2.500000000000000E+04,      /* K =  4 */
(PID.TID 0000.0001)                 1.750000000000000E+04       /* K =  5 */
(PID.TID 0000.0001)     ;
(PID.TID 0000.0001) drF =   /* W spacing ( units of r ) */
(PID.TID 0000.0001)                 1.000000000000000E+04,      /* K =  1 */
(PID.TID 0000.0001)                 2.500000000000000E+04,      /* K =  2 */
(PID.TID 0000.0001)                 3.000000000000000E+04,      /* K =  3 */
(PID.TID 0000.0001)                 2.000000000000000E+04,      /* K =  4 */
(PID.TID 0000.0001)                 1.500000000000000E+04       /* K =  5 */
(PID.TID 0000.0001)     ;
(PID.TID 0000.0001) delX =   /* U spacing ( m - cartesian, degrees - spherical ) */
(PID.TID 0000.0001)   192 @  1.234567000000000E+05              /* I =  1:192 */
(PID.TID 0000.0001)     ;
(PID.TID 0000.0001) delY =   /* V spacing ( m - cartesian, degrees - spherical ) */
(PID.TID 0000.0001)    32 @  1.234567000000000E+05              /* J =  1: 32 */
(PID.TID 0000.0001)     ;
(PID.TID 0000.0001) phiMin =    /* South edge (ignored - cartesian, degrees - spherical ) */
(PID.TID 0000.0001)                 0.000000000000000E+00
(PID.TID 0000.0001)     ;
(PID.TID 0000.0001) thetaMin =    /* West edge ( ignored - cartesian, degrees - spherical ) */
(PID.TID 0000.0001)                 0.000000000000000E+00
(PID.TID 0000.0001)     ;
(PID.TID 0000.0001) rSphere =  /* Radius ( ignored - cartesian, m - spherical ) */
(PID.TID 0000.0001)                 6.370000000000000E+06
(PID.TID 0000.0001)     ;
(PID.TID 0000.0001) deepAtmosphere = /* Deep/Shallow Atmosphere flag (True/False) */
(PID.TID 0000.0001)                   F
(PID.TID 0000.0001)     ;
(PID.TID 0000.0001) xcoord =   /* P-point X coord ( m - cartesian, degrees - spherical ) */
(PID.TID 0000.0001)                -4.439521994760536E+01,      /* I =  1 */
(PID.TID 0000.0001)                -4.295641272275883E+01,      /* I =  2 */
(PID.TID 0000.0001)                -4.122055553388957E+01,      /* I =  3 */
(PID.TID 0000.0001)                -3.923446288487304E+01,      /* I =  4 */
(PID.TID 0000.0001)                -3.702585158682200E+01,      /* I =  5 */
(PID.TID 0000.0001)                -3.461179367094151E+01,      /* I =  6 */
(PID.TID 0000.0001)                -3.200434569041793E+01,      /* I =  7 */
(PID.TID 0000.0001)                -2.921355965632675E+01,      /* I =  8 */
(PID.TID 0000.0001)                -2.624932223028290E+01,      /* I =  9 */
(PID.TID 0000.0001)                -2.312261250426344E+01,      /* I = 10 */
(PID.TID 0000.0001)                -1.984640717127058E+01,      /* I = 11 */
(PID.TID 0000.0001)                -1.643630800555134E+01,      /* I = 12 */
(PID.TID 0000.0001)                -1.291089806302069E+01,      /* I = 13 */
(PID.TID 0000.0001)                -9.291807802719402E+00,      /* I = 14 */
(PID.TID 0000.0001)                -5.603475335822332E+00,      /* I = 15 */
(PID.TID 0000.0001)                -1.872608513033445E+00,      /* I = 16 */
(PID.TID 0000.0001)                 1.872608513033445E+00,      /* I = 17 */
(PID.TID 0000.0001)                 5.603475335822332E+00,      /* I = 18 */
(PID.TID 0000.0001)                 9.291807802719402E+00,      /* I = 19 */
(PID.TID 0000.0001)                 1.291089806302069E+01,      /* I = 20 */
(PID.TID 0000.0001)                 1.643630800555134E+01,      /* I = 21 */
(PID.TID 0000.0001)                 1.984640717127058E+01,      /* I = 22 */
(PID.TID 0000.0001)                 2.312261250426344E+01,      /* I = 23 */
(PID.TID 0000.0001)                 2.624932223028290E+01,      /* I = 24 */
(PID.TID 0000.0001)                 2.921355965632675E+01,      /* I = 25 */
(PID.TID 0000.0001)                 3.200434569041793E+01,      /* I = 26 */
(PID.TID 0000.0001)                 3.461179367094151E+01,      /* I = 27 */
(PID.TID 0000.0001)                 3.702585158682200E+01,      /* I = 28 */
(PID.TID 0000.0001)                 3.923446288487304E+01,      /* I = 29 */
(PID.TID 0000.0001)                 4.122055553388957E+01,      /* I = 30 */
(PID.TID 0000.0001)                 4.295641272275883E+01,      /* I = 31 */
(PID.TID 0000.0001)                 4.439521994760536E+01,      /* I = 32 */
(PID.TID 0000.0001)                 4.560478005239464E+01,      /* I = 33 */
(PID.TID 0000.0001)                 4.704358727724117E+01,      /* I = 34 */
(PID.TID 0000.0001)                 4.877944446611043E+01,      /* I = 35 */
(PID.TID 0000.0001)                 5.076553711512697E+01,      /* I = 36 */
(PID.TID 0000.0001)                 5.297414841317801E+01,      /* I = 37 */
(PID.TID 0000.0001)                 5.538820632905850E+01,      /* I = 38 */
(PID.TID 0000.0001)                 5.799565430958209E+01,      /* I = 39 */
(PID.TID 0000.0001)                 6.078644034367325E+01,      /* I = 40 */
(PID.TID 0000.0001)                 6.375067776971711E+01,      /* I = 41 */
(PID.TID 0000.0001)                 6.687738749573657E+01,      /* I = 42 */
(PID.TID 0000.0001)                 7.015359282872943E+01,      /* I = 43 */
(PID.TID 0000.0001)                 7.356369199444866E+01,      /* I = 44 */
(PID.TID 0000.0001)                 7.708910193697932E+01,      /* I = 45 */
(PID.TID 0000.0001)                 8.070819219728060E+01,      /* I = 46 */
(PID.TID 0000.0001)                 8.439652466417766E+01,      /* I = 47 */
(PID.TID 0000.0001)                 8.812739148696656E+01,      /* I = 48 */
(PID.TID 0000.0001)                 9.187260851303344E+01,      /* I = 49 */
(PID.TID 0000.0001)                 9.560347533582234E+01,      /* I = 50 */
(PID.TID 0000.0001)                 9.929180780271940E+01,      /* I = 51 */
(PID.TID 0000.0001)                 1.029108980630207E+02,      /* I = 52 */
(PID.TID 0000.0001)                 1.064363080055513E+02,      /* I = 53 */
(PID.TID 0000.0001)                 1.098464071712706E+02,      /* I = 54 */
(PID.TID 0000.0001)                 1.131226125042634E+02,      /* I = 55 */
(PID.TID 0000.0001)                 1.162493222302829E+02,      /* I = 56 */
(PID.TID 0000.0001)                 1.192135596563268E+02,      /* I = 57 */
(PID.TID 0000.0001)                 1.220043456904179E+02,      /* I = 58 */
(PID.TID 0000.0001)                 1.246117936709415E+02,      /* I = 59 */
(PID.TID 0000.0001)                 1.270258515868220E+02,      /* I = 60 */
(PID.TID 0000.0001)                 1.292344628848730E+02,      /* I = 61 */
(PID.TID 0000.0001)                 1.312205555338896E+02,      /* I = 62 */
(PID.TID 0000.0001)                 1.329564127227588E+02,      /* I = 63 */
(PID.TID 0000.0001)                 1.343952199476053E+02,      /* I = 64 */
(PID.TID 0000.0001)                 4.500000000000000E+01,      /* I = 65 */
(PID.TID 0000.0001)                 4.620805468796297E+01,      /* I = 66 */
(PID.TID 0000.0001)                 4.781369642513039E+01,      /* I = 67 */
(PID.TID 0000.0001)                 4.971767671143929E+01,      /* I = 68 */
(PID.TID 0000.0001)                 5.187738319787235E+01,      /* I = 69 */
(PID.TID 0000.0001)                 5.427004371478710E+01,      /* I = 70 */
(PID.TID 0000.0001)                 5.688128325334060E+01,      /* I = 71 */
(PID.TID 0000.0001)                 5.970018167786760E+01,      /* I = 72 */
(PID.TID 0000.0001)                 6.271654991792347E+01,      /* I = 73 */
(PID.TID 0000.0001)                 6.591914604853015E+01,      /* I = 74 */
(PID.TID 0000.0001)                 6.929439270484148E+01,      /* I = 75 */
(PID.TID 0000.0001)                 7.282545807616151E+01,      /* I = 76 */
(PID.TID 0000.0001)                 7.649168830618933E+01,      /* I = 77 */
(PID.TID 0000.0001)                 8.026842803787176E+01,      /* I = 78 */
(PID.TID 0000.0001)                 8.412726743124185E+01,      /* I = 79 */
(PID.TID 0000.0001)                 8.803672008547504E+01,      /* I = 80 */
(PID.TID 0000.0001)                 9.196327991452496E+01,      /* I = 81 */
(PID.TID 0000.0001)                 9.587273256875815E+01,      /* I = 82 */
(PID.TID 0000.0001)                 9.973157196212824E+01,      /* I = 83 */
(PID.TID 0000.0001)                 1.035083116938107E+02,      /* I = 84 */
(PID.TID 0000.0001)                 1.071745419238385E+02,      /* I = 85 */
(PID.TID 0000.0001)                 1.107056072951585E+02,      /* I = 86 */
(PID.TID 0000.0001)                 1.140808539514698E+02,      /* I = 87 */
(PID.TID 0000.0001)                 1.172834500820765E+02,      /* I = 88 */
(PID.TID 0000.0001)                 1.202998183221324E+02,      /* I = 89 */
(PID.TID 0000.0001)                 1.231187167466594E+02,      /* I = 90 */
(PID.TID 0000.0001)                 1.257299562852129E+02,      /* I = 91 */
(PID.TID 0000.0001)                 1.281226168021277E+02,      /* I = 92 */
(PID.TID 0000.0001)                 1.302823232885607E+02,      /* I = 93 */
(PID.TID 0000.0001)                 1.321863035748696E+02,      /* I = 94 */
(PID.TID 0000.0001)                 1.337919453120370E+02,      /* I = 95 */
(PID.TID 0000.0001)                 1.350000000000000E+02,      /* I = 96 */
(PID.TID 0000.0001)                 1.356047800523947E+02,      /* I = 97 */
(PID.TID 0000.0001)                 1.358367907661329E+02,      /* I = 98 */
(PID.TID 0000.0001)                 1.359720382181193E+02,      /* I = 99 */
(PID.TID 0000.0001)                 1.360654656901789E+02,      /* I =100 */
(PID.TID 0000.0001)                 1.361344533147042E+02,      /* I =101 */
(PID.TID 0000.0001)                 1.361871219420981E+02,      /* I =102 */
(PID.TID 0000.0001)                 1.362280794509603E+02,      /* I =103 */
(PID.TID 0000.0001)                 1.362602511071934E+02,      /* I =104 */
(PID.TID 0000.0001)                 1.362856280326734E+02,      /* I =105 */
(PID.TID 0000.0001)                 1.363056266270901E+02,      /* I =106 */
(PID.TID 0000.0001)                 1.363212817739446E+02,      /* I =107 */
(PID.TID 0000.0001)                 1.363333595910255E+02,      /* I =108 */
(PID.TID 0000.0001)                 1.363424272425760E+02,      /* I =109 */
(PID.TID 0000.0001)                 1.363488978790713E+02,      /* I =110 */
(PID.TID 0000.0001)                 1.363530600590580E+02,      /* I =111 */
(PID.TID 0000.0001)     2 @  1.363550967500717E+02,             /* I =112:113 */
(PID.TID 0000.0001)                 1.363530600590580E+02,      /* I =114 */
(PID.TID 0000.0001)                 1.363488978790713E+02,      /* I =115 */
(PID.TID 0000.0001)                 1.363424272425760E+02,      /* I =116 */
(PID.TID 0000.0001)                 1.363333595910255E+02,      /* I =117 */
(PID.TID 0000.0001)                 1.363212817739446E+02,      /* I =118 */
(PID.TID 0000.0001)                 1.363056266270901E+02,      /* I =119 */
(PID.TID 0000.0001)                 1.362856280326734E+02,      /* I =120 */
(PID.TID 0000.0001)                 1.362602511071934E+02,      /* I =121 */
(PID.TID 0000.0001)                 1.362280794509603E+02,      /* I =122 */
(PID.TID 0000.0001)                 1.361871219420981E+02,      /* I =123 */
(PID.TID 0000.0001)                 1.361344533147042E+02,      /* I =124 */
(PID.TID 0000.0001)                 1.360654656901789E+02,      /* I =125 */
(PID.TID 0000.0001)                 1.359720382181193E+02,      /* I =126 */
(PID.TID 0000.0001)                 1.358367907661329E+02,      /* I =127 */
(PID.TID 0000.0001)                 1.356047800523947E+02,      /* I =128 */
(PID.TID 0000.0001)                -1.343952199476053E+02,      /* I =129 */
(PID.TID 0000.0001)                -1.341632092338671E+02,      /* I =130 */
(PID.TID 0000.0001)                -1.340279617818807E+02,      /* I =131 */
(PID.TID 0000.0001)                -1.339345343098211E+02,      /* I =132 */
(PID.TID 0000.0001)                -1.338655466852958E+02,      /* I =133 */
(PID.TID 0000.0001)                -1.338128780579019E+02,      /* I =134 */
(PID.TID 0000.0001)                -1.337719205490397E+02,      /* I =135 */
(PID.TID 0000.0001)                -1.337397488928066E+02,      /* I =136 */
(PID.TID 0000.0001)                -1.337143719673266E+02,      /* I =137 */
(PID.TID 0000.0001)                -1.336943733729099E+02,      /* I =138 */
(PID.TID 0000.0001)                -1.336787182260554E+02,      /* I =139 */
(PID.TID 0000.0001)                -1.336666404089745E+02,      /* I =140 */
(PID.TID 0000.0001)                -1.336575727574240E+02,      /* I =141 */
(PID.TID 0000.0001)                -1.336511021209287E+02,      /* I =142 */
(PID.TID 0000.0001)                -1.336469399409420E+02,      /* I =143 */
(PID.TID 0000.0001)     2 @ -1.336449032499283E+02,             /* I =144:145 */
(PID.TID 0000.0001)                -1.336469399409420E+02,      /* I =146 */
(PID.TID 0000.0001)                -1.336511021209287E+02,      /* I =147 */
(PID.TID 0000.0001)                -1.336575727574240E+02,      /* I =148 */
(PID.TID 0000.0001)                -1.336666404089745E+02,      /* I =149 */
(PID.TID 0000.0001)                -1.336787182260554E+02,      /* I =150 */
(PID.TID 0000.0001)                -1.336943733729099E+02,      /* I =151 */
(PID.TID 0000.0001)                -1.337143719673266E+02,      /* I =152 */
(PID.TID 0000.0001)                -1.337397488928066E+02,      /* I =153 */
(PID.TID 0000.0001)                -1.337719205490397E+02,      /* I =154 */
(PID.TID 0000.0001)                -1.338128780579019E+02,      /* I =155 */
(PID.TID 0000.0001)                -1.338655466852958E+02,      /* I =156 */
(PID.TID 0000.0001)                -1.339345343098211E+02,      /* I =157 */
(PID.TID 0000.0001)                -1.340279617818807E+02,      /* I =158 */
(PID.TID 0000.0001)                -1.341632092338671E+02,      /* I =159 */
(PID.TID 0000.0001)                -1.343952199476053E+02,      /* I =160 */
(PID.TID 0000.0001)                -1.350000000000000E+02,      /* I =161 */
(PID.TID 0000.0001)                -1.362080546879630E+02,      /* I =162 */
(PID.TID 0000.0001)                -1.378136964251304E+02,      /* I =163 */
(PID.TID 0000.0001)                -1.397176767114393E+02,      /* I =164 */
(PID.TID 0000.0001)                -1.418773831978723E+02,      /* I =165 */
(PID.TID 0000.0001)                -1.442700437147871E+02,      /* I =166 */
(PID.TID 0000.0001)                -1.468812832533406E+02,      /* I =167 */
(PID.TID 0000.0001)                -1.497001816778676E+02,      /* I =168 */
(PID.TID 0000.0001)                -1.527165499179235E+02,      /* I =169 */
(PID.TID 0000.0001)                -1.559191460485302E+02,      /* I =170 */
(PID.TID 0000.0001)                -1.592943927048415E+02,      /* I =171 */
(PID.TID 0000.0001)                -1.628254580761615E+02,      /* I =172 */
(PID.TID 0000.0001)                -1.664916883061893E+02,      /* I =173 */
(PID.TID 0000.0001)                -1.702684280378718E+02,      /* I =174 */
(PID.TID 0000.0001)                -1.741272674312418E+02,      /* I =175 */
(PID.TID 0000.0001)                -1.780367200854751E+02,      /* I =176 */
(PID.TID 0000.0001)                 1.780367200854751E+02,      /* I =177 */
(PID.TID 0000.0001)                 1.741272674312418E+02,      /* I =178 */
(PID.TID 0000.0001)                 1.702684280378718E+02,      /* I =179 */
(PID.TID 0000.0001)                 1.664916883061893E+02,      /* I =180 */
(PID.TID 0000.0001)                 1.628254580761615E+02,      /* I =181 */
(PID.TID 0000.0001)                 1.592943927048415E+02,      /* I =182 */
(PID.TID 0000.0001)                 1.559191460485302E+02,      /* I =183 */
(PID.TID 0000.0001)                 1.527165499179235E+02,      /* I =184 */
(PID.TID 0000.0001)                 1.497001816778676E+02,      /* I =185 */
(PID.TID 0000.0001)                 1.468812832533406E+02,      /* I =186 */
(PID.TID 0000.0001)                 1.442700437147871E+02,      /* I =187 */
(PID.TID 0000.0001)                 1.418773831978723E+02,      /* I =188 */
(PID.TID 0000.0001)                 1.397176767114393E+02,      /* I =189 */
(PID.TID 0000.0001)                 1.378136964251304E+02,      /* I =190 */
(PID.TID 0000.0001)                 1.362080546879630E+02,      /* I =191 */
(PID.TID 0000.0001)                 1.350000000000000E+02       /* I =192 */
(PID.TID 0000.0001)     ;
(PID.TID 0000.0001) ycoord =   /* P-point Y coord ( m - cartesian, degrees - spherical ) */
(PID.TID 0000.0001)                -3.497677942598243E+01,      /* J =  1 */
(PID.TID 0000.0001)                -3.374005967394886E+01,      /* J =  2 */
(PID.TID 0000.0001)                -3.220655175667454E+01,      /* J =  3 */
(PID.TID 0000.0001)                -3.045756348838641E+01,      /* J =  4 */
(PID.TID 0000.0001)                -2.853728129852918E+01,      /* J =  5 */
(PID.TID 0000.0001)                -2.647426640173173E+01,      /* J =  6 */
(PID.TID 0000.0001)                -2.428936657094636E+01,      /* J =  7 */
(PID.TID 0000.0001)                -2.199915808312262E+01,      /* J =  8 */
(PID.TID 0000.0001)                -1.961768597440146E+01,      /* J =  9 */
(PID.TID 0000.0001)                -1.715743888281371E+01,      /* J = 10 */
(PID.TID 0000.0001)                -1.462993396899330E+01,      /* J = 11 */
(PID.TID 0000.0001)                -1.204608340464756E+01,      /* J = 12 */
(PID.TID 0000.0001)                -9.416429130284818E+00,      /* J = 13 */
(PID.TID 0000.0001)                -6.751293662992216E+00,      /* J = 14 */
(PID.TID 0000.0001)                -4.060875511835959E+00,      /* J = 15 */
(PID.TID 0000.0001)                -1.355307764409121E+00,      /* J = 16 */
(PID.TID 0000.0001)                 1.355307764409121E+00,      /* J = 17 */
(PID.TID 0000.0001)                 4.060875511835959E+00,      /* J = 18 */
(PID.TID 0000.0001)                 6.751293662992216E+00,      /* J = 19 */
(PID.TID 0000.0001)                 9.416429130284818E+00,      /* J = 20 */
(PID.TID 0000.0001)                 1.204608340464756E+01,      /* J = 21 */
(PID.TID 0000.0001)                 1.462993396899330E+01,      /* J = 22 */
(PID.TID 0000.0001)                 1.715743888281371E+01,      /* J = 23 */
(PID.TID 0000.0001)                 1.961768597440146E+01,      /* J = 24 */
(PID.TID 0000.0001)                 2.199915808312262E+01,      /* J = 25 */
(PID.TID 0000.0001)                 2.428936657094636E+01,      /* J = 26 */
(PID.TID 0000.0001)                 2.647426640173173E+01,      /* J = 27 */
(PID.TID 0000.0001)                 2.853728129852918E+01,      /* J = 28 */
(PID.TID 0000.0001)                 3.045756348838641E+01,      /* J = 29 */
(PID.TID 0000.0001)                 3.220655175667454E+01,      /* J = 30 */
(PID.TID 0000.0001)                 3.374005967394886E+01,      /* J = 31 */
(PID.TID 0000.0001)                 3.497677942598243E+01       /* J = 32 */
(PID.TID 0000.0001)     ;
(PID.TID 0000.0001) rcoord =   /* P-point R coordinate (  units of r ) */
(PID.TID 0000.0001)                 9.500000000000000E+04,      /* K =  1 */
(PID.TID 0000.0001)                 7.750000000000000E+04,      /* K =  2 */
(PID.TID 0000.0001)                 5.000000000000000E+04,      /* K =  3 */
(PID.TID 0000.0001)                 2.500000000000000E+04,      /* K =  4 */
(PID.TID 0000.0001)                 7.500000000000000E+03       /* K =  5 */
(PID.TID 0000.0001)     ;
(PID.TID 0000.0001) rF =   /* W-Interf. R coordinate (  units of r ) */
(PID.TID 0000.0001)                 1.000000000000000E+05,      /* K =  1 */
(PID.TID 0000.0001)                 9.000000000000000E+04,      /* K =  2 */
(PID.TID 0000.0001)                 6.500000000000000E+04,      /* K =  3 */
(PID.TID 0000.0001)                 3.500000000000000E+04,      /* K =  4 */
(PID.TID 0000.0001)                 1.500000000000000E+04,      /* K =  5 */
(PID.TID 0000.0001)                 0.000000000000000E+00       /* K =  6 */
(PID.TID 0000.0001)     ;
(PID.TID 0000.0001) deepFacC = /* deep-model grid factor @ cell-Center (-) */
(PID.TID 0000.0001)     5 @  1.000000000000000E+00              /* K =  1:  5 */
(PID.TID 0000.0001)     ;
(PID.TID 0000.0001) deepFacF = /* deep-model grid factor @ W-Interface (-) */
(PID.TID 0000.0001)     6 @  1.000000000000000E+00              /* K =  1:  6 */
(PID.TID 0000.0001)     ;
(PID.TID 0000.0001) rVel2wUnit = /* convert units: rVel -> wSpeed (=1 if z-coord)*/
(PID.TID 0000.0001)                 8.468280180573759E-02,      /* K =  1 */
(PID.TID 0000.0001)                 9.264164924838553E-02,      /* K =  2 */
(PID.TID 0000.0001)                 1.218363765768670E-01,      /* K =  3 */
(PID.TID 0000.0001)                 2.012547327065781E-01,      /* K =  4 */
(PID.TID 0000.0001)                 4.382932217562046E-01,      /* K =  5 */
(PID.TID 0000.0001)                 1.000000000000000E+00       /* K =  6 */
(PID.TID 0000.0001)     ;
(PID.TID 0000.0001) wUnit2rVel = /* convert units: wSpeed -> rVel (=1 if z-coord)*/
(PID.TID 0000.0001)                 1.180877319451476E+01,      /* K =  1 */
(PID.TID 0000.0001)                 1.079428106162982E+01,      /* K =  2 */
(PID.TID 0000.0001)                 8.207729317763288E+00,      /* K =  3 */
(PID.TID 0000.0001)                 4.968827249682435E+00,      /* K =  4 */
(PID.TID 0000.0001)                 2.281577606865748E+00,      /* K =  5 */
(PID.TID 0000.0001)                 1.000000000000000E+00       /* K =  6 */
(PID.TID 0000.0001)     ;
(PID.TID 0000.0001) dBdrRef = /* Vertical gradient of reference boyancy [(m/s/r)^2)] */
(PID.TID 0000.0001)                 0.000000000000000E+00,      /* K =  1 */
(PID.TID 0000.0001)                 1.551846956946958E-06,      /* K =  2 */
(PID.TID 0000.0001)                 2.382518577942705E-06,      /* K =  3 */
(PID.TID 0000.0001)                 5.042981208886097E-06,      /* K =  4 */
(PID.TID 0000.0001)                 6.524166098263503E-05       /* K =  5 */
(PID.TID 0000.0001)     ;
(PID.TID 0000.0001) dxF =  /* dxF(:,1,:,1) ( units: m ) */
(PID.TID 0000.0001)                 1.202082051331828E+05,      /* I =  1 */
(PID.TID 0000.0001)                 1.563594089971120E+05,      /* I =  2 */
(PID.TID 0000.0001)                 1.835530058121492E+05,      /* I =  3 */
(PID.TID 0000.0001)                 2.045883481718707E+05,      /* I =  4 */
(PID.TID 0000.0001)                 2.218350349844185E+05,      /* I =  5 */
(PID.TID 0000.0001)                 2.364352994647058E+05,      /* I =  6 */
(PID.TID 0000.0001)                 2.490022710862746E+05,      /* I =  7 */
(PID.TID 0000.0001)                 2.598919724358304E+05,      /* I =  8 */
(PID.TID 0000.0001)                 2.693210245495156E+05,      /* I =  9 */
(PID.TID 0000.0001)                 2.774243179696503E+05,      /* I = 10 */
(PID.TID 0000.0001)                 2.842862532064524E+05,      /* I = 11 */
(PID.TID 0000.0001)                 2.899590699694043E+05,      /* I = 12 */
(PID.TID 0000.0001)                 2.944742915095688E+05,      /* I = 13 */
(PID.TID 0000.0001)                 2.978501920522794E+05,      /* I = 14 */
(PID.TID 0000.0001)                 3.000967749619962E+05,      /* I = 15 */
(PID.TID 0000.0001)     2 @  3.012190981969055E+05,             /* I = 16: 17 */
(PID.TID 0000.0001)                 3.000967749619962E+05,      /* I = 18 */
(PID.TID 0000.0001)                 2.978501920522794E+05,      /* I = 19 */
(PID.TID 0000.0001)                 2.944742915095688E+05,      /* I = 20 */
(PID.TID 0000.0001)                 2.899590699694043E+05,      /* I = 21 */
(PID.TID 0000.0001)                 2.842862532064524E+05,      /* I = 22 */
(PID.TID 0000.0001)                 2.774243179696503E+05,      /* I = 23 */
(PID.TID 0000.0001)                 2.693210245495156E+05,      /* I = 24 */
(PID.TID 0000.0001)                 2.598919724358304E+05,      /* I = 25 */
(PID.TID 0000.0001)                 2.490022710862746E+05,      /* I = 26 */
(PID.TID 0000.0001)                 2.364352994647058E+05,      /* I = 27 */
(PID.TID 0000.0001)                 2.218350349844185E+05,      /* I = 28 */
(PID.TID 0000.0001)                 2.045883481718707E+05,      /* I = 29 */
(PID.TID 0000.0001)                 1.835530058121492E+05,      /* I = 30 */
(PID.TID 0000.0001)                 1.563594089971120E+05,      /* I = 31 */
(PID.TID 0000.0001)     2 @  1.202082051331828E+05,             /* I = 32: 33 */
(PID.TID 0000.0001)                 1.563594089971120E+05,      /* I = 34 */
(PID.TID 0000.0001)                 1.835530058121492E+05,      /* I = 35 */
(PID.TID 0000.0001)                 2.045883481718707E+05,      /* I = 36 */
(PID.TID 0000.0001)                 2.218350349844185E+05,      /* I = 37 */
(PID.TID 0000.0001)                 2.364352994647058E+05,      /* I = 38 */
(PID.TID 0000.0001)                 2.490022710862746E+05,      /* I = 39 */
(PID.TID 0000.0001)                 2.598919724358304E+05,      /* I = 40 */
(PID.TID 0000.0001)                 2.693210245495156E+05,      /* I = 41 */
(PID.TID 0000.0001)                 2.774243179696503E+05,      /* I = 42 */
(PID.TID 0000.0001)                 2.842862532064524E+05,      /* I = 43 */
(PID.TID 0000.0001)                 2.899590699694043E+05,      /* I = 44 */
(PID.TID 0000.0001)                 2.944742915095688E+05,      /* I = 45 */
(PID.TID 0000.0001)                 2.978501920522794E+05,      /* I = 46 */
(PID.TID 0000.0001)                 3.000967749619962E+05,      /* I = 47 */
(PID.TID 0000.0001)     2 @  3.012190981969055E+05,             /* I = 48: 49 */
(PID.TID 0000.0001)                 3.000967749619962E+05,      /* I = 50 */
(PID.TID 0000.0001)                 2.978501920522794E+05,      /* I = 51 */
(PID.TID 0000.0001)                 2.944742915095688E+05,      /* I = 52 */
(PID.TID 0000.0001)                 2.899590699694043E+05,      /* I = 53 */
(PID.TID 0000.0001)                 2.842862532064524E+05,      /* I = 54 */
(PID.TID 0000.0001)                 2.774243179696503E+05,      /* I = 55 */
(PID.TID 0000.0001)                 2.693210245495156E+05,      /* I = 56 */
(PID.TID 0000.0001)                 2.598919724358304E+05,      /* I = 57 */
(PID.TID 0000.0001)                 2.490022710862746E+05,      /* I = 58 */
(PID.TID 0000.0001)                 2.364352994647058E+05,      /* I = 59 */
(PID.TID 0000.0001)                 2.218350349844185E+05,      /* I = 60 */
(PID.TID 0000.0001)                 2.045883481718707E+05,      /* I = 61 */
(PID.TID 0000.0001)                 1.835530058121492E+05,      /* I = 62 */
(PID.TID 0000.0001)                 1.563594089971120E+05,      /* I = 63 */
(PID.TID 0000.0001)     2 @  1.202082051331828E+05,             /* I = 64: 65 */
(PID.TID 0000.0001)                 1.563594089971120E+05,      /* I = 66 */
(PID.TID 0000.0001)                 1.835530058121492E+05,      /* I = 67 */
(PID.TID 0000.0001)                 2.045883481718707E+05,      /* I = 68 */
(PID.TID 0000.0001)                 2.218350349844185E+05,      /* I = 69 */
(PID.TID 0000.0001)                 2.364352994647058E+05,      /* I = 70 */
(PID.TID 0000.0001)                 2.490022710862746E+05,      /* I = 71 */
(PID.TID 0000.0001)                 2.598919724358304E+05,      /* I = 72 */
(PID.TID 0000.0001)                 2.693210245495156E+05,      /* I = 73 */
(PID.TID 0000.0001)                 2.774243179696503E+05,      /* I = 74 */
(PID.TID 0000.0001)                 2.842862532064524E+05,      /* I = 75 */
(PID.TID 0000.0001)                 2.899590699694043E+05,      /* I = 76 */
(PID.TID 0000.0001)                 2.944742915095688E+05,      /* I = 77 */
(PID.TID 0000.0001)                 2.978501920522794E+05,      /* I = 78 */
(PID.TID 0000.0001)                 3.000967749619962E+05,      /* I = 79 */
(PID.TID 0000.0001)     2 @  3.012190981969055E+05,             /* I = 80: 81 */
(PID.TID 0000.0001)                 3.000967749619962E+05,      /* I = 82 */
(PID.TID 0000.0001)                 2.978501920522794E+05,      /* I = 83 */
(PID.TID 0000.0001)                 2.944742915095688E+05,      /* I = 84 */
(PID.TID 0000.0001)                 2.899590699694043E+05,      /* I = 85 */
(PID.TID 0000.0001)                 2.842862532064524E+05,      /* I = 86 */
(PID.TID 0000.0001)                 2.774243179696503E+05,      /* I = 87 */
(PID.TID 0000.0001)                 2.693210245495156E+05,      /* I = 88 */
(PID.TID 0000.0001)                 2.598919724358304E+05,      /* I = 89 */
(PID.TID 0000.0001)                 2.490022710862746E+05,      /* I = 90 */
(PID.TID 0000.0001)                 2.364352994647058E+05,      /* I = 91 */
(PID.TID 0000.0001)                 2.218350349844185E+05,      /* I = 92 */
(PID.TID 0000.0001)                 2.045883481718707E+05,      /* I = 93 */
(PID.TID 0000.0001)                 1.835530058121492E+05,      /* I = 94 */
(PID.TID 0000.0001)                 1.563594089971120E+05,      /* I = 95 */
(PID.TID 0000.0001)     2 @  1.202082051331828E+05,             /* I = 96: 97 */
(PID.TID 0000.0001)                 1.563594089971120E+05,      /* I = 98 */
(PID.TID 0000.0001)                 1.835530058121492E+05,      /* I = 99 */
(PID.TID 0000.0001)                 2.045883481718707E+05,      /* I =100 */
(PID.TID 0000.0001)                 2.218350349844185E+05,      /* I =101 */
(PID.TID 0000.0001)                 2.364352994647058E+05,      /* I =102 */
(PID.TID 0000.0001)                 2.490022710862746E+05,      /* I =103 */
(PID.TID 0000.0001)                 2.598919724358304E+05,      /* I =104 */
(PID.TID 0000.0001)                 2.693210245495156E+05,      /* I =105 */
(PID.TID 0000.0001)                 2.774243179696503E+05,      /* I =106 */
(PID.TID 0000.0001)                 2.842862532064524E+05,      /* I =107 */
(PID.TID 0000.0001)                 2.899590699694043E+05,      /* I =108 */
(PID.TID 0000.0001)                 2.944742915095688E+05,      /* I =109 */
(PID.TID 0000.0001)                 2.978501920522794E+05,      /* I =110 */
(PID.TID 0000.0001)                 3.000967749619962E+05,      /* I =111 */
(PID.TID 0000.0001)     2 @  3.012190981969055E+05,             /* I =112:113 */
(PID.TID 0000.0001)                 3.000967749619962E+05,      /* I =114 */
(PID.TID 0000.0001)                 2.978501920522794E+05,      /* I =115 */
(PID.TID 0000.0001)                 2.944742915095688E+05,      /* I =116 */
(PID.TID 0000.0001)                 2.899590699694043E+05,      /* I =117 */
(PID.TID 0000.0001)                 2.842862532064524E+05,      /* I =118 */
(PID.TID 0000.0001)                 2.774243179696503E+05,      /* I =119 */
(PID.TID 0000.0001)                 2.693210245495156E+05,      /* I =120 */
(PID.TID 0000.0001)                 2.598919724358304E+05,      /* I =121 */
(PID.TID 0000.0001)                 2.490022710862746E+05,      /* I =122 */
(PID.TID 0000.0001)                 2.364352994647058E+05,      /* I =123 */
(PID.TID 0000.0001)                 2.218350349844185E+05,      /* I =124 */
(PID.TID 0000.0001)                 2.045883481718707E+05,      /* I =125 */
(PID.TID 0000.0001)                 1.835530058121492E+05,      /* I =126 */
(PID.TID 0000.0001)                 1.563594089971120E+05,      /* I =127 */
(PID.TID 0000.0001)     2 @  1.202082051331828E+05,             /* I =128:129 */
(PID.TID 0000.0001)                 1.563594089971120E+05,      /* I =130 */
(PID.TID 0000.0001)                 1.835530058121492E+05,      /* I =131 */
(PID.TID 0000.0001)                 2.045883481718707E+05,      /* I =132 */
(PID.TID 0000.0001)                 2.218350349844185E+05,      /* I =133 */
(PID.TID 0000.0001)                 2.364352994647058E+05,      /* I =134 */
(PID.TID 0000.0001)                 2.490022710862746E+05,      /* I =135 */
(PID.TID 0000.0001)                 2.598919724358304E+05,      /* I =136 */
(PID.TID 0000.0001)                 2.693210245495156E+05,      /* I =137 */
(PID.TID 0000.0001)                 2.774243179696503E+05,      /* I =138 */
(PID.TID 0000.0001)                 2.842862532064524E+05,      /* I =139 */
(PID.TID 0000.0001)                 2.899590699694043E+05,      /* I =140 */
(PID.TID 0000.0001)                 2.944742915095688E+05,      /* I =141 */
(PID.TID 0000.0001)                 2.978501920522794E+05,      /* I =142 */
(PID.TID 0000.0001)                 3.000967749619962E+05,      /* I =143 */
(PID.TID 0000.0001)     2 @  3.012190981969055E+05,             /* I =144:145 */
(PID.TID 0000.0001)                 3.000967749619962E+05,      /* I =146 */
(PID.TID 0000.0001)                 2.978501920522794E+05,      /* I =147 */
(PID.TID 0000.0001)                 2.944742915095688E+05,      /* I =148 */
(PID.TID 0000.0001)                 2.899590699694043E+05,      /* I =149 */
(PID.TID 0000.0001)                 2.842862532064524E+05,      /* I =150 */
(PID.TID 0000.0001)                 2.774243179696503E+05,      /* I =151 */
(PID.TID 0000.0001)                 2.693210245495156E+05,      /* I =152 */
(PID.TID 0000.0001)                 2.598919724358304E+05,      /* I =153 */
(PID.TID 0000.0001)                 2.490022710862746E+05,      /* I =154 */
(PID.TID 0000.0001)                 2.364352994647058E+05,      /* I =155 */
(PID.TID 0000.0001)                 2.218350349844185E+05,      /* I =156 */
(PID.TID 0000.0001)                 2.045883481718707E+05,      /* I =157 */
(PID.TID 0000.0001)                 1.835530058121492E+05,      /* I =158 */
(PID.TID 0000.0001)                 1.563594089971120E+05,      /* I =159 */
(PID.TID 0000.0001)     2 @  1.202082051331828E+05,             /* I =160:161 */
(PID.TID 0000.0001)                 1.563594089971120E+05,      /* I =162 */
(PID.TID 0000.0001)                 1.835530058121492E+05,      /* I =163 */
(PID.TID 0000.0001)                 2.045883481718707E+05,      /* I =164 */
(PID.TID 0000.0001)                 2.218350349844185E+05,      /* I =165 */
(PID.TID 0000.0001)                 2.364352994647058E+05,      /* I =166 */
(PID.TID 0000.0001)                 2.490022710862746E+05,      /* I =167 */
(PID.TID 0000.0001)                 2.598919724358304E+05,      /* I =168 */
(PID.TID 0000.0001)                 2.693210245495156E+05,      /* I =169 */
(PID.TID 0000.0001)                 2.774243179696503E+05,      /* I =170 */
(PID.TID 0000.0001)                 2.842862532064524E+05,      /* I =171 */
(PID.TID 0000.0001)                 2.899590699694043E+05,      /* I =172 */
(PID.TID 0000.0001)                 2.944742915095688E+05,      /* I =173 */
(PID.TID 0000.0001)                 2.978501920522794E+05,      /* I =174 */
(PID.TID 0000.0001)                 3.000967749619962E+05,      /* I =175 */
(PID.TID 0000.0001)     2 @  3.012190981969055E+05,             /* I =176:177 */
(PID.TID 0000.0001)                 3.000967749619962E+05,      /* I =178 */
(PID.TID 0000.0001)                 2.978501920522794E+05,      /* I =179 */
(PID.TID 0000.0001)                 2.944742915095688E+05,      /* I =180 */
(PID.TID 0000.0001)                 2.899590699694043E+05,      /* I =181 */
(PID.TID 0000.0001)                 2.842862532064524E+05,      /* I =182 */
(PID.TID 0000.0001)                 2.774243179696503E+05,      /* I =183 */
(PID.TID 0000.0001)                 2.693210245495156E+05,      /* I =184 */
(PID.TID 0000.0001)                 2.598919724358304E+05,      /* I =185 */
(PID.TID 0000.0001)                 2.490022710862746E+05,      /* I =186 */
(PID.TID 0000.0001)                 2.364352994647058E+05,      /* I =187 */
(PID.TID 0000.0001)                 2.218350349844185E+05,      /* I =188 */
(PID.TID 0000.0001)                 2.045883481718707E+05,      /* I =189 */
(PID.TID 0000.0001)                 1.835530058121492E+05,      /* I =190 */
(PID.TID 0000.0001)                 1.563594089971120E+05,      /* I =191 */
(PID.TID 0000.0001)                 1.202082051331828E+05       /* I =192 */
(PID.TID 0000.0001)     ;
(PID.TID 0000.0001) dxF =  /* dxF(1,:,1,:) ( units: m ) */
(PID.TID 0000.0001)                 1.202082051331828E+05,      /* J =  1 */
(PID.TID 0000.0001)                 1.572908084538706E+05,      /* J =  2 */
(PID.TID 0000.0001)                 1.840412227747703E+05,      /* J =  3 */
(PID.TID 0000.0001)                 2.048868197919576E+05,      /* J =  4 */
(PID.TID 0000.0001)                 2.220405216043041E+05,      /* J =  5 */
(PID.TID 0000.0001)                 2.365892017348392E+05,      /* J =  6 */
(PID.TID 0000.0001)                 2.491250781852558E+05,      /* J =  7 */
(PID.TID 0000.0001)                 2.599949918261881E+05,      /* J =  8 */
(PID.TID 0000.0001)                 2.694110134598581E+05,      /* J =  9 */
(PID.TID 0000.0001)                 2.775055554645015E+05,      /* J = 10 */
(PID.TID 0000.0001)                 2.843615645344775E+05,      /* J = 11 */
(PID.TID 0000.0001)                 2.900303768613599E+05,      /* J = 12 */
(PID.TID 0000.0001)                 2.945429307892709E+05,      /* J = 13 */
(PID.TID 0000.0001)                 2.979171143158405E+05,      /* J = 14 */
(PID.TID 0000.0001)                 3.001626787528886E+05,      /* J = 15 */
(PID.TID 0000.0001)     2 @  3.012844832048790E+05,             /* J = 16: 17 */
(PID.TID 0000.0001)                 3.001626787528886E+05,      /* J = 18 */
(PID.TID 0000.0001)                 2.979171143158405E+05,      /* J = 19 */
(PID.TID 0000.0001)                 2.945429307892709E+05,      /* J = 20 */
(PID.TID 0000.0001)                 2.900303768613599E+05,      /* J = 21 */
(PID.TID 0000.0001)                 2.843615645344775E+05,      /* J = 22 */
(PID.TID 0000.0001)                 2.775055554645015E+05,      /* J = 23 */
(PID.TID 0000.0001)                 2.694110134598581E+05,      /* J = 24 */
(PID.TID 0000.0001)                 2.599949918261881E+05,      /* J = 25 */
(PID.TID 0000.0001)                 2.491250781852558E+05,      /* J = 26 */
(PID.TID 0000.0001)                 2.365892017348392E+05,      /* J = 27 */
(PID.TID 0000.0001)                 2.220405216043041E+05,      /* J = 28 */
(PID.TID 0000.0001)                 2.048868197919576E+05,      /* J = 29 */
(PID.TID 0000.0001)                 1.840412227747703E+05,      /* J = 30 */
(PID.TID 0000.0001)                 1.572908084538706E+05,      /* J = 31 */
(PID.TID 0000.0001)                 1.202082051331828E+05       /* J = 32 */
(PID.TID 0000.0001)     ;
(PID.TID 0000.0001) dyF =  /* dyF(:,1,:,1) ( units: m ) */
(PID.TID 0000.0001)                 1.202082051331828E+05,      /* I =  1 */
(PID.TID 0000.0001)                 1.572908084538706E+05,      /* I =  2 */
(PID.TID 0000.0001)                 1.840412227747703E+05,      /* I =  3 */
(PID.TID 0000.0001)                 2.048868197919576E+05,      /* I =  4 */
(PID.TID 0000.0001)                 2.220405216043041E+05,      /* I =  5 */
(PID.TID 0000.0001)                 2.365892017348392E+05,      /* I =  6 */
(PID.TID 0000.0001)                 2.491250781852558E+05,      /* I =  7 */
(PID.TID 0000.0001)                 2.599949918261881E+05,      /* I =  8 */
(PID.TID 0000.0001)                 2.694110134598581E+05,      /* I =  9 */
(PID.TID 0000.0001)                 2.775055554645015E+05,      /* I = 10 */
(PID.TID 0000.0001)                 2.843615645344775E+05,      /* I = 11 */
(PID.TID 0000.0001)                 2.900303768613599E+05,      /* I = 12 */
(PID.TID 0000.0001)                 2.945429307892709E+05,      /* I = 13 */
(PID.TID 0000.0001)                 2.979171143158405E+05,      /* I = 14 */
(PID.TID 0000.0001)                 3.001626787528886E+05,      /* I = 15 */
(PID.TID 0000.0001)     2 @  3.012844832048790E+05,             /* I = 16: 17 */
(PID.TID 0000.0001)                 3.001626787528886E+05,      /* I = 18 */
(PID.TID 0000.0001)                 2.979171143158405E+05,      /* I = 19 */
(PID.TID 0000.0001)                 2.945429307892709E+05,      /* I = 20 */
(PID.TID 0000.0001)                 2.900303768613599E+05,      /* I = 21 */
(PID.TID 0000.0001)                 2.843615645344775E+05,      /* I = 22 */
(PID.TID 0000.0001)                 2.775055554645015E+05,      /* I = 23 */
(PID.TID 0000.0001)                 2.694110134598581E+05,      /* I = 24 */
(PID.TID 0000.0001)                 2.599949918261881E+05,      /* I = 25 */
(PID.TID 0000.0001)                 2.491250781852558E+05,      /* I = 26 */
(PID.TID 0000.0001)                 2.365892017348392E+05,      /* I = 27 */
(PID.TID 0000.0001)                 2.220405216043041E+05,      /* I = 28 */
(PID.TID 0000.0001)                 2.048868197919576E+05,      /* I = 29 */
(PID.TID 0000.0001)                 1.840412227747703E+05,      /* I = 30 */
(PID.TID 0000.0001)                 1.572908084538706E+05,      /* I = 31 */
(PID.TID 0000.0001)     2 @  1.202082051331828E+05,             /* I = 32: 33 */
(PID.TID 0000.0001)                 1.572908084538706E+05,      /* I = 34 */
(PID.TID 0000.0001)                 1.840412227747703E+05,      /* I = 35 */
(PID.TID 0000.0001)                 2.048868197919576E+05,      /* I = 36 */
(PID.TID 0000.0001)                 2.220405216043041E+05,      /* I = 37 */
(PID.TID 0000.0001)                 2.365892017348392E+05,      /* I = 38 */
(PID.TID 0000.0001)                 2.491250781852558E+05,      /* I = 39 */
(PID.TID 0000.0001)                 2.599949918261881E+05,      /* I = 40 */
(PID.TID 0000.0001)                 2.694110134598581E+05,      /* I = 41 */
(PID.TID 0000.0001)                 2.775055554645015E+05,      /* I = 42 */
(PID.TID 0000.0001)                 2.843615645344775E+05,      /* I = 43 */
(PID.TID 0000.0001)                 2.900303768613599E+05,      /* I = 44 */
(PID.TID 0000.0001)                 2.945429307892709E+05,      /* I = 45 */
(PID.TID 0000.0001)                 2.979171143158405E+05,      /* I = 46 */
(PID.TID 0000.0001)                 3.001626787528886E+05,      /* I = 47 */
(PID.TID 0000.0001)     2 @  3.012844832048790E+05,             /* I = 48: 49 */
(PID.TID 0000.0001)                 3.001626787528886E+05,      /* I = 50 */
(PID.TID 0000.0001)                 2.979171143158405E+05,      /* I = 51 */
(PID.TID 0000.0001)                 2.945429307892709E+05,      /* I = 52 */
(PID.TID 0000.0001)                 2.900303768613599E+05,      /* I = 53 */
(PID.TID 0000.0001)                 2.843615645344775E+05,      /* I = 54 */
(PID.TID 0000.0001)                 2.775055554645015E+05,      /* I = 55 */
(PID.TID 0000.0001)                 2.694110134598581E+05,      /* I = 56 */
(PID.TID 0000.0001)                 2.599949918261881E+05,      /* I = 57 */
(PID.TID 0000.0001)                 2.491250781852558E+05,      /* I = 58 */
(PID.TID 0000.0001)                 2.365892017348392E+05,      /* I = 59 */
(PID.TID 0000.0001)                 2.220405216043041E+05,      /* I = 60 */
(PID.TID 0000.0001)                 2.048868197919576E+05,      /* I = 61 */
(PID.TID 0000.0001)                 1.840412227747703E+05,      /* I = 62 */
(PID.TID 0000.0001)                 1.572908084538706E+05,      /* I = 63 */
(PID.TID 0000.0001)     2 @  1.202082051331828E+05,             /* I = 64: 65 */
(PID.TID 0000.0001)                 1.572908084538706E+05,      /* I = 66 */
(PID.TID 0000.0001)                 1.840412227747703E+05,      /* I = 67 */
(PID.TID 0000.0001)                 2.048868197919576E+05,      /* I = 68 */
(PID.TID 0000.0001)                 2.220405216043041E+05,      /* I = 69 */
(PID.TID 0000.0001)                 2.365892017348392E+05,      /* I = 70 */
(PID.TID 0000.0001)                 2.491250781852558E+05,      /* I = 71 */
(PID.TID 0000.0001)                 2.599949918261881E+05,      /* I = 72 */
(PID.TID 0000.0001)                 2.694110134598581E+05,      /* I = 73 */
(PID.TID 0000.0001)                 2.775055554645015E+05,      /* I = 74 */
(PID.TID 0000.0001)                 2.843615645344775E+05,      /* I = 75 */
(PID.TID 0000.0001)                 2.900303768613599E+05,      /* I = 76 */
(PID.TID 0000.0001)                 2.945429307892709E+05,      /* I = 77 */
(PID.TID 0000.0001)                 2.979171143158405E+05,      /* I = 78 */
(PID.TID 0000.0001)                 3.001626787528886E+05,      /* I = 79 */
(PID.TID 0000.0001)     2 @  3.012844832048790E+05,             /* I = 80: 81 */
(PID.TID 0000.0001)                 3.001626787528886E+05,      /* I = 82 */
(PID.TID 0000.0001)                 2.979171143158405E+05,      /* I = 83 */
(PID.TID 0000.0001)                 2.945429307892709E+05,      /* I = 84 */
(PID.TID 0000.0001)                 2.900303768613599E+05,      /* I = 85 */
(PID.TID 0000.0001)                 2.843615645344775E+05,      /* I = 86 */
(PID.TID 0000.0001)                 2.775055554645015E+05,      /* I = 87 */
(PID.TID 0000.0001)                 2.694110134598581E+05,      /* I = 88 */
(PID.TID 0000.0001)                 2.599949918261881E+05,      /* I = 89 */
(PID.TID 0000.0001)                 2.491250781852558E+05,      /* I = 90 */
(PID.TID 0000.0001)                 2.365892017348392E+05,      /* I = 91 */
(PID.TID 0000.0001)                 2.220405216043041E+05,      /* I = 92 */
(PID.TID 0000.0001)                 2.048868197919576E+05,      /* I = 93 */
(PID.TID 0000.0001)                 1.840412227747703E+05,      /* I = 94 */
(PID.TID 0000.0001)                 1.572908084538706E+05,      /* I = 95 */
(PID.TID 0000.0001)     2 @  1.202082051331828E+05,             /* I = 96: 97 */
(PID.TID 0000.0001)                 1.572908084538706E+05,      /* I = 98 */
(PID.TID 0000.0001)                 1.840412227747703E+05,      /* I = 99 */
(PID.TID 0000.0001)                 2.048868197919576E+05,      /* I =100 */
(PID.TID 0000.0001)                 2.220405216043041E+05,      /* I =101 */
(PID.TID 0000.0001)                 2.365892017348392E+05,      /* I =102 */
(PID.TID 0000.0001)                 2.491250781852558E+05,      /* I =103 */
(PID.TID 0000.0001)                 2.599949918261881E+05,      /* I =104 */
(PID.TID 0000.0001)                 2.694110134598581E+05,      /* I =105 */
(PID.TID 0000.0001)                 2.775055554645015E+05,      /* I =106 */
(PID.TID 0000.0001)                 2.843615645344775E+05,      /* I =107 */
(PID.TID 0000.0001)                 2.900303768613599E+05,      /* I =108 */
(PID.TID 0000.0001)                 2.945429307892709E+05,      /* I =109 */
(PID.TID 0000.0001)                 2.979171143158405E+05,      /* I =110 */
(PID.TID 0000.0001)                 3.001626787528886E+05,      /* I =111 */
(PID.TID 0000.0001)     2 @  3.012844832048790E+05,             /* I =112:113 */
(PID.TID 0000.0001)                 3.001626787528886E+05,      /* I =114 */
(PID.TID 0000.0001)                 2.979171143158405E+05,      /* I =115 */
(PID.TID 0000.0001)                 2.945429307892709E+05,      /* I =116 */
(PID.TID 0000.0001)                 2.900303768613599E+05,      /* I =117 */
(PID.TID 0000.0001)                 2.843615645344775E+05,      /* I =118 */
(PID.TID 0000.0001)                 2.775055554645015E+05,      /* I =119 */
(PID.TID 0000.0001)                 2.694110134598581E+05,      /* I =120 */
(PID.TID 0000.0001)                 2.599949918261881E+05,      /* I =121 */
(PID.TID 0000.0001)                 2.491250781852558E+05,      /* I =122 */
(PID.TID 0000.0001)                 2.365892017348392E+05,      /* I =123 */
(PID.TID 0000.0001)                 2.220405216043041E+05,      /* I =124 */
(PID.TID 0000.0001)                 2.048868197919576E+05,      /* I =125 */
(PID.TID 0000.0001)                 1.840412227747703E+05,      /* I =126 */
(PID.TID 0000.0001)                 1.572908084538706E+05,      /* I =127 */
(PID.TID 0000.0001)     2 @  1.202082051331828E+05,             /* I =128:129 */
(PID.TID 0000.0001)                 1.572908084538706E+05,      /* I =130 */
(PID.TID 0000.0001)                 1.840412227747703E+05,      /* I =131 */
(PID.TID 0000.0001)                 2.048868197919576E+05,      /* I =132 */
(PID.TID 0000.0001)                 2.220405216043041E+05,      /* I =133 */
(PID.TID 0000.0001)                 2.365892017348392E+05,      /* I =134 */
(PID.TID 0000.0001)                 2.491250781852558E+05,      /* I =135 */
(PID.TID 0000.0001)                 2.599949918261881E+05,      /* I =136 */
(PID.TID 0000.0001)                 2.694110134598581E+05,      /* I =137 */
(PID.TID 0000.0001)                 2.775055554645015E+05,      /* I =138 */
(PID.TID 0000.0001)                 2.843615645344775E+05,      /* I =139 */
(PID.TID 0000.0001)                 2.900303768613599E+05,      /* I =140 */
(PID.TID 0000.0001)                 2.945429307892709E+05,      /* I =141 */
(PID.TID 0000.0001)                 2.979171143158405E+05,      /* I =142 */
(PID.TID 0000.0001)                 3.001626787528886E+05,      /* I =143 */
(PID.TID 0000.0001)     2 @  3.012844832048790E+05,             /* I =144:145 */
(PID.TID 0000.0001)                 3.001626787528886E+05,      /* I =146 */
(PID.TID 0000.0001)                 2.979171143158405E+05,      /* I =147 */
(PID.TID 0000.0001)                 2.945429307892709E+05,      /* I =148 */
(PID.TID 0000.0001)                 2.900303768613599E+05,      /* I =149 */
(PID.TID 0000.0001)                 2.843615645344775E+05,      /* I =150 */
(PID.TID 0000.0001)                 2.775055554645015E+05,      /* I =151 */
(PID.TID 0000.0001)                 2.694110134598581E+05,      /* I =152 */
(PID.TID 0000.0001)                 2.599949918261881E+05,      /* I =153 */
(PID.TID 0000.0001)                 2.491250781852558E+05,      /* I =154 */
(PID.TID 0000.0001)                 2.365892017348392E+05,      /* I =155 */
(PID.TID 0000.0001)                 2.220405216043041E+05,      /* I =156 */
(PID.TID 0000.0001)                 2.048868197919576E+05,      /* I =157 */
(PID.TID 0000.0001)                 1.840412227747703E+05,      /* I =158 */
(PID.TID 0000.0001)                 1.572908084538706E+05,      /* I =159 */
(PID.TID 0000.0001)     2 @  1.202082051331828E+05,             /* I =160:161 */
(PID.TID 0000.0001)                 1.572908084538706E+05,      /* I =162 */
(PID.TID 0000.0001)                 1.840412227747703E+05,      /* I =163 */
(PID.TID 0000.0001)                 2.048868197919576E+05,      /* I =164 */
(PID.TID 0000.0001)                 2.220405216043041E+05,      /* I =165 */
(PID.TID 0000.0001)                 2.365892017348392E+05,      /* I =166 */
(PID.TID 0000.0001)                 2.491250781852558E+05,      /* I =167 */
(PID.TID 0000.0001)                 2.599949918261881E+05,      /* I =168 */
(PID.TID 0000.0001)                 2.694110134598581E+05,      /* I =169 */
(PID.TID 0000.0001)                 2.775055554645015E+05,      /* I =170 */
(PID.TID 0000.0001)                 2.843615645344775E+05,      /* I =171 */
(PID.TID 0000.0001)                 2.900303768613599E+05,      /* I =172 */
(PID.TID 0000.0001)                 2.945429307892709E+05,      /* I =173 */
(PID.TID 0000.0001)                 2.979171143158405E+05,      /* I =174 */
(PID.TID 0000.0001)                 3.001626787528886E+05,      /* I =175 */
(PID.TID 0000.0001)     2 @  3.012844832048790E+05,             /* I =176:177 */
(PID.TID 0000.0001)                 3.001626787528886E+05,      /* I =178 */
(PID.TID 0000.0001)                 2.979171143158405E+05,      /* I =179 */
(PID.TID 0000.0001)                 2.945429307892709E+05,      /* I =180 */
(PID.TID 0000.0001)                 2.900303768613599E+05,      /* I =181 */
(PID.TID 0000.0001)                 2.843615645344775E+05,      /* I =182 */
(PID.TID 0000.0001)                 2.775055554645015E+05,      /* I =183 */
(PID.TID 0000.0001)                 2.694110134598581E+05,      /* I =184 */
(PID.TID 0000.0001)                 2.599949918261881E+05,      /* I =185 */
(PID.TID 0000.0001)                 2.491250781852558E+05,      /* I =186 */
(PID.TID 0000.0001)                 2.365892017348392E+05,      /* I =187 */
(PID.TID 0000.0001)                 2.220405216043041E+05,      /* I =188 */
(PID.TID 0000.0001)                 2.048868197919576E+05,      /* I =189 */
(PID.TID 0000.0001)                 1.840412227747703E+05,      /* I =190 */
(PID.TID 0000.0001)                 1.572908084538706E+05,      /* I =191 */
(PID.TID 0000.0001)                 1.202082051331828E+05       /* I =192 */
(PID.TID 0000.0001)     ;
(PID.TID 0000.0001) dyF =  /* dyF(1,:,1,:) ( units: m ) */
(PID.TID 0000.0001)                 1.202082051331828E+05,      /* J =  1 */
(PID.TID 0000.0001)                 1.563594089971120E+05,      /* J =  2 */
(PID.TID 0000.0001)                 1.835530058121492E+05,      /* J =  3 */
(PID.TID 0000.0001)                 2.045883481718707E+05,      /* J =  4 */
(PID.TID 0000.0001)                 2.218350349844185E+05,      /* J =  5 */
(PID.TID 0000.0001)                 2.364352994647058E+05,      /* J =  6 */
(PID.TID 0000.0001)                 2.490022710862746E+05,      /* J =  7 */
(PID.TID 0000.0001)                 2.598919724358304E+05,      /* J =  8 */
(PID.TID 0000.0001)                 2.693210245495156E+05,      /* J =  9 */
(PID.TID 0000.0001)                 2.774243179696503E+05,      /* J = 10 */
(PID.TID 0000.0001)                 2.842862532064524E+05,      /* J = 11 */
(PID.TID 0000.0001)                 2.899590699694043E+05,      /* J = 12 */
(PID.TID 0000.0001)                 2.944742915095688E+05,      /* J = 13 */
(PID.TID 0000.0001)                 2.978501920522794E+05,      /* J = 14 */
(PID.TID 0000.0001)                 3.000967749619962E+05,      /* J = 15 */
(PID.TID 0000.0001)     2 @  3.012190981969055E+05,             /* J = 16: 17 */
(PID.TID 0000.0001)                 3.000967749619962E+05,      /* J = 18 */
(PID.TID 0000.0001)                 2.978501920522794E+05,      /* J = 19 */
(PID.TID 0000.0001)                 2.944742915095688E+05,      /* J = 20 */
(PID.TID 0000.0001)                 2.899590699694043E+05,      /* J = 21 */
(PID.TID 0000.0001)                 2.842862532064524E+05,      /* J = 22 */
(PID.TID 0000.0001)                 2.774243179696503E+05,      /* J = 23 */
(PID.TID 0000.0001)                 2.693210245495156E+05,      /* J = 24 */
(PID.TID 0000.0001)                 2.598919724358304E+05,      /* J = 25 */
(PID.TID 0000.0001)                 2.490022710862746E+05,      /* J = 26 */
(PID.TID 0000.0001)                 2.364352994647058E+05,      /* J = 27 */
(PID.TID 0000.0001)                 2.218350349844185E+05,      /* J = 28 */
(PID.TID 0000.0001)                 2.045883481718707E+05,      /* J = 29 */
(PID.TID 0000.0001)                 1.835530058121492E+05,      /* J = 30 */
(PID.TID 0000.0001)                 1.563594089971120E+05,      /* J = 31 */
(PID.TID 0000.0001)                 1.202082051331828E+05       /* J = 32 */
(PID.TID 0000.0001)     ;
(PID.TID 0000.0001) dxG =  /* dxG(:,1,:,1) ( units: m ) */
(PID.TID 0000.0001)                 1.009837800879055E+05,      /* I =  1 */
(PID.TID 0000.0001)                 1.534505834330338E+05,      /* I =  2 */
(PID.TID 0000.0001)                 1.823321598773926E+05,      /* I =  3 */
(PID.TID 0000.0001)                 2.038999045536999E+05,      /* I =  4 */
(PID.TID 0000.0001)                 2.213884732245467E+05,      /* I =  5 */
(PID.TID 0000.0001)                 2.361211699596122E+05,      /* I =  6 */
(PID.TID 0000.0001)                 2.487693460283865E+05,      /* I =  7 */
(PID.TID 0000.0001)                 2.597126963772147E+05,      /* I =  8 */
(PID.TID 0000.0001)                 2.691790288994575E+05,      /* I =  9 */
(PID.TID 0000.0001)                 2.773091043277394E+05,      /* I = 10 */
(PID.TID 0000.0001)                 2.841906470085516E+05,      /* I = 11 */
(PID.TID 0000.0001)                 2.898778860929753E+05,      /* I = 12 */
(PID.TID 0000.0001)                 2.944035815526416E+05,      /* I = 13 */
(PID.TID 0000.0001)                 2.977867909042096E+05,      /* I = 14 */
(PID.TID 0000.0001)                 3.000380090330854E+05,      /* I = 15 */
(PID.TID 0000.0001)     2 @  3.011625828699101E+05,             /* I = 16: 17 */
(PID.TID 0000.0001)                 3.000380090330854E+05,      /* I = 18 */
(PID.TID 0000.0001)                 2.977867909042096E+05,      /* I = 19 */
(PID.TID 0000.0001)                 2.944035815526416E+05,      /* I = 20 */
(PID.TID 0000.0001)                 2.898778860929753E+05,      /* I = 21 */
(PID.TID 0000.0001)                 2.841906470085516E+05,      /* I = 22 */
(PID.TID 0000.0001)                 2.773091043277394E+05,      /* I = 23 */
(PID.TID 0000.0001)                 2.691790288994575E+05,      /* I = 24 */
(PID.TID 0000.0001)                 2.597126963772147E+05,      /* I = 25 */
(PID.TID 0000.0001)                 2.487693460283865E+05,      /* I = 26 */
(PID.TID 0000.0001)                 2.361211699596122E+05,      /* I = 27 */
(PID.TID 0000.0001)                 2.213884732245467E+05,      /* I = 28 */
(PID.TID 0000.0001)                 2.038999045536999E+05,      /* I = 29 */
(PID.TID 0000.0001)                 1.823321598773926E+05,      /* I = 30 */
(PID.TID 0000.0001)                 1.534505834330338E+05,      /* I = 31 */
(PID.TID 0000.0001)     2 @  1.009837800879055E+05,             /* I = 32: 33 */
(PID.TID 0000.0001)                 1.534505834330338E+05,      /* I = 34 */
(PID.TID 0000.0001)                 1.823321598773926E+05,      /* I = 35 */
(PID.TID 0000.0001)                 2.038999045536999E+05,      /* I = 36 */
(PID.TID 0000.0001)                 2.213884732245467E+05,      /* I = 37 */
(PID.TID 0000.0001)                 2.361211699596122E+05,      /* I = 38 */
(PID.TID 0000.0001)                 2.487693460283865E+05,      /* I = 39 */
(PID.TID 0000.0001)                 2.597126963772147E+05,      /* I = 40 */
(PID.TID 0000.0001)                 2.691790288994575E+05,      /* I = 41 */
(PID.TID 0000.0001)                 2.773091043277394E+05,      /* I = 42 */
(PID.TID 0000.0001)                 2.841906470085516E+05,      /* I = 43 */
(PID.TID 0000.0001)                 2.898778860929753E+05,      /* I = 44 */
(PID.TID 0000.0001)                 2.944035815526416E+05,      /* I = 45 */
(PID.TID 0000.0001)                 2.977867909042096E+05,      /* I = 46 */
(PID.TID 0000.0001)                 3.000380090330854E+05,      /* I = 47 */
(PID.TID 0000.0001)     2 @  3.011625828699101E+05,             /* I = 48: 49 */
(PID.TID 0000.0001)                 3.000380090330854E+05,      /* I = 50 */
(PID.TID 0000.0001)                 2.977867909042096E+05,      /* I = 51 */
(PID.TID 0000.0001)                 2.944035815526416E+05,      /* I = 52 */
(PID.TID 0000.0001)                 2.898778860929753E+05,      /* I = 53 */
(PID.TID 0000.0001)                 2.841906470085516E+05,      /* I = 54 */
(PID.TID 0000.0001)                 2.773091043277394E+05,      /* I = 55 */
(PID.TID 0000.0001)                 2.691790288994575E+05,      /* I = 56 */
(PID.TID 0000.0001)                 2.597126963772147E+05,      /* I = 57 */
(PID.TID 0000.0001)                 2.487693460283865E+05,      /* I = 58 */
(PID.TID 0000.0001)                 2.361211699596122E+05,      /* I = 59 */
(PID.TID 0000.0001)                 2.213884732245467E+05,      /* I = 60 */
(PID.TID 0000.0001)                 2.038999045536999E+05,      /* I = 61 */
(PID.TID 0000.0001)                 1.823321598773926E+05,      /* I = 62 */
(PID.TID 0000.0001)                 1.534505834330338E+05,      /* I = 63 */
(PID.TID 0000.0001)     2 @  1.009837800879055E+05,             /* I = 64: 65 */
(PID.TID 0000.0001)                 1.534505834330338E+05,      /* I = 66 */
(PID.TID 0000.0001)                 1.823321598773926E+05,      /* I = 67 */
(PID.TID 0000.0001)                 2.038999045536999E+05,      /* I = 68 */
(PID.TID 0000.0001)                 2.213884732245467E+05,      /* I = 69 */
(PID.TID 0000.0001)                 2.361211699596122E+05,      /* I = 70 */
(PID.TID 0000.0001)                 2.487693460283865E+05,      /* I = 71 */
(PID.TID 0000.0001)                 2.597126963772147E+05,      /* I = 72 */
(PID.TID 0000.0001)                 2.691790288994575E+05,      /* I = 73 */
(PID.TID 0000.0001)                 2.773091043277394E+05,      /* I = 74 */
(PID.TID 0000.0001)                 2.841906470085516E+05,      /* I = 75 */
(PID.TID 0000.0001)                 2.898778860929753E+05,      /* I = 76 */
(PID.TID 0000.0001)                 2.944035815526416E+05,      /* I = 77 */
(PID.TID 0000.0001)                 2.977867909042096E+05,      /* I = 78 */
(PID.TID 0000.0001)                 3.000380090330854E+05,      /* I = 79 */
(PID.TID 0000.0001)     2 @  3.011625828699101E+05,             /* I = 80: 81 */
(PID.TID 0000.0001)                 3.000380090330854E+05,      /* I = 82 */
(PID.TID 0000.0001)                 2.977867909042096E+05,      /* I = 83 */
(PID.TID 0000.0001)                 2.944035815526416E+05,      /* I = 84 */
(PID.TID 0000.0001)                 2.898778860929753E+05,      /* I = 85 */
(PID.TID 0000.0001)                 2.841906470085516E+05,      /* I = 86 */
(PID.TID 0000.0001)                 2.773091043277394E+05,      /* I = 87 */
(PID.TID 0000.0001)                 2.691790288994575E+05,      /* I = 88 */
(PID.TID 0000.0001)                 2.597126963772147E+05,      /* I = 89 */
(PID.TID 0000.0001)                 2.487693460283865E+05,      /* I = 90 */
(PID.TID 0000.0001)                 2.361211699596122E+05,      /* I = 91 */
(PID.TID 0000.0001)                 2.213884732245467E+05,      /* I = 92 */
(PID.TID 0000.0001)                 2.038999045536999E+05,      /* I = 93 */
(PID.TID 0000.0001)                 1.823321598773926E+05,      /* I = 94 */
(PID.TID 0000.0001)                 1.534505834330338E+05,      /* I = 95 */
(PID.TID 0000.0001)     2 @  1.009837800879055E+05,             /* I = 96: 97 */
(PID.TID 0000.0001)                 1.534505834330338E+05,      /* I = 98 */
(PID.TID 0000.0001)                 1.823321598773926E+05,      /* I = 99 */
(PID.TID 0000.0001)                 2.038999045536999E+05,      /* I =100 */
(PID.TID 0000.0001)                 2.213884732245467E+05,      /* I =101 */
(PID.TID 0000.0001)                 2.361211699596122E+05,      /* I =102 */
(PID.TID 0000.0001)                 2.487693460283865E+05,      /* I =103 */
(PID.TID 0000.0001)                 2.597126963772147E+05,      /* I =104 */
(PID.TID 0000.0001)                 2.691790288994575E+05,      /* I =105 */
(PID.TID 0000.0001)                 2.773091043277394E+05,      /* I =106 */
(PID.TID 0000.0001)                 2.841906470085516E+05,      /* I =107 */
(PID.TID 0000.0001)                 2.898778860929753E+05,      /* I =108 */
(PID.TID 0000.0001)                 2.944035815526416E+05,      /* I =109 */
(PID.TID 0000.0001)                 2.977867909042096E+05,      /* I =110 */
(PID.TID 0000.0001)                 3.000380090330854E+05,      /* I =111 */
(PID.TID 0000.0001)     2 @  3.011625828699101E+05,             /* I =112:113 */
(PID.TID 0000.0001)                 3.000380090330854E+05,      /* I =114 */
(PID.TID 0000.0001)                 2.977867909042096E+05,      /* I =115 */
(PID.TID 0000.0001)                 2.944035815526416E+05,      /* I =116 */
(PID.TID 0000.0001)                 2.898778860929753E+05,      /* I =117 */
(PID.TID 0000.0001)                 2.841906470085516E+05,      /* I =118 */
(PID.TID 0000.0001)                 2.773091043277394E+05,      /* I =119 */
(PID.TID 0000.0001)                 2.691790288994575E+05,      /* I =120 */
(PID.TID 0000.0001)                 2.597126963772147E+05,      /* I =121 */
(PID.TID 0000.0001)                 2.487693460283865E+05,      /* I =122 */
(PID.TID 0000.0001)                 2.361211699596122E+05,      /* I =123 */
(PID.TID 0000.0001)                 2.213884732245467E+05,      /* I =124 */
(PID.TID 0000.0001)                 2.038999045536999E+05,      /* I =125 */
(PID.TID 0000.0001)                 1.823321598773926E+05,      /* I =126 */
(PID.TID 0000.0001)                 1.534505834330338E+05,      /* I =127 */
(PID.TID 0000.0001)     2 @  1.009837800879055E+05,             /* I =128:129 */
(PID.TID 0000.0001)                 1.534505834330338E+05,      /* I =130 */
(PID.TID 0000.0001)                 1.823321598773926E+05,      /* I =131 */
(PID.TID 0000.0001)                 2.038999045536999E+05,      /* I =132 */
(PID.TID 0000.0001)                 2.213884732245467E+05,      /* I =133 */
(PID.TID 0000.0001)                 2.361211699596122E+05,      /* I =134 */
(PID.TID 0000.0001)                 2.487693460283865E+05,      /* I =135 */
(PID.TID 0000.0001)                 2.597126963772147E+05,      /* I =136 */
(PID.TID 0000.0001)                 2.691790288994575E+05,      /* I =137 */
(PID.TID 0000.0001)                 2.773091043277394E+05,      /* I =138 */
(PID.TID 0000.0001)                 2.841906470085516E+05,      /* I =139 */
(PID.TID 0000.0001)                 2.898778860929753E+05,      /* I =140 */
(PID.TID 0000.0001)                 2.944035815526416E+05,      /* I =141 */
(PID.TID 0000.0001)                 2.977867909042096E+05,      /* I =142 */
(PID.TID 0000.0001)                 3.000380090330854E+05,      /* I =143 */
(PID.TID 0000.0001)     2 @  3.011625828699101E+05,             /* I =144:145 */
(PID.TID 0000.0001)                 3.000380090330854E+05,      /* I =146 */
(PID.TID 0000.0001)                 2.977867909042096E+05,      /* I =147 */
(PID.TID 0000.0001)                 2.944035815526416E+05,      /* I =148 */
(PID.TID 0000.0001)                 2.898778860929753E+05,      /* I =149 */
(PID.TID 0000.0001)                 2.841906470085516E+05,      /* I =150 */
(PID.TID 0000.0001)                 2.773091043277394E+05,      /* I =151 */
(PID.TID 0000.0001)                 2.691790288994575E+05,      /* I =152 */
(PID.TID 0000.0001)                 2.597126963772147E+05,      /* I =153 */
(PID.TID 0000.0001)                 2.487693460283865E+05,      /* I =154 */
(PID.TID 0000.0001)                 2.361211699596122E+05,      /* I =155 */
(PID.TID 0000.0001)                 2.213884732245467E+05,      /* I =156 */
(PID.TID 0000.0001)                 2.038999045536999E+05,      /* I =157 */
(PID.TID 0000.0001)                 1.823321598773926E+05,      /* I =158 */
(PID.TID 0000.0001)                 1.534505834330338E+05,      /* I =159 */
(PID.TID 0000.0001)     2 @  1.009837800879055E+05,             /* I =160:161 */
(PID.TID 0000.0001)                 1.534505834330338E+05,      /* I =162 */
(PID.TID 0000.0001)                 1.823321598773926E+05,      /* I =163 */
(PID.TID 0000.0001)                 2.038999045536999E+05,      /* I =164 */
(PID.TID 0000.0001)                 2.213884732245467E+05,      /* I =165 */
(PID.TID 0000.0001)                 2.361211699596122E+05,      /* I =166 */
(PID.TID 0000.0001)                 2.487693460283865E+05,      /* I =167 */
(PID.TID 0000.0001)                 2.597126963772147E+05,      /* I =168 */
(PID.TID 0000.0001)                 2.691790288994575E+05,      /* I =169 */
(PID.TID 0000.0001)                 2.773091043277394E+05,      /* I =170 */
(PID.TID 0000.0001)                 2.841906470085516E+05,      /* I =171 */
(PID.TID 0000.0001)                 2.898778860929753E+05,      /* I =172 */
(PID.TID 0000.0001)                 2.944035815526416E+05,      /* I =173 */
(PID.TID 0000.0001)                 2.977867909042096E+05,      /* I =174 */
(PID.TID 0000.0001)                 3.000380090330854E+05,      /* I =175 */
(PID.TID 0000.0001)     2 @  3.011625828699101E+05,             /* I =176:177 */
(PID.TID 0000.0001)                 3.000380090330854E+05,      /* I =178 */
(PID.TID 0000.0001)                 2.977867909042096E+05,      /* I =179 */
(PID.TID 0000.0001)                 2.944035815526416E+05,      /* I =180 */
(PID.TID 0000.0001)                 2.898778860929753E+05,      /* I =181 */
(PID.TID 0000.0001)                 2.841906470085516E+05,      /* I =182 */
(PID.TID 0000.0001)                 2.773091043277394E+05,      /* I =183 */
(PID.TID 0000.0001)                 2.691790288994575E+05,      /* I =184 */
(PID.TID 0000.0001)                 2.597126963772147E+05,      /* I =185 */
(PID.TID 0000.0001)                 2.487693460283865E+05,      /* I =186 */
(PID.TID 0000.0001)                 2.361211699596122E+05,      /* I =187 */
(PID.TID 0000.0001)                 2.213884732245467E+05,      /* I =188 */
(PID.TID 0000.0001)                 2.038999045536999E+05,      /* I =189 */
(PID.TID 0000.0001)                 1.823321598773926E+05,      /* I =190 */
(PID.TID 0000.0001)                 1.534505834330338E+05,      /* I =191 */
(PID.TID 0000.0001)                 1.009837800879055E+05       /* I =192 */
(PID.TID 0000.0001)     ;
(PID.TID 0000.0001) dxG =  /* dxG(1,:,1,:) ( units: m ) */
(PID.TID 0000.0001)                 1.009837800879055E+05,      /* J =  1 */
(PID.TID 0000.0001)                 1.403701524205398E+05,      /* J =  2 */
(PID.TID 0000.0001)                 1.716197227386011E+05,      /* J =  3 */
(PID.TID 0000.0001)                 1.950254041626018E+05,      /* J =  4 */
(PID.TID 0000.0001)                 2.138410773065497E+05,      /* J =  5 */
(PID.TID 0000.0001)                 2.295958105911512E+05,      /* J =  6 */
(PID.TID 0000.0001)                 2.430829951739083E+05,      /* J =  7 */
(PID.TID 0000.0001)                 2.547526806712889E+05,      /* J =  8 */
(PID.TID 0000.0001)                 2.648750305193301E+05,      /* J =  9 */
(PID.TID 0000.0001)                 2.736173771018112E+05,      /* J = 10 */
(PID.TID 0000.0001)                 2.810845823202647E+05,      /* J = 11 */
(PID.TID 0000.0001)                 2.873420591008078E+05,      /* J = 12 */
(PID.TID 0000.0001)                 2.924298293668651E+05,      /* J = 13 */
(PID.TID 0000.0001)                 2.963715635865306E+05,      /* J = 14 */
(PID.TID 0000.0001)                 2.991805843171258E+05,      /* J = 15 */
(PID.TID 0000.0001)                 3.008638765647886E+05,      /* J = 16 */
(PID.TID 0000.0001)                 3.014246674484008E+05,      /* J = 17 */
(PID.TID 0000.0001)                 3.008638765647886E+05,      /* J = 18 */
(PID.TID 0000.0001)                 2.991805843171258E+05,      /* J = 19 */
(PID.TID 0000.0001)                 2.963715635865306E+05,      /* J = 20 */
(PID.TID 0000.0001)                 2.924298293668651E+05,      /* J = 21 */
(PID.TID 0000.0001)                 2.873420591008078E+05,      /* J = 22 */
(PID.TID 0000.0001)                 2.810845823202647E+05,      /* J = 23 */
(PID.TID 0000.0001)                 2.736173771018112E+05,      /* J = 24 */
(PID.TID 0000.0001)                 2.648750305193301E+05,      /* J = 25 */
(PID.TID 0000.0001)                 2.547526806712889E+05,      /* J = 26 */
(PID.TID 0000.0001)                 2.430829951739083E+05,      /* J = 27 */
(PID.TID 0000.0001)                 2.295958105911512E+05,      /* J = 28 */
(PID.TID 0000.0001)                 2.138410773065497E+05,      /* J = 29 */
(PID.TID 0000.0001)                 1.950254041626018E+05,      /* J = 30 */
(PID.TID 0000.0001)                 1.716197227386011E+05,      /* J = 31 */
(PID.TID 0000.0001)                 1.403701524205398E+05       /* J = 32 */
(PID.TID 0000.0001)     ;
(PID.TID 0000.0001) dyG =  /* dyG(:,1,:,1) ( units: m ) */
(PID.TID 0000.0001)                 1.009837800879055E+05,      /* I =  1 */
(PID.TID 0000.0001)                 1.403701524205398E+05,      /* I =  2 */
(PID.TID 0000.0001)                 1.716197227386011E+05,      /* I =  3 */
(PID.TID 0000.0001)                 1.950254041626018E+05,      /* I =  4 */
(PID.TID 0000.0001)                 2.138410773065497E+05,      /* I =  5 */
(PID.TID 0000.0001)                 2.295958105911512E+05,      /* I =  6 */
(PID.TID 0000.0001)                 2.430829951739083E+05,      /* I =  7 */
(PID.TID 0000.0001)                 2.547526806712889E+05,      /* I =  8 */
(PID.TID 0000.0001)                 2.648750305193301E+05,      /* I =  9 */
(PID.TID 0000.0001)                 2.736173771018112E+05,      /* I = 10 */
(PID.TID 0000.0001)                 2.810845823202647E+05,      /* I = 11 */
(PID.TID 0000.0001)                 2.873420591008078E+05,      /* I = 12 */
(PID.TID 0000.0001)                 2.924298293668651E+05,      /* I = 13 */
(PID.TID 0000.0001)                 2.963715635865306E+05,      /* I = 14 */
(PID.TID 0000.0001)                 2.991805843171258E+05,      /* I = 15 */
(PID.TID 0000.0001)                 3.008638765647886E+05,      /* I = 16 */
(PID.TID 0000.0001)                 3.014246674484008E+05,      /* I = 17 */
(PID.TID 0000.0001)                 3.008638765647886E+05,      /* I = 18 */
(PID.TID 0000.0001)                 2.991805843171258E+05,      /* I = 19 */
(PID.TID 0000.0001)                 2.963715635865306E+05,      /* I = 20 */
(PID.TID 0000.0001)                 2.924298293668651E+05,      /* I = 21 */
(PID.TID 0000.0001)                 2.873420591008078E+05,      /* I = 22 */
(PID.TID 0000.0001)                 2.810845823202647E+05,      /* I = 23 */
(PID.TID 0000.0001)                 2.736173771018112E+05,      /* I = 24 */
(PID.TID 0000.0001)                 2.648750305193301E+05,      /* I = 25 */
(PID.TID 0000.0001)                 2.547526806712889E+05,      /* I = 26 */
(PID.TID 0000.0001)                 2.430829951739083E+05,      /* I = 27 */
(PID.TID 0000.0001)                 2.295958105911512E+05,      /* I = 28 */
(PID.TID 0000.0001)                 2.138410773065497E+05,      /* I = 29 */
(PID.TID 0000.0001)                 1.950254041626018E+05,      /* I = 30 */
(PID.TID 0000.0001)                 1.716197227386011E+05,      /* I = 31 */
(PID.TID 0000.0001)                 1.403701524205398E+05,      /* I = 32 */
(PID.TID 0000.0001)                 1.009837800879055E+05,      /* I = 33 */
(PID.TID 0000.0001)                 1.403701524205398E+05,      /* I = 34 */
(PID.TID 0000.0001)                 1.716197227386011E+05,      /* I = 35 */
(PID.TID 0000.0001)                 1.950254041626018E+05,      /* I = 36 */
(PID.TID 0000.0001)                 2.138410773065497E+05,      /* I = 37 */
(PID.TID 0000.0001)                 2.295958105911512E+05,      /* I = 38 */
(PID.TID 0000.0001)                 2.430829951739083E+05,      /* I = 39 */
(PID.TID 0000.0001)                 2.547526806712889E+05,      /* I = 40 */
(PID.TID 0000.0001)                 2.648750305193301E+05,      /* I = 41 */
(PID.TID 0000.0001)                 2.736173771018112E+05,      /* I = 42 */
(PID.TID 0000.0001)                 2.810845823202647E+05,      /* I = 43 */
(PID.TID 0000.0001)                 2.873420591008078E+05,      /* I = 44 */
(PID.TID 0000.0001)                 2.924298293668651E+05,      /* I = 45 */
(PID.TID 0000.0001)                 2.963715635865306E+05,      /* I = 46 */
(PID.TID 0000.0001)                 2.991805843171258E+05,      /* I = 47 */
(PID.TID 0000.0001)                 3.008638765647886E+05,      /* I = 48 */
(PID.TID 0000.0001)                 3.014246674484008E+05,      /* I = 49 */
(PID.TID 0000.0001)                 3.008638765647886E+05,      /* I = 50 */
(PID.TID 0000.0001)                 2.991805843171258E+05,      /* I = 51 */
(PID.TID 0000.0001)                 2.963715635865306E+05,      /* I = 52 */
(PID.TID 0000.0001)                 2.924298293668651E+05,      /* I = 53 */
(PID.TID 0000.0001)                 2.873420591008078E+05,      /* I = 54 */
(PID.TID 0000.0001)                 2.810845823202647E+05,      /* I = 55 */
(PID.TID 0000.0001)                 2.736173771018112E+05,      /* I = 56 */
(PID.TID 0000.0001)                 2.648750305193301E+05,      /* I = 57 */
(PID.TID 0000.0001)                 2.547526806712889E+05,      /* I = 58 */
(PID.TID 0000.0001)                 2.430829951739083E+05,      /* I = 59 */
(PID.TID 0000.0001)                 2.295958105911512E+05,      /* I = 60 */
(PID.TID 0000.0001)                 2.138410773065497E+05,      /* I = 61 */
(PID.TID 0000.0001)                 1.950254041626018E+05,      /* I = 62 */
(PID.TID 0000.0001)                 1.716197227386011E+05,      /* I = 63 */
(PID.TID 0000.0001)                 1.403701524205398E+05,      /* I = 64 */
(PID.TID 0000.0001)                 1.009837800879055E+05,      /* I = 65 */
(PID.TID 0000.0001)                 1.403701524205398E+05,      /* I = 66 */
(PID.TID 0000.0001)                 1.716197227386011E+05,      /* I = 67 */
(PID.TID 0000.0001)                 1.950254041626018E+05,      /* I = 68 */
(PID.TID 0000.0001)                 2.138410773065497E+05,      /* I = 69 */
(PID.TID 0000.0001)                 2.295958105911512E+05,      /* I = 70 */
(PID.TID 0000.0001)                 2.430829951739083E+05,      /* I = 71 */
(PID.TID 0000.0001)                 2.547526806712889E+05,      /* I = 72 */
(PID.TID 0000.0001)                 2.648750305193301E+05,      /* I = 73 */
(PID.TID 0000.0001)                 2.736173771018112E+05,      /* I = 74 */
(PID.TID 0000.0001)                 2.810845823202647E+05,      /* I = 75 */
(PID.TID 0000.0001)                 2.873420591008078E+05,      /* I = 76 */
(PID.TID 0000.0001)                 2.924298293668651E+05,      /* I = 77 */
(PID.TID 0000.0001)                 2.963715635865306E+05,      /* I = 78 */
(PID.TID 0000.0001)                 2.991805843171258E+05,      /* I = 79 */
(PID.TID 0000.0001)                 3.008638765647886E+05,      /* I = 80 */
(PID.TID 0000.0001)                 3.014246674484008E+05,      /* I = 81 */
(PID.TID 0000.0001)                 3.008638765647886E+05,      /* I = 82 */
(PID.TID 0000.0001)                 2.991805843171258E+05,      /* I = 83 */
(PID.TID 0000.0001)                 2.963715635865306E+05,      /* I = 84 */
(PID.TID 0000.0001)                 2.924298293668651E+05,      /* I = 85 */
(PID.TID 0000.0001)                 2.873420591008078E+05,      /* I = 86 */
(PID.TID 0000.0001)                 2.810845823202647E+05,      /* I = 87 */
(PID.TID 0000.0001)                 2.736173771018112E+05,      /* I = 88 */
(PID.TID 0000.0001)                 2.648750305193301E+05,      /* I = 89 */
(PID.TID 0000.0001)                 2.547526806712889E+05,      /* I = 90 */
(PID.TID 0000.0001)                 2.430829951739083E+05,      /* I = 91 */
(PID.TID 0000.0001)                 2.295958105911512E+05,      /* I = 92 */
(PID.TID 0000.0001)                 2.138410773065497E+05,      /* I = 93 */
(PID.TID 0000.0001)                 1.950254041626018E+05,      /* I = 94 */
(PID.TID 0000.0001)                 1.716197227386011E+05,      /* I = 95 */
(PID.TID 0000.0001)                 1.403701524205398E+05,      /* I = 96 */
(PID.TID 0000.0001)                 1.009837800879055E+05,      /* I = 97 */
(PID.TID 0000.0001)                 1.403701524205398E+05,      /* I = 98 */
(PID.TID 0000.0001)                 1.716197227386011E+05,      /* I = 99 */
(PID.TID 0000.0001)                 1.950254041626018E+05,      /* I =100 */
(PID.TID 0000.0001)                 2.138410773065497E+05,      /* I =101 */
(PID.TID 0000.0001)                 2.295958105911512E+05,      /* I =102 */
(PID.TID 0000.0001)                 2.430829951739083E+05,      /* I =103 */
(PID.TID 0000.0001)                 2.547526806712889E+05,      /* I =104 */
(PID.TID 0000.0001)                 2.648750305193301E+05,      /* I =105 */
(PID.TID 0000.0001)                 2.736173771018112E+05,      /* I =106 */
(PID.TID 0000.0001)                 2.810845823202647E+05,      /* I =107 */
(PID.TID 0000.0001)                 2.873420591008078E+05,      /* I =108 */
(PID.TID 0000.0001)                 2.924298293668651E+05,      /* I =109 */
(PID.TID 0000.0001)                 2.963715635865306E+05,      /* I =110 */
(PID.TID 0000.0001)                 2.991805843171258E+05,      /* I =111 */
(PID.TID 0000.0001)                 3.008638765647886E+05,      /* I =112 */
(PID.TID 0000.0001)                 3.014246674484008E+05,      /* I =113 */
(PID.TID 0000.0001)                 3.008638765647886E+05,      /* I =114 */
(PID.TID 0000.0001)                 2.991805843171258E+05,      /* I =115 */
(PID.TID 0000.0001)                 2.963715635865306E+05,      /* I =116 */
(PID.TID 0000.0001)                 2.924298293668651E+05,      /* I =117 */
(PID.TID 0000.0001)                 2.873420591008078E+05,      /* I =118 */
(PID.TID 0000.0001)                 2.810845823202647E+05,      /* I =119 */
(PID.TID 0000.0001)                 2.736173771018112E+05,      /* I =120 */
(PID.TID 0000.0001)                 2.648750305193301E+05,      /* I =121 */
(PID.TID 0000.0001)                 2.547526806712889E+05,      /* I =122 */
(PID.TID 0000.0001)                 2.430829951739083E+05,      /* I =123 */
(PID.TID 0000.0001)                 2.295958105911512E+05,      /* I =124 */
(PID.TID 0000.0001)                 2.138410773065497E+05,      /* I =125 */
(PID.TID 0000.0001)                 1.950254041626018E+05,      /* I =126 */
(PID.TID 0000.0001)                 1.716197227386011E+05,      /* I =127 */
(PID.TID 0000.0001)                 1.403701524205398E+05,      /* I =128 */
(PID.TID 0000.0001)                 1.009837800879055E+05,      /* I =129 */
(PID.TID 0000.0001)                 1.403701524205398E+05,      /* I =130 */
(PID.TID 0000.0001)                 1.716197227386011E+05,      /* I =131 */
(PID.TID 0000.0001)                 1.950254041626018E+05,      /* I =132 */
(PID.TID 0000.0001)                 2.138410773065497E+05,      /* I =133 */
(PID.TID 0000.0001)                 2.295958105911512E+05,      /* I =134 */
(PID.TID 0000.0001)                 2.430829951739083E+05,      /* I =135 */
(PID.TID 0000.0001)                 2.547526806712889E+05,      /* I =136 */
(PID.TID 0000.0001)                 2.648750305193301E+05,      /* I =137 */
(PID.TID 0000.0001)                 2.736173771018112E+05,      /* I =138 */
(PID.TID 0000.0001)                 2.810845823202647E+05,      /* I =139 */
(PID.TID 0000.0001)                 2.873420591008078E+05,      /* I =140 */
(PID.TID 0000.0001)                 2.924298293668651E+05,      /* I =141 */
(PID.TID 0000.0001)                 2.963715635865306E+05,      /* I =142 */
(PID.TID 0000.0001)                 2.991805843171258E+05,      /* I =143 */
(PID.TID 0000.0001)                 3.008638765647886E+05,      /* I =144 */
(PID.TID 0000.0001)                 3.014246674484008E+05,      /* I =145 */
(PID.TID 0000.0001)                 3.008638765647886E+05,      /* I =146 */
(PID.TID 0000.0001)                 2.991805843171258E+05,      /* I =147 */
(PID.TID 0000.0001)                 2.963715635865306E+05,      /* I =148 */
(PID.TID 0000.0001)                 2.924298293668651E+05,      /* I =149 */
(PID.TID 0000.0001)                 2.873420591008078E+05,      /* I =150 */
(PID.TID 0000.0001)                 2.810845823202647E+05,      /* I =151 */
(PID.TID 0000.0001)                 2.736173771018112E+05,      /* I =152 */
(PID.TID 0000.0001)                 2.648750305193301E+05,      /* I =153 */
(PID.TID 0000.0001)                 2.547526806712889E+05,      /* I =154 */
(PID.TID 0000.0001)                 2.430829951739083E+05,      /* I =155 */
(PID.TID 0000.0001)                 2.295958105911512E+05,      /* I =156 */
(PID.TID 0000.0001)                 2.138410773065497E+05,      /* I =157 */
(PID.TID 0000.0001)                 1.950254041626018E+05,      /* I =158 */
(PID.TID 0000.0001)                 1.716197227386011E+05,      /* I =159 */
(PID.TID 0000.0001)                 1.403701524205398E+05,      /* I =160 */
(PID.TID 0000.0001)                 1.009837800879055E+05,      /* I =161 */
(PID.TID 0000.0001)                 1.403701524205398E+05,      /* I =162 */
(PID.TID 0000.0001)                 1.716197227386011E+05,      /* I =163 */
(PID.TID 0000.0001)                 1.950254041626018E+05,      /* I =164 */
(PID.TID 0000.0001)                 2.138410773065497E+05,      /* I =165 */
(PID.TID 0000.0001)                 2.295958105911512E+05,      /* I =166 */
(PID.TID 0000.0001)                 2.430829951739083E+05,      /* I =167 */
(PID.TID 0000.0001)                 2.547526806712889E+05,      /* I =168 */
(PID.TID 0000.0001)                 2.648750305193301E+05,      /* I =169 */
(PID.TID 0000.0001)                 2.736173771018112E+05,      /* I =170 */
(PID.TID 0000.0001)                 2.810845823202647E+05,      /* I =171 */
(PID.TID 0000.0001)                 2.873420591008078E+05,      /* I =172 */
(PID.TID 0000.0001)                 2.924298293668651E+05,      /* I =173 */
(PID.TID 0000.0001)                 2.963715635865306E+05,      /* I =174 */
(PID.TID 0000.0001)                 2.991805843171258E+05,      /* I =175 */
(PID.TID 0000.0001)                 3.008638765647886E+05,      /* I =176 */
(PID.TID 0000.0001)                 3.014246674484008E+05,      /* I =177 */
(PID.TID 0000.0001)                 3.008638765647886E+05,      /* I =178 */
(PID.TID 0000.0001)                 2.991805843171258E+05,      /* I =179 */
(PID.TID 0000.0001)                 2.963715635865306E+05,      /* I =180 */
(PID.TID 0000.0001)                 2.924298293668651E+05,      /* I =181 */
(PID.TID 0000.0001)                 2.873420591008078E+05,      /* I =182 */
(PID.TID 0000.0001)                 2.810845823202647E+05,      /* I =183 */
(PID.TID 0000.0001)                 2.736173771018112E+05,      /* I =184 */
(PID.TID 0000.0001)                 2.648750305193301E+05,      /* I =185 */
(PID.TID 0000.0001)                 2.547526806712889E+05,      /* I =186 */
(PID.TID 0000.0001)                 2.430829951739083E+05,      /* I =187 */
(PID.TID 0000.0001)                 2.295958105911512E+05,      /* I =188 */
(PID.TID 0000.0001)                 2.138410773065497E+05,      /* I =189 */
(PID.TID 0000.0001)                 1.950254041626018E+05,      /* I =190 */
(PID.TID 0000.0001)                 1.716197227386011E+05,      /* I =191 */
(PID.TID 0000.0001)                 1.403701524205398E+05       /* I =192 */
(PID.TID 0000.0001)     ;
(PID.TID 0000.0001) dyG =  /* dyG(1,:,1,:) ( units: m ) */
(PID.TID 0000.0001)                 1.009837800879055E+05,      /* J =  1 */
(PID.TID 0000.0001)                 1.534505834330338E+05,      /* J =  2 */
(PID.TID 0000.0001)                 1.823321598773926E+05,      /* J =  3 */
(PID.TID 0000.0001)                 2.038999045536999E+05,      /* J =  4 */
(PID.TID 0000.0001)                 2.213884732245467E+05,      /* J =  5 */
(PID.TID 0000.0001)                 2.361211699596122E+05,      /* J =  6 */
(PID.TID 0000.0001)                 2.487693460283865E+05,      /* J =  7 */
(PID.TID 0000.0001)                 2.597126963772147E+05,      /* J =  8 */
(PID.TID 0000.0001)                 2.691790288994575E+05,      /* J =  9 */
(PID.TID 0000.0001)                 2.773091043277394E+05,      /* J = 10 */
(PID.TID 0000.0001)                 2.841906470085516E+05,      /* J = 11 */
(PID.TID 0000.0001)                 2.898778860929753E+05,      /* J = 12 */
(PID.TID 0000.0001)                 2.944035815526416E+05,      /* J = 13 */
(PID.TID 0000.0001)                 2.977867909042096E+05,      /* J = 14 */
(PID.TID 0000.0001)                 3.000380090330854E+05,      /* J = 15 */
(PID.TID 0000.0001)     2 @  3.011625828699101E+05,             /* J = 16: 17 */
(PID.TID 0000.0001)                 3.000380090330854E+05,      /* J = 18 */
(PID.TID 0000.0001)                 2.977867909042096E+05,      /* J = 19 */
(PID.TID 0000.0001)                 2.944035815526416E+05,      /* J = 20 */
(PID.TID 0000.0001)                 2.898778860929753E+05,      /* J = 21 */
(PID.TID 0000.0001)                 2.841906470085516E+05,      /* J = 22 */
(PID.TID 0000.0001)                 2.773091043277394E+05,      /* J = 23 */
(PID.TID 0000.0001)                 2.691790288994575E+05,      /* J = 24 */
(PID.TID 0000.0001)                 2.597126963772147E+05,      /* J = 25 */
(PID.TID 0000.0001)                 2.487693460283865E+05,      /* J = 26 */
(PID.TID 0000.0001)                 2.361211699596122E+05,      /* J = 27 */
(PID.TID 0000.0001)                 2.213884732245467E+05,      /* J = 28 */
(PID.TID 0000.0001)                 2.038999045536999E+05,      /* J = 29 */
(PID.TID 0000.0001)                 1.823321598773926E+05,      /* J = 30 */
(PID.TID 0000.0001)                 1.534505834330338E+05,      /* J = 31 */
(PID.TID 0000.0001)                 1.009837800879055E+05       /* J = 32 */
(PID.TID 0000.0001)     ;
(PID.TID 0000.0001) dxC =  /* dxC(:,1,:,1) ( units: m ) */
(PID.TID 0000.0001)                 1.114203141013064E+05,      /* I =  1 */
(PID.TID 0000.0001)                 1.391343389937106E+05,      /* I =  2 */
(PID.TID 0000.0001)                 1.709574999026266E+05,      /* I =  3 */
(PID.TID 0000.0001)                 1.946503699269892E+05,      /* I =  4 */
(PID.TID 0000.0001)                 2.135964483342134E+05,      /* I =  5 */
(PID.TID 0000.0001)                 2.294195678257306E+05,      /* I =  6 */
(PID.TID 0000.0001)                 2.429464709770498E+05,      /* I =  7 */
(PID.TID 0000.0001)                 2.546408290696998E+05,      /* I =  8 */
(PID.TID 0000.0001)                 2.647791839299727E+05,      /* I =  9 */
(PID.TID 0000.0001)                 2.735321911346108E+05,      /* I = 10 */
(PID.TID 0000.0001)                 2.810065951609633E+05,      /* I = 11 */
(PID.TID 0000.0001)                 2.872689479506990E+05,      /* I = 12 */
(PID.TID 0000.0001)                 2.923599955312932E+05,      /* I = 13 */
(PID.TID 0000.0001)                 2.963038832565530E+05,      /* I = 14 */
(PID.TID 0000.0001)                 2.991142470004740E+05,      /* I = 15 */
(PID.TID 0000.0001)                 3.007982711627968E+05,      /* I = 16 */
(PID.TID 0000.0001)                 3.013593857228136E+05,      /* I = 17 */
(PID.TID 0000.0001)                 3.007982711627968E+05,      /* I = 18 */
(PID.TID 0000.0001)                 2.991142470004740E+05,      /* I = 19 */
(PID.TID 0000.0001)                 2.963038832565530E+05,      /* I = 20 */
(PID.TID 0000.0001)                 2.923599955312932E+05,      /* I = 21 */
(PID.TID 0000.0001)                 2.872689479506990E+05,      /* I = 22 */
(PID.TID 0000.0001)                 2.810065951609633E+05,      /* I = 23 */
(PID.TID 0000.0001)                 2.735321911346108E+05,      /* I = 24 */
(PID.TID 0000.0001)                 2.647791839299727E+05,      /* I = 25 */
(PID.TID 0000.0001)                 2.546408290696998E+05,      /* I = 26 */
(PID.TID 0000.0001)                 2.429464709770498E+05,      /* I = 27 */
(PID.TID 0000.0001)                 2.294195678257306E+05,      /* I = 28 */
(PID.TID 0000.0001)                 2.135964483342134E+05,      /* I = 29 */
(PID.TID 0000.0001)                 1.946503699269892E+05,      /* I = 30 */
(PID.TID 0000.0001)                 1.709574999026266E+05,      /* I = 31 */
(PID.TID 0000.0001)                 1.391343389937106E+05,      /* I = 32 */
(PID.TID 0000.0001)                 1.114203141013064E+05,      /* I = 33 */
(PID.TID 0000.0001)                 1.391343389937106E+05,      /* I = 34 */
(PID.TID 0000.0001)                 1.709574999026266E+05,      /* I = 35 */
(PID.TID 0000.0001)                 1.946503699269892E+05,      /* I = 36 */
(PID.TID 0000.0001)                 2.135964483342134E+05,      /* I = 37 */
(PID.TID 0000.0001)                 2.294195678257306E+05,      /* I = 38 */
(PID.TID 0000.0001)                 2.429464709770498E+05,      /* I = 39 */
(PID.TID 0000.0001)                 2.546408290696998E+05,      /* I = 40 */
(PID.TID 0000.0001)                 2.647791839299727E+05,      /* I = 41 */
(PID.TID 0000.0001)                 2.735321911346108E+05,      /* I = 42 */
(PID.TID 0000.0001)                 2.810065951609633E+05,      /* I = 43 */
(PID.TID 0000.0001)                 2.872689479506990E+05,      /* I = 44 */
(PID.TID 0000.0001)                 2.923599955312932E+05,      /* I = 45 */
(PID.TID 0000.0001)                 2.963038832565530E+05,      /* I = 46 */
(PID.TID 0000.0001)                 2.991142470004740E+05,      /* I = 47 */
(PID.TID 0000.0001)                 3.007982711627968E+05,      /* I = 48 */
(PID.TID 0000.0001)                 3.013593857228136E+05,      /* I = 49 */
(PID.TID 0000.0001)                 3.007982711627968E+05,      /* I = 50 */
(PID.TID 0000.0001)                 2.991142470004740E+05,      /* I = 51 */
(PID.TID 0000.0001)                 2.963038832565530E+05,      /* I = 52 */
(PID.TID 0000.0001)                 2.923599955312932E+05,      /* I = 53 */
(PID.TID 0000.0001)                 2.872689479506990E+05,      /* I = 54 */
(PID.TID 0000.0001)                 2.810065951609633E+05,      /* I = 55 */
(PID.TID 0000.0001)                 2.735321911346108E+05,      /* I = 56 */
(PID.TID 0000.0001)                 2.647791839299727E+05,      /* I = 57 */
(PID.TID 0000.0001)                 2.546408290696998E+05,      /* I = 58 */
(PID.TID 0000.0001)                 2.429464709770498E+05,      /* I = 59 */
(PID.TID 0000.0001)                 2.294195678257306E+05,      /* I = 60 */
(PID.TID 0000.0001)                 2.135964483342134E+05,      /* I = 61 */
(PID.TID 0000.0001)                 1.946503699269892E+05,      /* I = 62 */
(PID.TID 0000.0001)                 1.709574999026266E+05,      /* I = 63 */
(PID.TID 0000.0001)                 1.391343389937106E+05,      /* I = 64 */
(PID.TID 0000.0001)                 1.114203141013064E+05,      /* I = 65 */
(PID.TID 0000.0001)                 1.391343389937106E+05,      /* I = 66 */
(PID.TID 0000.0001)                 1.709574999026266E+05,      /* I = 67 */
(PID.TID 0000.0001)                 1.946503699269892E+05,      /* I = 68 */
(PID.TID 0000.0001)                 2.135964483342134E+05,      /* I = 69 */
(PID.TID 0000.0001)                 2.294195678257306E+05,      /* I = 70 */
(PID.TID 0000.0001)                 2.429464709770498E+05,      /* I = 71 */
(PID.TID 0000.0001)                 2.546408290696998E+05,      /* I = 72 */
(PID.TID 0000.0001)                 2.647791839299727E+05,      /* I = 73 */
(PID.TID 0000.0001)                 2.735321911346108E+05,      /* I = 74 */
(PID.TID 0000.0001)                 2.810065951609633E+05,      /* I = 75 */
(PID.TID 0000.0001)                 2.872689479506990E+05,      /* I = 76 */
(PID.TID 0000.0001)                 2.923599955312932E+05,      /* I = 77 */
(PID.TID 0000.0001)                 2.963038832565530E+05,      /* I = 78 */
(PID.TID 0000.0001)                 2.991142470004740E+05,      /* I = 79 */
(PID.TID 0000.0001)                 3.007982711627968E+05,      /* I = 80 */
(PID.TID 0000.0001)                 3.013593857228136E+05,      /* I = 81 */
(PID.TID 0000.0001)                 3.007982711627968E+05,      /* I = 82 */
(PID.TID 0000.0001)                 2.991142470004740E+05,      /* I = 83 */
(PID.TID 0000.0001)                 2.963038832565530E+05,      /* I = 84 */
(PID.TID 0000.0001)                 2.923599955312932E+05,      /* I = 85 */
(PID.TID 0000.0001)                 2.872689479506990E+05,      /* I = 86 */
(PID.TID 0000.0001)                 2.810065951609633E+05,      /* I = 87 */
(PID.TID 0000.0001)                 2.735321911346108E+05,      /* I = 88 */
(PID.TID 0000.0001)                 2.647791839299727E+05,      /* I = 89 */
(PID.TID 0000.0001)                 2.546408290696998E+05,      /* I = 90 */
(PID.TID 0000.0001)                 2.429464709770498E+05,      /* I = 91 */
(PID.TID 0000.0001)                 2.294195678257306E+05,      /* I = 92 */
(PID.TID 0000.0001)                 2.135964483342134E+05,      /* I = 93 */
(PID.TID 0000.0001)                 1.946503699269892E+05,      /* I = 94 */
(PID.TID 0000.0001)                 1.709574999026266E+05,      /* I = 95 */
(PID.TID 0000.0001)                 1.391343389937106E+05,      /* I = 96 */
(PID.TID 0000.0001)                 1.114203141013064E+05,      /* I = 97 */
(PID.TID 0000.0001)                 1.391343389937106E+05,      /* I = 98 */
(PID.TID 0000.0001)                 1.709574999026266E+05,      /* I = 99 */
(PID.TID 0000.0001)                 1.946503699269892E+05,      /* I =100 */
(PID.TID 0000.0001)                 2.135964483342134E+05,      /* I =101 */
(PID.TID 0000.0001)                 2.294195678257306E+05,      /* I =102 */
(PID.TID 0000.0001)                 2.429464709770498E+05,      /* I =103 */
(PID.TID 0000.0001)                 2.546408290696998E+05,      /* I =104 */
(PID.TID 0000.0001)                 2.647791839299727E+05,      /* I =105 */
(PID.TID 0000.0001)                 2.735321911346108E+05,      /* I =106 */
(PID.TID 0000.0001)                 2.810065951609633E+05,      /* I =107 */
(PID.TID 0000.0001)                 2.872689479506990E+05,      /* I =108 */
(PID.TID 0000.0001)                 2.923599955312932E+05,      /* I =109 */
(PID.TID 0000.0001)                 2.963038832565530E+05,      /* I =110 */
(PID.TID 0000.0001)                 2.991142470004740E+05,      /* I =111 */
(PID.TID 0000.0001)                 3.007982711627968E+05,      /* I =112 */
(PID.TID 0000.0001)                 3.013593857228136E+05,      /* I =113 */
(PID.TID 0000.0001)                 3.007982711627968E+05,      /* I =114 */
(PID.TID 0000.0001)                 2.991142470004740E+05,      /* I =115 */
(PID.TID 0000.0001)                 2.963038832565530E+05,      /* I =116 */
(PID.TID 0000.0001)                 2.923599955312932E+05,      /* I =117 */
(PID.TID 0000.0001)                 2.872689479506990E+05,      /* I =118 */
(PID.TID 0000.0001)                 2.810065951609633E+05,      /* I =119 */
(PID.TID 0000.0001)                 2.735321911346108E+05,      /* I =120 */
(PID.TID 0000.0001)                 2.647791839299727E+05,      /* I =121 */
(PID.TID 0000.0001)                 2.546408290696998E+05,      /* I =122 */
(PID.TID 0000.0001)                 2.429464709770498E+05,      /* I =123 */
(PID.TID 0000.0001)                 2.294195678257306E+05,      /* I =124 */
(PID.TID 0000.0001)                 2.135964483342134E+05,      /* I =125 */
(PID.TID 0000.0001)                 1.946503699269892E+05,      /* I =126 */
(PID.TID 0000.0001)                 1.709574999026266E+05,      /* I =127 */
(PID.TID 0000.0001)                 1.391343389937106E+05,      /* I =128 */
(PID.TID 0000.0001)                 1.114203141013064E+05,      /* I =129 */
(PID.TID 0000.0001)                 1.391343389937106E+05,      /* I =130 */
(PID.TID 0000.0001)                 1.709574999026266E+05,      /* I =131 */
(PID.TID 0000.0001)                 1.946503699269892E+05,      /* I =132 */
(PID.TID 0000.0001)                 2.135964483342134E+05,      /* I =133 */
(PID.TID 0000.0001)                 2.294195678257306E+05,      /* I =134 */
(PID.TID 0000.0001)                 2.429464709770498E+05,      /* I =135 */
(PID.TID 0000.0001)                 2.546408290696998E+05,      /* I =136 */
(PID.TID 0000.0001)                 2.647791839299727E+05,      /* I =137 */
(PID.TID 0000.0001)                 2.735321911346108E+05,      /* I =138 */
(PID.TID 0000.0001)                 2.810065951609633E+05,      /* I =139 */
(PID.TID 0000.0001)                 2.872689479506990E+05,      /* I =140 */
(PID.TID 0000.0001)                 2.923599955312932E+05,      /* I =141 */
(PID.TID 0000.0001)                 2.963038832565530E+05,      /* I =142 */
(PID.TID 0000.0001)                 2.991142470004740E+05,      /* I =143 */
(PID.TID 0000.0001)                 3.007982711627968E+05,      /* I =144 */
(PID.TID 0000.0001)                 3.013593857228136E+05,      /* I =145 */
(PID.TID 0000.0001)                 3.007982711627968E+05,      /* I =146 */
(PID.TID 0000.0001)                 2.991142470004740E+05,      /* I =147 */
(PID.TID 0000.0001)                 2.963038832565530E+05,      /* I =148 */
(PID.TID 0000.0001)                 2.923599955312932E+05,      /* I =149 */
(PID.TID 0000.0001)                 2.872689479506990E+05,      /* I =150 */
(PID.TID 0000.0001)                 2.810065951609633E+05,      /* I =151 */
(PID.TID 0000.0001)                 2.735321911346108E+05,      /* I =152 */
(PID.TID 0000.0001)                 2.647791839299727E+05,      /* I =153 */
(PID.TID 0000.0001)                 2.546408290696998E+05,      /* I =154 */
(PID.TID 0000.0001)                 2.429464709770498E+05,      /* I =155 */
(PID.TID 0000.0001)                 2.294195678257306E+05,      /* I =156 */
(PID.TID 0000.0001)                 2.135964483342134E+05,      /* I =157 */
(PID.TID 0000.0001)                 1.946503699269892E+05,      /* I =158 */
(PID.TID 0000.0001)                 1.709574999026266E+05,      /* I =159 */
(PID.TID 0000.0001)                 1.391343389937106E+05,      /* I =160 */
(PID.TID 0000.0001)                 1.114203141013064E+05,      /* I =161 */
(PID.TID 0000.0001)                 1.391343389937106E+05,      /* I =162 */
(PID.TID 0000.0001)                 1.709574999026266E+05,      /* I =163 */
(PID.TID 0000.0001)                 1.946503699269892E+05,      /* I =164 */
(PID.TID 0000.0001)                 2.135964483342134E+05,      /* I =165 */
(PID.TID 0000.0001)                 2.294195678257306E+05,      /* I =166 */
(PID.TID 0000.0001)                 2.429464709770498E+05,      /* I =167 */
(PID.TID 0000.0001)                 2.546408290696998E+05,      /* I =168 */
(PID.TID 0000.0001)                 2.647791839299727E+05,      /* I =169 */
(PID.TID 0000.0001)                 2.735321911346108E+05,      /* I =170 */
(PID.TID 0000.0001)                 2.810065951609633E+05,      /* I =171 */
(PID.TID 0000.0001)                 2.872689479506990E+05,      /* I =172 */
(PID.TID 0000.0001)                 2.923599955312932E+05,      /* I =173 */
(PID.TID 0000.0001)                 2.963038832565530E+05,      /* I =174 */
(PID.TID 0000.0001)                 2.991142470004740E+05,      /* I =175 */
(PID.TID 0000.0001)                 3.007982711627968E+05,      /* I =176 */
(PID.TID 0000.0001)                 3.013593857228136E+05,      /* I =177 */
(PID.TID 0000.0001)                 3.007982711627968E+05,      /* I =178 */
(PID.TID 0000.0001)                 2.991142470004740E+05,      /* I =179 */
(PID.TID 0000.0001)                 2.963038832565530E+05,      /* I =180 */
(PID.TID 0000.0001)                 2.923599955312932E+05,      /* I =181 */
(PID.TID 0000.0001)                 2.872689479506990E+05,      /* I =182 */
(PID.TID 0000.0001)                 2.810065951609633E+05,      /* I =183 */
(PID.TID 0000.0001)                 2.735321911346108E+05,      /* I =184 */
(PID.TID 0000.0001)                 2.647791839299727E+05,      /* I =185 */
(PID.TID 0000.0001)                 2.546408290696998E+05,      /* I =186 */
(PID.TID 0000.0001)                 2.429464709770498E+05,      /* I =187 */
(PID.TID 0000.0001)                 2.294195678257306E+05,      /* I =188 */
(PID.TID 0000.0001)                 2.135964483342134E+05,      /* I =189 */
(PID.TID 0000.0001)                 1.946503699269892E+05,      /* I =190 */
(PID.TID 0000.0001)                 1.709574999026266E+05,      /* I =191 */
(PID.TID 0000.0001)                 1.391343389937106E+05       /* I =192 */
(PID.TID 0000.0001)     ;
(PID.TID 0000.0001) dxC =  /* dxC(1,:,1,:) ( units: m ) */
(PID.TID 0000.0001)                 1.114203141013064E+05,      /* J =  1 */
(PID.TID 0000.0001)                 1.549545757850771E+05,      /* J =  2 */
(PID.TID 0000.0001)                 1.829777599966776E+05,      /* J =  3 */
(PID.TID 0000.0001)                 2.042717761866506E+05,      /* J =  4 */
(PID.TID 0000.0001)                 2.216367828252819E+05,      /* J =  5 */
(PID.TID 0000.0001)                 2.363029564123586E+05,      /* J =  6 */
(PID.TID 0000.0001)                 2.489113743322025E+05,      /* J =  7 */
(PID.TID 0000.0001)                 2.598293319150326E+05,      /* J =  8 */
(PID.TID 0000.0001)                 2.692787333338535E+05,      /* J =  9 */
(PID.TID 0000.0001)                 2.773972106720365E+05,      /* J = 10 */
(PID.TID 0000.0001)                 2.842706922224557E+05,      /* J = 11 */
(PID.TID 0000.0001)                 2.899523122489403E+05,      /* J = 12 */
(PID.TID 0000.0001)                 2.944741346384699E+05,      /* J = 13 */
(PID.TID 0000.0001)                 2.978547649292580E+05,      /* J = 14 */
(PID.TID 0000.0001)                 3.001044073506459E+05,      /* J = 15 */
(PID.TID 0000.0001)     2 @  3.012281885409289E+05,             /* J = 16: 17 */
(PID.TID 0000.0001)                 3.001044073506459E+05,      /* J = 18 */
(PID.TID 0000.0001)                 2.978547649292580E+05,      /* J = 19 */
(PID.TID 0000.0001)                 2.944741346384699E+05,      /* J = 20 */
(PID.TID 0000.0001)                 2.899523122489403E+05,      /* J = 21 */
(PID.TID 0000.0001)                 2.842706922224557E+05,      /* J = 22 */
(PID.TID 0000.0001)                 2.773972106720365E+05,      /* J = 23 */
(PID.TID 0000.0001)                 2.692787333338535E+05,      /* J = 24 */
(PID.TID 0000.0001)                 2.598293319150326E+05,      /* J = 25 */
(PID.TID 0000.0001)                 2.489113743322025E+05,      /* J = 26 */
(PID.TID 0000.0001)                 2.363029564123586E+05,      /* J = 27 */
(PID.TID 0000.0001)                 2.216367828252819E+05,      /* J = 28 */
(PID.TID 0000.0001)                 2.042717761866506E+05,      /* J = 29 */
(PID.TID 0000.0001)                 1.829777599966776E+05,      /* J = 30 */
(PID.TID 0000.0001)                 1.549545757850771E+05,      /* J = 31 */
(PID.TID 0000.0001)                 1.114203141013064E+05       /* J = 32 */
(PID.TID 0000.0001)     ;
(PID.TID 0000.0001) dyC =  /* dyC(:,1,:,1) ( units: m ) */
(PID.TID 0000.0001)                 1.114203141013064E+05,      /* I =  1 */
(PID.TID 0000.0001)                 1.549545757850771E+05,      /* I =  2 */
(PID.TID 0000.0001)                 1.829777599966776E+05,      /* I =  3 */
(PID.TID 0000.0001)                 2.042717761866506E+05,      /* I =  4 */
(PID.TID 0000.0001)                 2.216367828252819E+05,      /* I =  5 */
(PID.TID 0000.0001)                 2.363029564123586E+05,      /* I =  6 */
(PID.TID 0000.0001)                 2.489113743322025E+05,      /* I =  7 */
(PID.TID 0000.0001)                 2.598293319150326E+05,      /* I =  8 */
(PID.TID 0000.0001)                 2.692787333338535E+05,      /* I =  9 */
(PID.TID 0000.0001)                 2.773972106720365E+05,      /* I = 10 */
(PID.TID 0000.0001)                 2.842706922224557E+05,      /* I = 11 */
(PID.TID 0000.0001)                 2.899523122489403E+05,      /* I = 12 */
(PID.TID 0000.0001)                 2.944741346384699E+05,      /* I = 13 */
(PID.TID 0000.0001)                 2.978547649292580E+05,      /* I = 14 */
(PID.TID 0000.0001)                 3.001044073506459E+05,      /* I = 15 */
(PID.TID 0000.0001)     2 @  3.012281885409289E+05,             /* I = 16: 17 */
(PID.TID 0000.0001)                 3.001044073506459E+05,      /* I = 18 */
(PID.TID 0000.0001)                 2.978547649292580E+05,      /* I = 19 */
(PID.TID 0000.0001)                 2.944741346384699E+05,      /* I = 20 */
(PID.TID 0000.0001)                 2.899523122489403E+05,      /* I = 21 */
(PID.TID 0000.0001)                 2.842706922224557E+05,      /* I = 22 */
(PID.TID 0000.0001)                 2.773972106720365E+05,      /* I = 23 */
(PID.TID 0000.0001)                 2.692787333338535E+05,      /* I = 24 */
(PID.TID 0000.0001)                 2.598293319150326E+05,      /* I = 25 */
(PID.TID 0000.0001)                 2.489113743322025E+05,      /* I = 26 */
(PID.TID 0000.0001)                 2.363029564123586E+05,      /* I = 27 */
(PID.TID 0000.0001)                 2.216367828252819E+05,      /* I = 28 */
(PID.TID 0000.0001)                 2.042717761866506E+05,      /* I = 29 */
(PID.TID 0000.0001)                 1.829777599966776E+05,      /* I = 30 */
(PID.TID 0000.0001)                 1.549545757850771E+05,      /* I = 31 */
(PID.TID 0000.0001)     2 @  1.114203141013064E+05,             /* I = 32: 33 */
(PID.TID 0000.0001)                 1.549545757850771E+05,      /* I = 34 */
(PID.TID 0000.0001)                 1.829777599966776E+05,      /* I = 35 */
(PID.TID 0000.0001)                 2.042717761866506E+05,      /* I = 36 */
(PID.TID 0000.0001)                 2.216367828252819E+05,      /* I = 37 */
(PID.TID 0000.0001)                 2.363029564123586E+05,      /* I = 38 */
(PID.TID 0000.0001)                 2.489113743322025E+05,      /* I = 39 */
(PID.TID 0000.0001)                 2.598293319150326E+05,      /* I = 40 */
(PID.TID 0000.0001)                 2.692787333338535E+05,      /* I = 41 */
(PID.TID 0000.0001)                 2.773972106720365E+05,      /* I = 42 */
(PID.TID 0000.0001)                 2.842706922224557E+05,      /* I = 43 */
(PID.TID 0000.0001)                 2.899523122489403E+05,      /* I = 44 */
(PID.TID 0000.0001)                 2.944741346384699E+05,      /* I = 45 */
(PID.TID 0000.0001)                 2.978547649292580E+05,      /* I = 46 */
(PID.TID 0000.0001)                 3.001044073506459E+05,      /* I = 47 */
(PID.TID 0000.0001)     2 @  3.012281885409289E+05,             /* I = 48: 49 */
(PID.TID 0000.0001)                 3.001044073506459E+05,      /* I = 50 */
(PID.TID 0000.0001)                 2.978547649292580E+05,      /* I = 51 */
(PID.TID 0000.0001)                 2.944741346384699E+05,      /* I = 52 */
(PID.TID 0000.0001)                 2.899523122489403E+05,      /* I = 53 */
(PID.TID 0000.0001)                 2.842706922224557E+05,      /* I = 54 */
(PID.TID 0000.0001)                 2.773972106720365E+05,      /* I = 55 */
(PID.TID 0000.0001)                 2.692787333338535E+05,      /* I = 56 */
(PID.TID 0000.0001)                 2.598293319150326E+05,      /* I = 57 */
(PID.TID 0000.0001)                 2.489113743322025E+05,      /* I = 58 */
(PID.TID 0000.0001)                 2.363029564123586E+05,      /* I = 59 */
(PID.TID 0000.0001)                 2.216367828252819E+05,      /* I = 60 */
(PID.TID 0000.0001)                 2.042717761866506E+05,      /* I = 61 */
(PID.TID 0000.0001)                 1.829777599966776E+05,      /* I = 62 */
(PID.TID 0000.0001)                 1.549545757850771E+05,      /* I = 63 */
(PID.TID 0000.0001)     2 @  1.114203141013064E+05,             /* I = 64: 65 */
(PID.TID 0000.0001)                 1.549545757850771E+05,      /* I = 66 */
(PID.TID 0000.0001)                 1.829777599966776E+05,      /* I = 67 */
(PID.TID 0000.0001)                 2.042717761866506E+05,      /* I = 68 */
(PID.TID 0000.0001)                 2.216367828252819E+05,      /* I = 69 */
(PID.TID 0000.0001)                 2.363029564123586E+05,      /* I = 70 */
(PID.TID 0000.0001)                 2.489113743322025E+05,      /* I = 71 */
(PID.TID 0000.0001)                 2.598293319150326E+05,      /* I = 72 */
(PID.TID 0000.0001)                 2.692787333338535E+05,      /* I = 73 */
(PID.TID 0000.0001)                 2.773972106720365E+05,      /* I = 74 */
(PID.TID 0000.0001)                 2.842706922224557E+05,      /* I = 75 */
(PID.TID 0000.0001)                 2.899523122489403E+05,      /* I = 76 */
(PID.TID 0000.0001)                 2.944741346384699E+05,      /* I = 77 */
(PID.TID 0000.0001)                 2.978547649292580E+05,      /* I = 78 */
(PID.TID 0000.0001)                 3.001044073506459E+05,      /* I = 79 */
(PID.TID 0000.0001)     2 @  3.012281885409289E+05,             /* I = 80: 81 */
(PID.TID 0000.0001)                 3.001044073506459E+05,      /* I = 82 */
(PID.TID 0000.0001)                 2.978547649292580E+05,      /* I = 83 */
(PID.TID 0000.0001)                 2.944741346384699E+05,      /* I = 84 */
(PID.TID 0000.0001)                 2.899523122489403E+05,      /* I = 85 */
(PID.TID 0000.0001)                 2.842706922224557E+05,      /* I = 86 */
(PID.TID 0000.0001)                 2.773972106720365E+05,      /* I = 87 */
(PID.TID 0000.0001)                 2.692787333338535E+05,      /* I = 88 */
(PID.TID 0000.0001)                 2.598293319150326E+05,      /* I = 89 */
(PID.TID 0000.0001)                 2.489113743322025E+05,      /* I = 90 */
(PID.TID 0000.0001)                 2.363029564123586E+05,      /* I = 91 */
(PID.TID 0000.0001)                 2.216367828252819E+05,      /* I = 92 */
(PID.TID 0000.0001)                 2.042717761866506E+05,      /* I = 93 */
(PID.TID 0000.0001)                 1.829777599966776E+05,      /* I = 94 */
(PID.TID 0000.0001)                 1.549545757850771E+05,      /* I = 95 */
(PID.TID 0000.0001)     2 @  1.114203141013064E+05,             /* I = 96: 97 */
(PID.TID 0000.0001)                 1.549545757850771E+05,      /* I = 98 */
(PID.TID 0000.0001)                 1.829777599966776E+05,      /* I = 99 */
(PID.TID 0000.0001)                 2.042717761866506E+05,      /* I =100 */
(PID.TID 0000.0001)                 2.216367828252819E+05,      /* I =101 */
(PID.TID 0000.0001)                 2.363029564123586E+05,      /* I =102 */
(PID.TID 0000.0001)                 2.489113743322025E+05,      /* I =103 */
(PID.TID 0000.0001)                 2.598293319150326E+05,      /* I =104 */
(PID.TID 0000.0001)                 2.692787333338535E+05,      /* I =105 */
(PID.TID 0000.0001)                 2.773972106720365E+05,      /* I =106 */
(PID.TID 0000.0001)                 2.842706922224557E+05,      /* I =107 */
(PID.TID 0000.0001)                 2.899523122489403E+05,      /* I =108 */
(PID.TID 0000.0001)                 2.944741346384699E+05,      /* I =109 */
(PID.TID 0000.0001)                 2.978547649292580E+05,      /* I =110 */
(PID.TID 0000.0001)                 3.001044073506459E+05,      /* I =111 */
(PID.TID 0000.0001)     2 @  3.012281885409289E+05,             /* I =112:113 */
(PID.TID 0000.0001)                 3.001044073506459E+05,      /* I =114 */
(PID.TID 0000.0001)                 2.978547649292580E+05,      /* I =115 */
(PID.TID 0000.0001)                 2.944741346384699E+05,      /* I =116 */
(PID.TID 0000.0001)                 2.899523122489403E+05,      /* I =117 */
(PID.TID 0000.0001)                 2.842706922224557E+05,      /* I =118 */
(PID.TID 0000.0001)                 2.773972106720365E+05,      /* I =119 */
(PID.TID 0000.0001)                 2.692787333338535E+05,      /* I =120 */
(PID.TID 0000.0001)                 2.598293319150326E+05,      /* I =121 */
(PID.TID 0000.0001)                 2.489113743322025E+05,      /* I =122 */
(PID.TID 0000.0001)                 2.363029564123586E+05,      /* I =123 */
(PID.TID 0000.0001)                 2.216367828252819E+05,      /* I =124 */
(PID.TID 0000.0001)                 2.042717761866506E+05,      /* I =125 */
(PID.TID 0000.0001)                 1.829777599966776E+05,      /* I =126 */
(PID.TID 0000.0001)                 1.549545757850771E+05,      /* I =127 */
(PID.TID 0000.0001)     2 @  1.114203141013064E+05,             /* I =128:129 */
(PID.TID 0000.0001)                 1.549545757850771E+05,      /* I =130 */
(PID.TID 0000.0001)                 1.829777599966776E+05,      /* I =131 */
(PID.TID 0000.0001)                 2.042717761866506E+05,      /* I =132 */
(PID.TID 0000.0001)                 2.216367828252819E+05,      /* I =133 */
(PID.TID 0000.0001)                 2.363029564123586E+05,      /* I =134 */
(PID.TID 0000.0001)                 2.489113743322025E+05,      /* I =135 */
(PID.TID 0000.0001)                 2.598293319150326E+05,      /* I =136 */
(PID.TID 0000.0001)                 2.692787333338535E+05,      /* I =137 */
(PID.TID 0000.0001)                 2.773972106720365E+05,      /* I =138 */
(PID.TID 0000.0001)                 2.842706922224557E+05,      /* I =139 */
(PID.TID 0000.0001)                 2.899523122489403E+05,      /* I =140 */
(PID.TID 0000.0001)                 2.944741346384699E+05,      /* I =141 */
(PID.TID 0000.0001)                 2.978547649292580E+05,      /* I =142 */
(PID.TID 0000.0001)                 3.001044073506459E+05,      /* I =143 */
(PID.TID 0000.0001)     2 @  3.012281885409289E+05,             /* I =144:145 */
(PID.TID 0000.0001)                 3.001044073506459E+05,      /* I =146 */
(PID.TID 0000.0001)                 2.978547649292580E+05,      /* I =147 */
(PID.TID 0000.0001)                 2.944741346384699E+05,      /* I =148 */
(PID.TID 0000.0001)                 2.899523122489403E+05,      /* I =149 */
(PID.TID 0000.0001)                 2.842706922224557E+05,      /* I =150 */
(PID.TID 0000.0001)                 2.773972106720365E+05,      /* I =151 */
(PID.TID 0000.0001)                 2.692787333338535E+05,      /* I =152 */
(PID.TID 0000.0001)                 2.598293319150326E+05,      /* I =153 */
(PID.TID 0000.0001)                 2.489113743322025E+05,      /* I =154 */
(PID.TID 0000.0001)                 2.363029564123586E+05,      /* I =155 */
(PID.TID 0000.0001)                 2.216367828252819E+05,      /* I =156 */
(PID.TID 0000.0001)                 2.042717761866506E+05,      /* I =157 */
(PID.TID 0000.0001)                 1.829777599966776E+05,      /* I =158 */
(PID.TID 0000.0001)                 1.549545757850771E+05,      /* I =159 */
(PID.TID 0000.0001)     2 @  1.114203141013064E+05,             /* I =160:161 */
(PID.TID 0000.0001)                 1.549545757850771E+05,      /* I =162 */
(PID.TID 0000.0001)                 1.829777599966776E+05,      /* I =163 */
(PID.TID 0000.0001)                 2.042717761866506E+05,      /* I =164 */
(PID.TID 0000.0001)                 2.216367828252819E+05,      /* I =165 */
(PID.TID 0000.0001)                 2.363029564123586E+05,      /* I =166 */
(PID.TID 0000.0001)                 2.489113743322025E+05,      /* I =167 */
(PID.TID 0000.0001)                 2.598293319150326E+05,      /* I =168 */
(PID.TID 0000.0001)                 2.692787333338535E+05,      /* I =169 */
(PID.TID 0000.0001)                 2.773972106720365E+05,      /* I =170 */
(PID.TID 0000.0001)                 2.842706922224557E+05,      /* I =171 */
(PID.TID 0000.0001)                 2.899523122489403E+05,      /* I =172 */
(PID.TID 0000.0001)                 2.944741346384699E+05,      /* I =173 */
(PID.TID 0000.0001)                 2.978547649292580E+05,      /* I =174 */
(PID.TID 0000.0001)                 3.001044073506459E+05,      /* I =175 */
(PID.TID 0000.0001)     2 @  3.012281885409289E+05,             /* I =176:177 */
(PID.TID 0000.0001)                 3.001044073506459E+05,      /* I =178 */
(PID.TID 0000.0001)                 2.978547649292580E+05,      /* I =179 */
(PID.TID 0000.0001)                 2.944741346384699E+05,      /* I =180 */
(PID.TID 0000.0001)                 2.899523122489403E+05,      /* I =181 */
(PID.TID 0000.0001)                 2.842706922224557E+05,      /* I =182 */
(PID.TID 0000.0001)                 2.773972106720365E+05,      /* I =183 */
(PID.TID 0000.0001)                 2.692787333338535E+05,      /* I =184 */
(PID.TID 0000.0001)                 2.598293319150326E+05,      /* I =185 */
(PID.TID 0000.0001)                 2.489113743322025E+05,      /* I =186 */
(PID.TID 0000.0001)                 2.363029564123586E+05,      /* I =187 */
(PID.TID 0000.0001)                 2.216367828252819E+05,      /* I =188 */
(PID.TID 0000.0001)                 2.042717761866506E+05,      /* I =189 */
(PID.TID 0000.0001)                 1.829777599966776E+05,      /* I =190 */
(PID.TID 0000.0001)                 1.549545757850771E+05,      /* I =191 */
(PID.TID 0000.0001)                 1.114203141013064E+05       /* I =192 */
(PID.TID 0000.0001)     ;
(PID.TID 0000.0001) dyC =  /* dyC(1,:,1,:) ( units: m ) */
(PID.TID 0000.0001)                 1.114203141013064E+05,      /* J =  1 */
(PID.TID 0000.0001)                 1.391343389937106E+05,      /* J =  2 */
(PID.TID 0000.0001)                 1.709574999026266E+05,      /* J =  3 */
(PID.TID 0000.0001)                 1.946503699269892E+05,      /* J =  4 */
(PID.TID 0000.0001)                 2.135964483342134E+05,      /* J =  5 */
(PID.TID 0000.0001)                 2.294195678257306E+05,      /* J =  6 */
(PID.TID 0000.0001)                 2.429464709770498E+05,      /* J =  7 */
(PID.TID 0000.0001)                 2.546408290696998E+05,      /* J =  8 */
(PID.TID 0000.0001)                 2.647791839299727E+05,      /* J =  9 */
(PID.TID 0000.0001)                 2.735321911346108E+05,      /* J = 10 */
(PID.TID 0000.0001)                 2.810065951609633E+05,      /* J = 11 */
(PID.TID 0000.0001)                 2.872689479506990E+05,      /* J = 12 */
(PID.TID 0000.0001)                 2.923599955312932E+05,      /* J = 13 */
(PID.TID 0000.0001)                 2.963038832565530E+05,      /* J = 14 */
(PID.TID 0000.0001)                 2.991142470004740E+05,      /* J = 15 */
(PID.TID 0000.0001)                 3.007982711627968E+05,      /* J = 16 */
(PID.TID 0000.0001)                 3.013593857228136E+05,      /* J = 17 */
(PID.TID 0000.0001)                 3.007982711627968E+05,      /* J = 18 */
(PID.TID 0000.0001)                 2.991142470004740E+05,      /* J = 19 */
(PID.TID 0000.0001)                 2.963038832565530E+05,      /* J = 20 */
(PID.TID 0000.0001)                 2.923599955312932E+05,      /* J = 21 */
(PID.TID 0000.0001)                 2.872689479506990E+05,      /* J = 22 */
(PID.TID 0000.0001)                 2.810065951609633E+05,      /* J = 23 */
(PID.TID 0000.0001)                 2.735321911346108E+05,      /* J = 24 */
(PID.TID 0000.0001)                 2.647791839299727E+05,      /* J = 25 */
(PID.TID 0000.0001)                 2.546408290696998E+05,      /* J = 26 */
(PID.TID 0000.0001)                 2.429464709770498E+05,      /* J = 27 */
(PID.TID 0000.0001)                 2.294195678257306E+05,      /* J = 28 */
(PID.TID 0000.0001)                 2.135964483342134E+05,      /* J = 29 */
(PID.TID 0000.0001)                 1.946503699269892E+05,      /* J = 30 */
(PID.TID 0000.0001)                 1.709574999026266E+05,      /* J = 31 */
(PID.TID 0000.0001)                 1.391343389937106E+05       /* J = 32 */
(PID.TID 0000.0001)     ;
(PID.TID 0000.0001) dxV =  /* dxV(:,1,:,1) ( units: m ) */
(PID.TID 0000.0001)                 8.015229982413632E+04,      /* I =  1 */
(PID.TID 0000.0001)                 1.333130744933864E+05,      /* I =  2 */
(PID.TID 0000.0001)                 1.691744868129062E+05,      /* I =  3 */
(PID.TID 0000.0001)                 1.937548202849060E+05,      /* I =  4 */
(PID.TID 0000.0001)                 2.130490056267208E+05,      /* I =  5 */
(PID.TID 0000.0001)                 2.290479919481738E+05,      /* I =  6 */
(PID.TID 0000.0001)                 2.426774358027003E+05,      /* I =  7 */
(PID.TID 0000.0001)                 2.544372984215561E+05,      /* I =  8 */
(PID.TID 0000.0001)                 2.646201463834826E+05,      /* I =  9 */
(PID.TID 0000.0001)                 2.734046499619031E+05,      /* I = 10 */
(PID.TID 0000.0001)                 2.809019351693761E+05,      /* I = 11 */
(PID.TID 0000.0001)                 2.871811105274442E+05,      /* I = 12 */
(PID.TID 0000.0001)                 2.922844849381675E+05,      /* I = 13 */
(PID.TID 0000.0001)                 2.962371870847826E+05,      /* I = 14 */
(PID.TID 0000.0001)                 2.990534755671296E+05,      /* I = 15 */
(PID.TID 0000.0001)                 3.007409169495504E+05,      /* I = 16 */
(PID.TID 0000.0001)                 3.013031486919771E+05,      /* I = 17 */
(PID.TID 0000.0001)                 3.007409169495504E+05,      /* I = 18 */
(PID.TID 0000.0001)                 2.990534755671296E+05,      /* I = 19 */
(PID.TID 0000.0001)                 2.962371870847826E+05,      /* I = 20 */
(PID.TID 0000.0001)                 2.922844849381675E+05,      /* I = 21 */
(PID.TID 0000.0001)                 2.871811105274442E+05,      /* I = 22 */
(PID.TID 0000.0001)                 2.809019351693761E+05,      /* I = 23 */
(PID.TID 0000.0001)                 2.734046499619031E+05,      /* I = 24 */
(PID.TID 0000.0001)                 2.646201463834826E+05,      /* I = 25 */
(PID.TID 0000.0001)                 2.544372984215561E+05,      /* I = 26 */
(PID.TID 0000.0001)                 2.426774358027003E+05,      /* I = 27 */
(PID.TID 0000.0001)                 2.290479919481738E+05,      /* I = 28 */
(PID.TID 0000.0001)                 2.130490056267208E+05,      /* I = 29 */
(PID.TID 0000.0001)                 1.937548202849060E+05,      /* I = 30 */
(PID.TID 0000.0001)                 1.691744868129062E+05,      /* I = 31 */
(PID.TID 0000.0001)                 1.333130744933864E+05,      /* I = 32 */
(PID.TID 0000.0001)                 8.015229982413632E+04,      /* I = 33 */
(PID.TID 0000.0001)                 1.333130744933864E+05,      /* I = 34 */
(PID.TID 0000.0001)                 1.691744868129062E+05,      /* I = 35 */
(PID.TID 0000.0001)                 1.937548202849060E+05,      /* I = 36 */
(PID.TID 0000.0001)                 2.130490056267208E+05,      /* I = 37 */
(PID.TID 0000.0001)                 2.290479919481738E+05,      /* I = 38 */
(PID.TID 0000.0001)                 2.426774358027003E+05,      /* I = 39 */
(PID.TID 0000.0001)                 2.544372984215561E+05,      /* I = 40 */
(PID.TID 0000.0001)                 2.646201463834826E+05,      /* I = 41 */
(PID.TID 0000.0001)                 2.734046499619031E+05,      /* I = 42 */
(PID.TID 0000.0001)                 2.809019351693761E+05,      /* I = 43 */
(PID.TID 0000.0001)                 2.871811105274442E+05,      /* I = 44 */
(PID.TID 0000.0001)                 2.922844849381675E+05,      /* I = 45 */
(PID.TID 0000.0001)                 2.962371870847826E+05,      /* I = 46 */
(PID.TID 0000.0001)                 2.990534755671296E+05,      /* I = 47 */
(PID.TID 0000.0001)                 3.007409169495504E+05,      /* I = 48 */
(PID.TID 0000.0001)                 3.013031486919771E+05,      /* I = 49 */
(PID.TID 0000.0001)                 3.007409169495504E+05,      /* I = 50 */
(PID.TID 0000.0001)                 2.990534755671296E+05,      /* I = 51 */
(PID.TID 0000.0001)                 2.962371870847826E+05,      /* I = 52 */
(PID.TID 0000.0001)                 2.922844849381675E+05,      /* I = 53 */
(PID.TID 0000.0001)                 2.871811105274442E+05,      /* I = 54 */
(PID.TID 0000.0001)                 2.809019351693761E+05,      /* I = 55 */
(PID.TID 0000.0001)                 2.734046499619031E+05,      /* I = 56 */
(PID.TID 0000.0001)                 2.646201463834826E+05,      /* I = 57 */
(PID.TID 0000.0001)                 2.544372984215561E+05,      /* I = 58 */
(PID.TID 0000.0001)                 2.426774358027003E+05,      /* I = 59 */
(PID.TID 0000.0001)                 2.290479919481738E+05,      /* I = 60 */
(PID.TID 0000.0001)                 2.130490056267208E+05,      /* I = 61 */
(PID.TID 0000.0001)                 1.937548202849060E+05,      /* I = 62 */
(PID.TID 0000.0001)                 1.691744868129062E+05,      /* I = 63 */
(PID.TID 0000.0001)                 1.333130744933864E+05,      /* I = 64 */
(PID.TID 0000.0001)                 8.015229982413632E+04,      /* I = 65 */
(PID.TID 0000.0001)                 1.333130744933864E+05,      /* I = 66 */
(PID.TID 0000.0001)                 1.691744868129062E+05,      /* I = 67 */
(PID.TID 0000.0001)                 1.937548202849060E+05,      /* I = 68 */
(PID.TID 0000.0001)                 2.130490056267208E+05,      /* I = 69 */
(PID.TID 0000.0001)                 2.290479919481738E+05,      /* I = 70 */
(PID.TID 0000.0001)                 2.426774358027003E+05,      /* I = 71 */
(PID.TID 0000.0001)                 2.544372984215561E+05,      /* I = 72 */
(PID.TID 0000.0001)                 2.646201463834826E+05,      /* I = 73 */
(PID.TID 0000.0001)                 2.734046499619031E+05,      /* I = 74 */
(PID.TID 0000.0001)                 2.809019351693761E+05,      /* I = 75 */
(PID.TID 0000.0001)                 2.871811105274442E+05,      /* I = 76 */
(PID.TID 0000.0001)                 2.922844849381675E+05,      /* I = 77 */
(PID.TID 0000.0001)                 2.962371870847826E+05,      /* I = 78 */
(PID.TID 0000.0001)                 2.990534755671296E+05,      /* I = 79 */
(PID.TID 0000.0001)                 3.007409169495504E+05,      /* I = 80 */
(PID.TID 0000.0001)                 3.013031486919771E+05,      /* I = 81 */
(PID.TID 0000.0001)                 3.007409169495504E+05,      /* I = 82 */
(PID.TID 0000.0001)                 2.990534755671296E+05,      /* I = 83 */
(PID.TID 0000.0001)                 2.962371870847826E+05,      /* I = 84 */
(PID.TID 0000.0001)                 2.922844849381675E+05,      /* I = 85 */
(PID.TID 0000.0001)                 2.871811105274442E+05,      /* I = 86 */
(PID.TID 0000.0001)                 2.809019351693761E+05,      /* I = 87 */
(PID.TID 0000.0001)                 2.734046499619031E+05,      /* I = 88 */
(PID.TID 0000.0001)                 2.646201463834826E+05,      /* I = 89 */
(PID.TID 0000.0001)                 2.544372984215561E+05,      /* I = 90 */
(PID.TID 0000.0001)                 2.426774358027003E+05,      /* I = 91 */
(PID.TID 0000.0001)                 2.290479919481738E+05,      /* I = 92 */
(PID.TID 0000.0001)                 2.130490056267208E+05,      /* I = 93 */
(PID.TID 0000.0001)                 1.937548202849060E+05,      /* I = 94 */
(PID.TID 0000.0001)                 1.691744868129062E+05,      /* I = 95 */
(PID.TID 0000.0001)                 1.333130744933864E+05,      /* I = 96 */
(PID.TID 0000.0001)                 8.015229982413632E+04,      /* I = 97 */
(PID.TID 0000.0001)                 1.333130744933864E+05,      /* I = 98 */
(PID.TID 0000.0001)                 1.691744868129062E+05,      /* I = 99 */
(PID.TID 0000.0001)                 1.937548202849060E+05,      /* I =100 */
(PID.TID 0000.0001)                 2.130490056267208E+05,      /* I =101 */
(PID.TID 0000.0001)                 2.290479919481738E+05,      /* I =102 */
(PID.TID 0000.0001)                 2.426774358027003E+05,      /* I =103 */
(PID.TID 0000.0001)                 2.544372984215561E+05,      /* I =104 */
(PID.TID 0000.0001)                 2.646201463834826E+05,      /* I =105 */
(PID.TID 0000.0001)                 2.734046499619031E+05,      /* I =106 */
(PID.TID 0000.0001)                 2.809019351693761E+05,      /* I =107 */
(PID.TID 0000.0001)                 2.871811105274442E+05,      /* I =108 */
(PID.TID 0000.0001)                 2.922844849381675E+05,      /* I =109 */
(PID.TID 0000.0001)                 2.962371870847826E+05,      /* I =110 */
(PID.TID 0000.0001)                 2.990534755671296E+05,      /* I =111 */
(PID.TID 0000.0001)                 3.007409169495504E+05,      /* I =112 */
(PID.TID 0000.0001)                 3.013031486919771E+05,      /* I =113 */
(PID.TID 0000.0001)                 3.007409169495504E+05,      /* I =114 */
(PID.TID 0000.0001)                 2.990534755671296E+05,      /* I =115 */
(PID.TID 0000.0001)                 2.962371870847826E+05,      /* I =116 */
(PID.TID 0000.0001)                 2.922844849381675E+05,      /* I =117 */
(PID.TID 0000.0001)                 2.871811105274442E+05,      /* I =118 */
(PID.TID 0000.0001)                 2.809019351693761E+05,      /* I =119 */
(PID.TID 0000.0001)                 2.734046499619031E+05,      /* I =120 */
(PID.TID 0000.0001)                 2.646201463834826E+05,      /* I =121 */
(PID.TID 0000.0001)                 2.544372984215561E+05,      /* I =122 */
(PID.TID 0000.0001)                 2.426774358027003E+05,      /* I =123 */
(PID.TID 0000.0001)                 2.290479919481738E+05,      /* I =124 */
(PID.TID 0000.0001)                 2.130490056267208E+05,      /* I =125 */
(PID.TID 0000.0001)                 1.937548202849060E+05,      /* I =126 */
(PID.TID 0000.0001)                 1.691744868129062E+05,      /* I =127 */
(PID.TID 0000.0001)                 1.333130744933864E+05,      /* I =128 */
(PID.TID 0000.0001)                 8.015229982413632E+04,      /* I =129 */
(PID.TID 0000.0001)                 1.333130744933864E+05,      /* I =130 */
(PID.TID 0000.0001)                 1.691744868129062E+05,      /* I =131 */
(PID.TID 0000.0001)                 1.937548202849060E+05,      /* I =132 */
(PID.TID 0000.0001)                 2.130490056267208E+05,      /* I =133 */
(PID.TID 0000.0001)                 2.290479919481738E+05,      /* I =134 */
(PID.TID 0000.0001)                 2.426774358027003E+05,      /* I =135 */
(PID.TID 0000.0001)                 2.544372984215561E+05,      /* I =136 */
(PID.TID 0000.0001)                 2.646201463834826E+05,      /* I =137 */
(PID.TID 0000.0001)                 2.734046499619031E+05,      /* I =138 */
(PID.TID 0000.0001)                 2.809019351693761E+05,      /* I =139 */
(PID.TID 0000.0001)                 2.871811105274442E+05,      /* I =140 */
(PID.TID 0000.0001)                 2.922844849381675E+05,      /* I =141 */
(PID.TID 0000.0001)                 2.962371870847826E+05,      /* I =142 */
(PID.TID 0000.0001)                 2.990534755671296E+05,      /* I =143 */
(PID.TID 0000.0001)                 3.007409169495504E+05,      /* I =144 */
(PID.TID 0000.0001)                 3.013031486919771E+05,      /* I =145 */
(PID.TID 0000.0001)                 3.007409169495504E+05,      /* I =146 */
(PID.TID 0000.0001)                 2.990534755671296E+05,      /* I =147 */
(PID.TID 0000.0001)                 2.962371870847826E+05,      /* I =148 */
(PID.TID 0000.0001)                 2.922844849381675E+05,      /* I =149 */
(PID.TID 0000.0001)                 2.871811105274442E+05,      /* I =150 */
(PID.TID 0000.0001)                 2.809019351693761E+05,      /* I =151 */
(PID.TID 0000.0001)                 2.734046499619031E+05,      /* I =152 */
(PID.TID 0000.0001)                 2.646201463834826E+05,      /* I =153 */
(PID.TID 0000.0001)                 2.544372984215561E+05,      /* I =154 */
(PID.TID 0000.0001)                 2.426774358027003E+05,      /* I =155 */
(PID.TID 0000.0001)                 2.290479919481738E+05,      /* I =156 */
(PID.TID 0000.0001)                 2.130490056267208E+05,      /* I =157 */
(PID.TID 0000.0001)                 1.937548202849060E+05,      /* I =158 */
(PID.TID 0000.0001)                 1.691744868129062E+05,      /* I =159 */
(PID.TID 0000.0001)                 1.333130744933864E+05,      /* I =160 */
(PID.TID 0000.0001)                 8.015229982413632E+04,      /* I =161 */
(PID.TID 0000.0001)                 1.333130744933864E+05,      /* I =162 */
(PID.TID 0000.0001)                 1.691744868129062E+05,      /* I =163 */
(PID.TID 0000.0001)                 1.937548202849060E+05,      /* I =164 */
(PID.TID 0000.0001)                 2.130490056267208E+05,      /* I =165 */
(PID.TID 0000.0001)                 2.290479919481738E+05,      /* I =166 */
(PID.TID 0000.0001)                 2.426774358027003E+05,      /* I =167 */
(PID.TID 0000.0001)                 2.544372984215561E+05,      /* I =168 */
(PID.TID 0000.0001)                 2.646201463834826E+05,      /* I =169 */
(PID.TID 0000.0001)                 2.734046499619031E+05,      /* I =170 */
(PID.TID 0000.0001)                 2.809019351693761E+05,      /* I =171 */
(PID.TID 0000.0001)                 2.871811105274442E+05,      /* I =172 */
(PID.TID 0000.0001)                 2.922844849381675E+05,      /* I =173 */
(PID.TID 0000.0001)                 2.962371870847826E+05,      /* I =174 */
(PID.TID 0000.0001)                 2.990534755671296E+05,      /* I =175 */
(PID.TID 0000.0001)                 3.007409169495504E+05,      /* I =176 */
(PID.TID 0000.0001)                 3.013031486919771E+05,      /* I =177 */
(PID.TID 0000.0001)                 3.007409169495504E+05,      /* I =178 */
(PID.TID 0000.0001)                 2.990534755671296E+05,      /* I =179 */
(PID.TID 0000.0001)                 2.962371870847826E+05,      /* I =180 */
(PID.TID 0000.0001)                 2.922844849381675E+05,      /* I =181 */
(PID.TID 0000.0001)                 2.871811105274442E+05,      /* I =182 */
(PID.TID 0000.0001)                 2.809019351693761E+05,      /* I =183 */
(PID.TID 0000.0001)                 2.734046499619031E+05,      /* I =184 */
(PID.TID 0000.0001)                 2.646201463834826E+05,      /* I =185 */
(PID.TID 0000.0001)                 2.544372984215561E+05,      /* I =186 */
(PID.TID 0000.0001)                 2.426774358027003E+05,      /* I =187 */
(PID.TID 0000.0001)                 2.290479919481738E+05,      /* I =188 */
(PID.TID 0000.0001)                 2.130490056267208E+05,      /* I =189 */
(PID.TID 0000.0001)                 1.937548202849060E+05,      /* I =190 */
(PID.TID 0000.0001)                 1.691744868129062E+05,      /* I =191 */
(PID.TID 0000.0001)                 1.333130744933864E+05       /* I =192 */
(PID.TID 0000.0001)     ;
(PID.TID 0000.0001) dxV =  /* dxV(1,:,1,:) ( units: m ) */
(PID.TID 0000.0001)                 8.015229982413632E+04,      /* J =  1 */
(PID.TID 0000.0001)                 1.362652340208229E+05,      /* J =  2 */
(PID.TID 0000.0001)                 1.701080315742101E+05,      /* J =  3 */
(PID.TID 0000.0001)                 1.942331448101592E+05,      /* J =  4 */
(PID.TID 0000.0001)                 2.133486626971531E+05,      /* J =  5 */
(PID.TID 0000.0001)                 2.292584591272880E+05,      /* J =  6 */
(PID.TID 0000.0001)                 2.428369969078989E+05,      /* J =  7 */
(PID.TID 0000.0001)                 2.545652950875683E+05,      /* J =  8 */
(PID.TID 0000.0001)                 2.647274964828301E+05,      /* J =  9 */
(PID.TID 0000.0001)                 2.734980225206389E+05,      /* J = 10 */
(PID.TID 0000.0001)                 2.809856491525217E+05,      /* J = 11 */
(PID.TID 0000.0001)                 2.872580915202295E+05,      /* J = 12 */
(PID.TID 0000.0001)                 2.923567890694162E+05,      /* J = 13 */
(PID.TID 0000.0001)                 2.963063101754721E+05,      /* J = 14 */
(PID.TID 0000.0001)                 2.991205495886625E+05,      /* J = 15 */
(PID.TID 0000.0001)                 3.008068453676764E+05,      /* J = 16 */
(PID.TID 0000.0001)                 3.013686170436881E+05,      /* J = 17 */
(PID.TID 0000.0001)                 3.008068453676764E+05,      /* J = 18 */
(PID.TID 0000.0001)                 2.991205495886625E+05,      /* J = 19 */
(PID.TID 0000.0001)                 2.963063101754721E+05,      /* J = 20 */
(PID.TID 0000.0001)                 2.923567890694162E+05,      /* J = 21 */
(PID.TID 0000.0001)                 2.872580915202295E+05,      /* J = 22 */
(PID.TID 0000.0001)                 2.809856491525217E+05,      /* J = 23 */
(PID.TID 0000.0001)                 2.734980225206389E+05,      /* J = 24 */
(PID.TID 0000.0001)                 2.647274964828301E+05,      /* J = 25 */
(PID.TID 0000.0001)                 2.545652950875683E+05,      /* J = 26 */
(PID.TID 0000.0001)                 2.428369969078989E+05,      /* J = 27 */
(PID.TID 0000.0001)                 2.292584591272880E+05,      /* J = 28 */
(PID.TID 0000.0001)                 2.133486626971531E+05,      /* J = 29 */
(PID.TID 0000.0001)                 1.942331448101592E+05,      /* J = 30 */
(PID.TID 0000.0001)                 1.701080315742101E+05,      /* J = 31 */
(PID.TID 0000.0001)                 1.362652340208229E+05       /* J = 32 */
(PID.TID 0000.0001)     ;
(PID.TID 0000.0001) dyU =  /* dyU(:,1,:,1) ( units: m ) */
(PID.TID 0000.0001)                 8.015229982413632E+04,      /* I =  1 */
(PID.TID 0000.0001)                 1.362652340208229E+05,      /* I =  2 */
(PID.TID 0000.0001)                 1.701080315742101E+05,      /* I =  3 */
(PID.TID 0000.0001)                 1.942331448101592E+05,      /* I =  4 */
(PID.TID 0000.0001)                 2.133486626971531E+05,      /* I =  5 */
(PID.TID 0000.0001)                 2.292584591272880E+05,      /* I =  6 */
(PID.TID 0000.0001)                 2.428369969078989E+05,      /* I =  7 */
(PID.TID 0000.0001)                 2.545652950875683E+05,      /* I =  8 */
(PID.TID 0000.0001)                 2.647274964828301E+05,      /* I =  9 */
(PID.TID 0000.0001)                 2.734980225206389E+05,      /* I = 10 */
(PID.TID 0000.0001)                 2.809856491525217E+05,      /* I = 11 */
(PID.TID 0000.0001)                 2.872580915202295E+05,      /* I = 12 */
(PID.TID 0000.0001)                 2.923567890694162E+05,      /* I = 13 */
(PID.TID 0000.0001)                 2.963063101754721E+05,      /* I = 14 */
(PID.TID 0000.0001)                 2.991205495886625E+05,      /* I = 15 */
(PID.TID 0000.0001)                 3.008068453676764E+05,      /* I = 16 */
(PID.TID 0000.0001)                 3.013686170436881E+05,      /* I = 17 */
(PID.TID 0000.0001)                 3.008068453676764E+05,      /* I = 18 */
(PID.TID 0000.0001)                 2.991205495886625E+05,      /* I = 19 */
(PID.TID 0000.0001)                 2.963063101754721E+05,      /* I = 20 */
(PID.TID 0000.0001)                 2.923567890694162E+05,      /* I = 21 */
(PID.TID 0000.0001)                 2.872580915202295E+05,      /* I = 22 */
(PID.TID 0000.0001)                 2.809856491525217E+05,      /* I = 23 */
(PID.TID 0000.0001)                 2.734980225206389E+05,      /* I = 24 */
(PID.TID 0000.0001)                 2.647274964828301E+05,      /* I = 25 */
(PID.TID 0000.0001)                 2.545652950875683E+05,      /* I = 26 */
(PID.TID 0000.0001)                 2.428369969078989E+05,      /* I = 27 */
(PID.TID 0000.0001)                 2.292584591272880E+05,      /* I = 28 */
(PID.TID 0000.0001)                 2.133486626971531E+05,      /* I = 29 */
(PID.TID 0000.0001)                 1.942331448101592E+05,      /* I = 30 */
(PID.TID 0000.0001)                 1.701080315742101E+05,      /* I = 31 */
(PID.TID 0000.0001)                 1.362652340208229E+05,      /* I = 32 */
(PID.TID 0000.0001)                 8.015229982413632E+04,      /* I = 33 */
(PID.TID 0000.0001)                 1.362652340208229E+05,      /* I = 34 */
(PID.TID 0000.0001)                 1.701080315742101E+05,      /* I = 35 */
(PID.TID 0000.0001)                 1.942331448101592E+05,      /* I = 36 */
(PID.TID 0000.0001)                 2.133486626971531E+05,      /* I = 37 */
(PID.TID 0000.0001)                 2.292584591272880E+05,      /* I = 38 */
(PID.TID 0000.0001)                 2.428369969078989E+05,      /* I = 39 */
(PID.TID 0000.0001)                 2.545652950875683E+05,      /* I = 40 */
(PID.TID 0000.0001)                 2.647274964828301E+05,      /* I = 41 */
(PID.TID 0000.0001)                 2.734980225206389E+05,      /* I = 42 */
(PID.TID 0000.0001)                 2.809856491525217E+05,      /* I = 43 */
(PID.TID 0000.0001)                 2.872580915202295E+05,      /* I = 44 */
(PID.TID 0000.0001)                 2.923567890694162E+05,      /* I = 45 */
(PID.TID 0000.0001)                 2.963063101754721E+05,      /* I = 46 */
(PID.TID 0000.0001)                 2.991205495886625E+05,      /* I = 47 */
(PID.TID 0000.0001)                 3.008068453676764E+05,      /* I = 48 */
(PID.TID 0000.0001)                 3.013686170436881E+05,      /* I = 49 */
(PID.TID 0000.0001)                 3.008068453676764E+05,      /* I = 50 */
(PID.TID 0000.0001)                 2.991205495886625E+05,      /* I = 51 */
(PID.TID 0000.0001)                 2.963063101754721E+05,      /* I = 52 */
(PID.TID 0000.0001)                 2.923567890694162E+05,      /* I = 53 */
(PID.TID 0000.0001)                 2.872580915202295E+05,      /* I = 54 */
(PID.TID 0000.0001)                 2.809856491525217E+05,      /* I = 55 */
(PID.TID 0000.0001)                 2.734980225206389E+05,      /* I = 56 */
(PID.TID 0000.0001)                 2.647274964828301E+05,      /* I = 57 */
(PID.TID 0000.0001)                 2.545652950875683E+05,      /* I = 58 */
(PID.TID 0000.0001)                 2.428369969078989E+05,      /* I = 59 */
(PID.TID 0000.0001)                 2.292584591272880E+05,      /* I = 60 */
(PID.TID 0000.0001)                 2.133486626971531E+05,      /* I = 61 */
(PID.TID 0000.0001)                 1.942331448101592E+05,      /* I = 62 */
(PID.TID 0000.0001)                 1.701080315742101E+05,      /* I = 63 */
(PID.TID 0000.0001)                 1.362652340208229E+05,      /* I = 64 */
(PID.TID 0000.0001)                 8.015229982413632E+04,      /* I = 65 */
(PID.TID 0000.0001)                 1.362652340208229E+05,      /* I = 66 */
(PID.TID 0000.0001)                 1.701080315742101E+05,      /* I = 67 */
(PID.TID 0000.0001)                 1.942331448101592E+05,      /* I = 68 */
(PID.TID 0000.0001)                 2.133486626971531E+05,      /* I = 69 */
(PID.TID 0000.0001)                 2.292584591272880E+05,      /* I = 70 */
(PID.TID 0000.0001)                 2.428369969078989E+05,      /* I = 71 */
(PID.TID 0000.0001)                 2.545652950875683E+05,      /* I = 72 */
(PID.TID 0000.0001)                 2.647274964828301E+05,      /* I = 73 */
(PID.TID 0000.0001)                 2.734980225206389E+05,      /* I = 74 */
(PID.TID 0000.0001)                 2.809856491525217E+05,      /* I = 75 */
(PID.TID 0000.0001)                 2.872580915202295E+05,      /* I = 76 */
(PID.TID 0000.0001)                 2.923567890694162E+05,      /* I = 77 */
(PID.TID 0000.0001)                 2.963063101754721E+05,      /* I = 78 */
(PID.TID 0000.0001)                 2.991205495886625E+05,      /* I = 79 */
(PID.TID 0000.0001)                 3.008068453676764E+05,      /* I = 80 */
(PID.TID 0000.0001)                 3.013686170436881E+05,      /* I = 81 */
(PID.TID 0000.0001)                 3.008068453676764E+05,      /* I = 82 */
(PID.TID 0000.0001)                 2.991205495886625E+05,      /* I = 83 */
(PID.TID 0000.0001)                 2.963063101754721E+05,      /* I = 84 */
(PID.TID 0000.0001)                 2.923567890694162E+05,      /* I = 85 */
(PID.TID 0000.0001)                 2.872580915202295E+05,      /* I = 86 */
(PID.TID 0000.0001)                 2.809856491525217E+05,      /* I = 87 */
(PID.TID 0000.0001)                 2.734980225206389E+05,      /* I = 88 */
(PID.TID 0000.0001)                 2.647274964828301E+05,      /* I = 89 */
(PID.TID 0000.0001)                 2.545652950875683E+05,      /* I = 90 */
(PID.TID 0000.0001)                 2.428369969078989E+05,      /* I = 91 */
(PID.TID 0000.0001)                 2.292584591272880E+05,      /* I = 92 */
(PID.TID 0000.0001)                 2.133486626971531E+05,      /* I = 93 */
(PID.TID 0000.0001)                 1.942331448101592E+05,      /* I = 94 */
(PID.TID 0000.0001)                 1.701080315742101E+05,      /* I = 95 */
(PID.TID 0000.0001)                 1.362652340208229E+05,      /* I = 96 */
(PID.TID 0000.0001)                 8.015229982413632E+04,      /* I = 97 */
(PID.TID 0000.0001)                 1.362652340208229E+05,      /* I = 98 */
(PID.TID 0000.0001)                 1.701080315742101E+05,      /* I = 99 */
(PID.TID 0000.0001)                 1.942331448101592E+05,      /* I =100 */
(PID.TID 0000.0001)                 2.133486626971531E+05,      /* I =101 */
(PID.TID 0000.0001)                 2.292584591272880E+05,      /* I =102 */
(PID.TID 0000.0001)                 2.428369969078989E+05,      /* I =103 */
(PID.TID 0000.0001)                 2.545652950875683E+05,      /* I =104 */
(PID.TID 0000.0001)                 2.647274964828301E+05,      /* I =105 */
(PID.TID 0000.0001)                 2.734980225206389E+05,      /* I =106 */
(PID.TID 0000.0001)                 2.809856491525217E+05,      /* I =107 */
(PID.TID 0000.0001)                 2.872580915202295E+05,      /* I =108 */
(PID.TID 0000.0001)                 2.923567890694162E+05,      /* I =109 */
(PID.TID 0000.0001)                 2.963063101754721E+05,      /* I =110 */
(PID.TID 0000.0001)                 2.991205495886625E+05,      /* I =111 */
(PID.TID 0000.0001)                 3.008068453676764E+05,      /* I =112 */
(PID.TID 0000.0001)                 3.013686170436881E+05,      /* I =113 */
(PID.TID 0000.0001)                 3.008068453676764E+05,      /* I =114 */
(PID.TID 0000.0001)                 2.991205495886625E+05,      /* I =115 */
(PID.TID 0000.0001)                 2.963063101754721E+05,      /* I =116 */
(PID.TID 0000.0001)                 2.923567890694162E+05,      /* I =117 */
(PID.TID 0000.0001)                 2.872580915202295E+05,      /* I =118 */
(PID.TID 0000.0001)                 2.809856491525217E+05,      /* I =119 */
(PID.TID 0000.0001)                 2.734980225206389E+05,      /* I =120 */
(PID.TID 0000.0001)                 2.647274964828301E+05,      /* I =121 */
(PID.TID 0000.0001)                 2.545652950875683E+05,      /* I =122 */
(PID.TID 0000.0001)                 2.428369969078989E+05,      /* I =123 */
(PID.TID 0000.0001)                 2.292584591272880E+05,      /* I =124 */
(PID.TID 0000.0001)                 2.133486626971531E+05,      /* I =125 */
(PID.TID 0000.0001)                 1.942331448101592E+05,      /* I =126 */
(PID.TID 0000.0001)                 1.701080315742101E+05,      /* I =127 */
(PID.TID 0000.0001)                 1.362652340208229E+05,      /* I =128 */
(PID.TID 0000.0001)                 8.015229982413632E+04,      /* I =129 */
(PID.TID 0000.0001)                 1.362652340208229E+05,      /* I =130 */
(PID.TID 0000.0001)                 1.701080315742101E+05,      /* I =131 */
(PID.TID 0000.0001)                 1.942331448101592E+05,      /* I =132 */
(PID.TID 0000.0001)                 2.133486626971531E+05,      /* I =133 */
(PID.TID 0000.0001)                 2.292584591272880E+05,      /* I =134 */
(PID.TID 0000.0001)                 2.428369969078989E+05,      /* I =135 */
(PID.TID 0000.0001)                 2.545652950875683E+05,      /* I =136 */
(PID.TID 0000.0001)                 2.647274964828301E+05,      /* I =137 */
(PID.TID 0000.0001)                 2.734980225206389E+05,      /* I =138 */
(PID.TID 0000.0001)                 2.809856491525217E+05,      /* I =139 */
(PID.TID 0000.0001)                 2.872580915202295E+05,      /* I =140 */
(PID.TID 0000.0001)                 2.923567890694162E+05,      /* I =141 */
(PID.TID 0000.0001)                 2.963063101754721E+05,      /* I =142 */
(PID.TID 0000.0001)                 2.991205495886625E+05,      /* I =143 */
(PID.TID 0000.0001)                 3.008068453676764E+05,      /* I =144 */
(PID.TID 0000.0001)                 3.013686170436881E+05,      /* I =145 */
(PID.TID 0000.0001)                 3.008068453676764E+05,      /* I =146 */
(PID.TID 0000.0001)                 2.991205495886625E+05,      /* I =147 */
(PID.TID 0000.0001)                 2.963063101754721E+05,      /* I =148 */
(PID.TID 0000.0001)                 2.923567890694162E+05,      /* I =149 */
(PID.TID 0000.0001)                 2.872580915202295E+05,      /* I =150 */
(PID.TID 0000.0001)                 2.809856491525217E+05,      /* I =151 */
(PID.TID 0000.0001)                 2.734980225206389E+05,      /* I =152 */
(PID.TID 0000.0001)                 2.647274964828301E+05,      /* I =153 */
(PID.TID 0000.0001)                 2.545652950875683E+05,      /* I =154 */
(PID.TID 0000.0001)                 2.428369969078989E+05,      /* I =155 */
(PID.TID 0000.0001)                 2.292584591272880E+05,      /* I =156 */
(PID.TID 0000.0001)                 2.133486626971531E+05,      /* I =157 */
(PID.TID 0000.0001)                 1.942331448101592E+05,      /* I =158 */
(PID.TID 0000.0001)                 1.701080315742101E+05,      /* I =159 */
(PID.TID 0000.0001)                 1.362652340208229E+05,      /* I =160 */
(PID.TID 0000.0001)                 8.015229982413632E+04,      /* I =161 */
(PID.TID 0000.0001)                 1.362652340208229E+05,      /* I =162 */
(PID.TID 0000.0001)                 1.701080315742101E+05,      /* I =163 */
(PID.TID 0000.0001)                 1.942331448101592E+05,      /* I =164 */
(PID.TID 0000.0001)                 2.133486626971531E+05,      /* I =165 */
(PID.TID 0000.0001)                 2.292584591272880E+05,      /* I =166 */
(PID.TID 0000.0001)                 2.428369969078989E+05,      /* I =167 */
(PID.TID 0000.0001)                 2.545652950875683E+05,      /* I =168 */
(PID.TID 0000.0001)                 2.647274964828301E+05,      /* I =169 */
(PID.TID 0000.0001)                 2.734980225206389E+05,      /* I =170 */
(PID.TID 0000.0001)                 2.809856491525217E+05,      /* I =171 */
(PID.TID 0000.0001)                 2.872580915202295E+05,      /* I =172 */
(PID.TID 0000.0001)                 2.923567890694162E+05,      /* I =173 */
(PID.TID 0000.0001)                 2.963063101754721E+05,      /* I =174 */
(PID.TID 0000.0001)                 2.991205495886625E+05,      /* I =175 */
(PID.TID 0000.0001)                 3.008068453676764E+05,      /* I =176 */
(PID.TID 0000.0001)                 3.013686170436881E+05,      /* I =177 */
(PID.TID 0000.0001)                 3.008068453676764E+05,      /* I =178 */
(PID.TID 0000.0001)                 2.991205495886625E+05,      /* I =179 */
(PID.TID 0000.0001)                 2.963063101754721E+05,      /* I =180 */
(PID.TID 0000.0001)                 2.923567890694162E+05,      /* I =181 */
(PID.TID 0000.0001)                 2.872580915202295E+05,      /* I =182 */
(PID.TID 0000.0001)                 2.809856491525217E+05,      /* I =183 */
(PID.TID 0000.0001)                 2.734980225206389E+05,      /* I =184 */
(PID.TID 0000.0001)                 2.647274964828301E+05,      /* I =185 */
(PID.TID 0000.0001)                 2.545652950875683E+05,      /* I =186 */
(PID.TID 0000.0001)                 2.428369969078989E+05,      /* I =187 */
(PID.TID 0000.0001)                 2.292584591272880E+05,      /* I =188 */
(PID.TID 0000.0001)                 2.133486626971531E+05,      /* I =189 */
(PID.TID 0000.0001)                 1.942331448101592E+05,      /* I =190 */
(PID.TID 0000.0001)                 1.701080315742101E+05,      /* I =191 */
(PID.TID 0000.0001)                 1.362652340208229E+05       /* I =192 */
(PID.TID 0000.0001)     ;
(PID.TID 0000.0001) dyU =  /* dyU(1,:,1,:) ( units: m ) */
(PID.TID 0000.0001)                 8.015229982413632E+04,      /* J =  1 */
(PID.TID 0000.0001)                 1.333130744933864E+05,      /* J =  2 */
(PID.TID 0000.0001)                 1.691744868129062E+05,      /* J =  3 */
(PID.TID 0000.0001)                 1.937548202849060E+05,      /* J =  4 */
(PID.TID 0000.0001)                 2.130490056267208E+05,      /* J =  5 */
(PID.TID 0000.0001)                 2.290479919481738E+05,      /* J =  6 */
(PID.TID 0000.0001)                 2.426774358027003E+05,      /* J =  7 */
(PID.TID 0000.0001)                 2.544372984215561E+05,      /* J =  8 */
(PID.TID 0000.0001)                 2.646201463834826E+05,      /* J =  9 */
(PID.TID 0000.0001)                 2.734046499619031E+05,      /* J = 10 */
(PID.TID 0000.0001)                 2.809019351693761E+05,      /* J = 11 */
(PID.TID 0000.0001)                 2.871811105274442E+05,      /* J = 12 */
(PID.TID 0000.0001)                 2.922844849381675E+05,      /* J = 13 */
(PID.TID 0000.0001)                 2.962371870847826E+05,      /* J = 14 */
(PID.TID 0000.0001)                 2.990534755671296E+05,      /* J = 15 */
(PID.TID 0000.0001)                 3.007409169495504E+05,      /* J = 16 */
(PID.TID 0000.0001)                 3.013031486919771E+05,      /* J = 17 */
(PID.TID 0000.0001)                 3.007409169495504E+05,      /* J = 18 */
(PID.TID 0000.0001)                 2.990534755671296E+05,      /* J = 19 */
(PID.TID 0000.0001)                 2.962371870847826E+05,      /* J = 20 */
(PID.TID 0000.0001)                 2.922844849381675E+05,      /* J = 21 */
(PID.TID 0000.0001)                 2.871811105274442E+05,      /* J = 22 */
(PID.TID 0000.0001)                 2.809019351693761E+05,      /* J = 23 */
(PID.TID 0000.0001)                 2.734046499619031E+05,      /* J = 24 */
(PID.TID 0000.0001)                 2.646201463834826E+05,      /* J = 25 */
(PID.TID 0000.0001)                 2.544372984215561E+05,      /* J = 26 */
(PID.TID 0000.0001)                 2.426774358027003E+05,      /* J = 27 */
(PID.TID 0000.0001)                 2.290479919481738E+05,      /* J = 28 */
(PID.TID 0000.0001)                 2.130490056267208E+05,      /* J = 29 */
(PID.TID 0000.0001)                 1.937548202849060E+05,      /* J = 30 */
(PID.TID 0000.0001)                 1.691744868129062E+05,      /* J = 31 */
(PID.TID 0000.0001)                 1.333130744933864E+05       /* J = 32 */
(PID.TID 0000.0001)     ;
(PID.TID 0000.0001) rA  =  /* rA (:,1,:,1) ( units: m^2 ) */
(PID.TID 0000.0001)                 1.401900702255611E+10,      /* I =  1 */
(PID.TID 0000.0001)                 2.459906945574446E+10,      /* I =  2 */
(PID.TID 0000.0001)                 3.378518544307869E+10,      /* I =  3 */
(PID.TID 0000.0001)                 4.192037169898667E+10,      /* I =  4 */
(PID.TID 0000.0001)                 4.925938996118163E+10,      /* I =  5 */
(PID.TID 0000.0001)                 5.594154126607553E+10,      /* I =  6 */
(PID.TID 0000.0001)                 6.203683527772523E+10,      /* I =  7 */
(PID.TID 0000.0001)                 6.757541173817516E+10,      /* I =  8 */
(PID.TID 0000.0001)                 7.256353271748119E+10,      /* I =  9 */
(PID.TID 0000.0001)                 7.699293007098555E+10,      /* I = 10 */
(PID.TID 0000.0001)                 8.084683449728902E+10,      /* I = 11 */
(PID.TID 0000.0001)                 8.410423102796223E+10,      /* I = 12 */
(PID.TID 0000.0001)                 8.674306976737517E+10,      /* I = 13 */
(PID.TID 0000.0001)                 8.874277443041928E+10,      /* I = 14 */
(PID.TID 0000.0001)                 9.008620045350865E+10,      /* I = 15 */
(PID.TID 0000.0001)                 9.076111290418457E+10,      /* I = 16 */
(PID.TID 0000.0001)                 9.076111290422060E+10,      /* I = 17 */
(PID.TID 0000.0001)                 9.008620045354469E+10,      /* I = 18 */
(PID.TID 0000.0001)                 8.874277443041928E+10,      /* I = 19 */
(PID.TID 0000.0001)                 8.674306976741121E+10,      /* I = 20 */
(PID.TID 0000.0001)                 8.410423102799828E+10,      /* I = 21 */
(PID.TID 0000.0001)                 8.084683449728902E+10,      /* I = 22 */
(PID.TID 0000.0001)                 7.699293007098555E+10,      /* I = 23 */
(PID.TID 0000.0001)                 7.256353271748119E+10,      /* I = 24 */
(PID.TID 0000.0001)                 6.757541173817516E+10,      /* I = 25 */
(PID.TID 0000.0001)                 6.203683527772523E+10,      /* I = 26 */
(PID.TID 0000.0001)                 5.594154126611156E+10,      /* I = 27 */
(PID.TID 0000.0001)                 4.925938996118163E+10,      /* I = 28 */
(PID.TID 0000.0001)                 4.192037169898667E+10,      /* I = 29 */
(PID.TID 0000.0001)                 3.378518544304265E+10,      /* I = 30 */
(PID.TID 0000.0001)                 2.459906945574446E+10,      /* I = 31 */
(PID.TID 0000.0001)                 1.401900702259215E+10,      /* I = 32 */
(PID.TID 0000.0001)                 1.401900702255611E+10,      /* I = 33 */
(PID.TID 0000.0001)                 2.459906945574446E+10,      /* I = 34 */
(PID.TID 0000.0001)                 3.378518544307869E+10,      /* I = 35 */
(PID.TID 0000.0001)                 4.192037169898667E+10,      /* I = 36 */
(PID.TID 0000.0001)                 4.925938996118163E+10,      /* I = 37 */
(PID.TID 0000.0001)                 5.594154126607553E+10,      /* I = 38 */
(PID.TID 0000.0001)                 6.203683527772523E+10,      /* I = 39 */
(PID.TID 0000.0001)                 6.757541173817516E+10,      /* I = 40 */
(PID.TID 0000.0001)                 7.256353271748119E+10,      /* I = 41 */
(PID.TID 0000.0001)                 7.699293007098555E+10,      /* I = 42 */
(PID.TID 0000.0001)                 8.084683449728902E+10,      /* I = 43 */
(PID.TID 0000.0001)                 8.410423102796223E+10,      /* I = 44 */
(PID.TID 0000.0001)                 8.674306976737517E+10,      /* I = 45 */
(PID.TID 0000.0001)                 8.874277443041928E+10,      /* I = 46 */
(PID.TID 0000.0001)                 9.008620045350865E+10,      /* I = 47 */
(PID.TID 0000.0001)                 9.076111290418457E+10,      /* I = 48 */
(PID.TID 0000.0001)                 9.076111290422060E+10,      /* I = 49 */
(PID.TID 0000.0001)                 9.008620045354469E+10,      /* I = 50 */
(PID.TID 0000.0001)                 8.874277443041928E+10,      /* I = 51 */
(PID.TID 0000.0001)                 8.674306976741121E+10,      /* I = 52 */
(PID.TID 0000.0001)                 8.410423102799828E+10,      /* I = 53 */
(PID.TID 0000.0001)                 8.084683449728902E+10,      /* I = 54 */
(PID.TID 0000.0001)                 7.699293007098555E+10,      /* I = 55 */
(PID.TID 0000.0001)                 7.256353271748119E+10,      /* I = 56 */
(PID.TID 0000.0001)                 6.757541173817516E+10,      /* I = 57 */
(PID.TID 0000.0001)                 6.203683527772523E+10,      /* I = 58 */
(PID.TID 0000.0001)                 5.594154126611156E+10,      /* I = 59 */
(PID.TID 0000.0001)                 4.925938996118163E+10,      /* I = 60 */
(PID.TID 0000.0001)                 4.192037169898667E+10,      /* I = 61 */
(PID.TID 0000.0001)                 3.378518544304265E+10,      /* I = 62 */
(PID.TID 0000.0001)                 2.459906945574446E+10,      /* I = 63 */
(PID.TID 0000.0001)                 1.401900702259215E+10,      /* I = 64 */
(PID.TID 0000.0001)                 1.401900702255611E+10,      /* I = 65 */
(PID.TID 0000.0001)                 2.459906945574446E+10,      /* I = 66 */
(PID.TID 0000.0001)                 3.378518544307869E+10,      /* I = 67 */
(PID.TID 0000.0001)                 4.192037169898667E+10,      /* I = 68 */
(PID.TID 0000.0001)                 4.925938996118163E+10,      /* I = 69 */
(PID.TID 0000.0001)                 5.594154126607553E+10,      /* I = 70 */
(PID.TID 0000.0001)                 6.203683527772523E+10,      /* I = 71 */
(PID.TID 0000.0001)                 6.757541173817516E+10,      /* I = 72 */
(PID.TID 0000.0001)                 7.256353271748119E+10,      /* I = 73 */
(PID.TID 0000.0001)                 7.699293007098555E+10,      /* I = 74 */
(PID.TID 0000.0001)                 8.084683449728902E+10,      /* I = 75 */
(PID.TID 0000.0001)                 8.410423102796223E+10,      /* I = 76 */
(PID.TID 0000.0001)                 8.674306976737517E+10,      /* I = 77 */
(PID.TID 0000.0001)                 8.874277443041928E+10,      /* I = 78 */
(PID.TID 0000.0001)                 9.008620045350865E+10,      /* I = 79 */
(PID.TID 0000.0001)                 9.076111290418457E+10,      /* I = 80 */
(PID.TID 0000.0001)                 9.076111290422060E+10,      /* I = 81 */
(PID.TID 0000.0001)                 9.008620045354469E+10,      /* I = 82 */
(PID.TID 0000.0001)                 8.874277443041928E+10,      /* I = 83 */
(PID.TID 0000.0001)                 8.674306976741121E+10,      /* I = 84 */
(PID.TID 0000.0001)                 8.410423102799828E+10,      /* I = 85 */
(PID.TID 0000.0001)                 8.084683449728902E+10,      /* I = 86 */
(PID.TID 0000.0001)                 7.699293007098555E+10,      /* I = 87 */
(PID.TID 0000.0001)                 7.256353271748119E+10,      /* I = 88 */
(PID.TID 0000.0001)                 6.757541173817516E+10,      /* I = 89 */
(PID.TID 0000.0001)                 6.203683527772523E+10,      /* I = 90 */
(PID.TID 0000.0001)                 5.594154126611156E+10,      /* I = 91 */
(PID.TID 0000.0001)                 4.925938996118163E+10,      /* I = 92 */
(PID.TID 0000.0001)                 4.192037169898667E+10,      /* I = 93 */
(PID.TID 0000.0001)                 3.378518544304265E+10,      /* I = 94 */
(PID.TID 0000.0001)                 2.459906945574446E+10,      /* I = 95 */
(PID.TID 0000.0001)                 1.401900702259215E+10,      /* I = 96 */
(PID.TID 0000.0001)                 1.401900702255611E+10,      /* I = 97 */
(PID.TID 0000.0001)                 2.459906945574446E+10,      /* I = 98 */
(PID.TID 0000.0001)                 3.378518544307869E+10,      /* I = 99 */
(PID.TID 0000.0001)                 4.192037169898667E+10,      /* I =100 */
(PID.TID 0000.0001)                 4.925938996118163E+10,      /* I =101 */
(PID.TID 0000.0001)                 5.594154126607553E+10,      /* I =102 */
(PID.TID 0000.0001)                 6.203683527772523E+10,      /* I =103 */
(PID.TID 0000.0001)                 6.757541173817516E+10,      /* I =104 */
(PID.TID 0000.0001)                 7.256353271748119E+10,      /* I =105 */
(PID.TID 0000.0001)                 7.699293007098555E+10,      /* I =106 */
(PID.TID 0000.0001)                 8.084683449728902E+10,      /* I =107 */
(PID.TID 0000.0001)                 8.410423102796223E+10,      /* I =108 */
(PID.TID 0000.0001)                 8.674306976737517E+10,      /* I =109 */
(PID.TID 0000.0001)                 8.874277443041928E+10,      /* I =110 */
(PID.TID 0000.0001)                 9.008620045350865E+10,      /* I =111 */
(PID.TID 0000.0001)                 9.076111290418457E+10,      /* I =112 */
(PID.TID 0000.0001)                 9.076111290422060E+10,      /* I =113 */
(PID.TID 0000.0001)                 9.008620045354469E+10,      /* I =114 */
(PID.TID 0000.0001)                 8.874277443041928E+10,      /* I =115 */
(PID.TID 0000.0001)                 8.674306976741121E+10,      /* I =116 */
(PID.TID 0000.0001)                 8.410423102799828E+10,      /* I =117 */
(PID.TID 0000.0001)                 8.084683449728902E+10,      /* I =118 */
(PID.TID 0000.0001)                 7.699293007098555E+10,      /* I =119 */
(PID.TID 0000.0001)                 7.256353271748119E+10,      /* I =120 */
(PID.TID 0000.0001)                 6.757541173817516E+10,      /* I =121 */
(PID.TID 0000.0001)                 6.203683527772523E+10,      /* I =122 */
(PID.TID 0000.0001)                 5.594154126611156E+10,      /* I =123 */
(PID.TID 0000.0001)                 4.925938996118163E+10,      /* I =124 */
(PID.TID 0000.0001)                 4.192037169898667E+10,      /* I =125 */
(PID.TID 0000.0001)                 3.378518544304265E+10,      /* I =126 */
(PID.TID 0000.0001)                 2.459906945574446E+10,      /* I =127 */
(PID.TID 0000.0001)                 1.401900702259215E+10,      /* I =128 */
(PID.TID 0000.0001)                 1.401900702255611E+10,      /* I =129 */
(PID.TID 0000.0001)                 2.459906945574446E+10,      /* I =130 */
(PID.TID 0000.0001)                 3.378518544307869E+10,      /* I =131 */
(PID.TID 0000.0001)                 4.192037169898667E+10,      /* I =132 */
(PID.TID 0000.0001)                 4.925938996118163E+10,      /* I =133 */
(PID.TID 0000.0001)                 5.594154126607553E+10,      /* I =134 */
(PID.TID 0000.0001)                 6.203683527772523E+10,      /* I =135 */
(PID.TID 0000.0001)                 6.757541173817516E+10,      /* I =136 */
(PID.TID 0000.0001)                 7.256353271748119E+10,      /* I =137 */
(PID.TID 0000.0001)                 7.699293007098555E+10,      /* I =138 */
(PID.TID 0000.0001)                 8.084683449728902E+10,      /* I =139 */
(PID.TID 0000.0001)                 8.410423102796223E+10,      /* I =140 */
(PID.TID 0000.0001)                 8.674306976737517E+10,      /* I =141 */
(PID.TID 0000.0001)                 8.874277443041928E+10,      /* I =142 */
(PID.TID 0000.0001)                 9.008620045350865E+10,      /* I =143 */
(PID.TID 0000.0001)                 9.076111290418457E+10,      /* I =144 */
(PID.TID 0000.0001)                 9.076111290422060E+10,      /* I =145 */
(PID.TID 0000.0001)                 9.008620045354469E+10,      /* I =146 */
(PID.TID 0000.0001)                 8.874277443041928E+10,      /* I =147 */
(PID.TID 0000.0001)                 8.674306976741121E+10,      /* I =148 */
(PID.TID 0000.0001)                 8.410423102799828E+10,      /* I =149 */
(PID.TID 0000.0001)                 8.084683449728902E+10,      /* I =150 */
(PID.TID 0000.0001)                 7.699293007098555E+10,      /* I =151 */
(PID.TID 0000.0001)                 7.256353271748119E+10,      /* I =152 */
(PID.TID 0000.0001)                 6.757541173817516E+10,      /* I =153 */
(PID.TID 0000.0001)                 6.203683527772523E+10,      /* I =154 */
(PID.TID 0000.0001)                 5.594154126611156E+10,      /* I =155 */
(PID.TID 0000.0001)                 4.925938996118163E+10,      /* I =156 */
(PID.TID 0000.0001)                 4.192037169898667E+10,      /* I =157 */
(PID.TID 0000.0001)                 3.378518544304265E+10,      /* I =158 */
(PID.TID 0000.0001)                 2.459906945574446E+10,      /* I =159 */
(PID.TID 0000.0001)                 1.401900702259215E+10,      /* I =160 */
(PID.TID 0000.0001)                 1.401900702255611E+10,      /* I =161 */
(PID.TID 0000.0001)                 2.459906945574446E+10,      /* I =162 */
(PID.TID 0000.0001)                 3.378518544307869E+10,      /* I =163 */
(PID.TID 0000.0001)                 4.192037169898667E+10,      /* I =164 */
(PID.TID 0000.0001)                 4.925938996118163E+10,      /* I =165 */
(PID.TID 0000.0001)                 5.594154126607553E+10,      /* I =166 */
(PID.TID 0000.0001)                 6.203683527772523E+10,      /* I =167 */
(PID.TID 0000.0001)                 6.757541173817516E+10,      /* I =168 */
(PID.TID 0000.0001)                 7.256353271748119E+10,      /* I =169 */
(PID.TID 0000.0001)                 7.699293007098555E+10,      /* I =170 */
(PID.TID 0000.0001)                 8.084683449728902E+10,      /* I =171 */
(PID.TID 0000.0001)                 8.410423102796223E+10,      /* I =172 */
(PID.TID 0000.0001)                 8.674306976737517E+10,      /* I =173 */
(PID.TID 0000.0001)                 8.874277443041928E+10,      /* I =174 */
(PID.TID 0000.0001)                 9.008620045350865E+10,      /* I =175 */
(PID.TID 0000.0001)                 9.076111290418457E+10,      /* I =176 */
(PID.TID 0000.0001)                 9.076111290422060E+10,      /* I =177 */
(PID.TID 0000.0001)                 9.008620045354469E+10,      /* I =178 */
(PID.TID 0000.0001)                 8.874277443041928E+10,      /* I =179 */
(PID.TID 0000.0001)                 8.674306976741121E+10,      /* I =180 */
(PID.TID 0000.0001)                 8.410423102799828E+10,      /* I =181 */
(PID.TID 0000.0001)                 8.084683449728902E+10,      /* I =182 */
(PID.TID 0000.0001)                 7.699293007098555E+10,      /* I =183 */
(PID.TID 0000.0001)                 7.256353271748119E+10,      /* I =184 */
(PID.TID 0000.0001)                 6.757541173817516E+10,      /* I =185 */
(PID.TID 0000.0001)                 6.203683527772523E+10,      /* I =186 */
(PID.TID 0000.0001)                 5.594154126611156E+10,      /* I =187 */
(PID.TID 0000.0001)                 4.925938996118163E+10,      /* I =188 */
(PID.TID 0000.0001)                 4.192037169898667E+10,      /* I =189 */
(PID.TID 0000.0001)                 3.378518544304265E+10,      /* I =190 */
(PID.TID 0000.0001)                 2.459906945574446E+10,      /* I =191 */
(PID.TID 0000.0001)                 1.401900702259215E+10       /* I =192 */
(PID.TID 0000.0001)     ;
(PID.TID 0000.0001) rA  =  /* rA (1,:,1,:) ( units: m^2 ) */
(PID.TID 0000.0001)                 1.401900702255611E+10,      /* J =  1 */
(PID.TID 0000.0001)                 2.459906945574446E+10,      /* J =  2 */
(PID.TID 0000.0001)                 3.378518544307869E+10,      /* J =  3 */
(PID.TID 0000.0001)                 4.192037169898667E+10,      /* J =  4 */
(PID.TID 0000.0001)                 4.925938996118163E+10,      /* J =  5 */
(PID.TID 0000.0001)                 5.594154126607553E+10,      /* J =  6 */
(PID.TID 0000.0001)                 6.203683527776127E+10,      /* J =  7 */
(PID.TID 0000.0001)                 6.757541173817516E+10,      /* J =  8 */
(PID.TID 0000.0001)                 7.256353271748119E+10,      /* J =  9 */
(PID.TID 0000.0001)                 7.699293007098555E+10,      /* J = 10 */
(PID.TID 0000.0001)                 8.084683449728902E+10,      /* J = 11 */
(PID.TID 0000.0001)                 8.410423102799828E+10,      /* J = 12 */
(PID.TID 0000.0001)                 8.674306976737517E+10,      /* J = 13 */
(PID.TID 0000.0001)                 8.874277443041928E+10,      /* J = 14 */
(PID.TID 0000.0001)                 9.008620045350865E+10,      /* J = 15 */
(PID.TID 0000.0001)                 9.076111290418457E+10,      /* J = 16 */
(PID.TID 0000.0001)                 9.076111290422060E+10,      /* J = 17 */
(PID.TID 0000.0001)                 9.008620045354469E+10,      /* J = 18 */
(PID.TID 0000.0001)                 8.874277443041928E+10,      /* J = 19 */
(PID.TID 0000.0001)                 8.674306976737517E+10,      /* J = 20 */
(PID.TID 0000.0001)                 8.410423102799828E+10,      /* J = 21 */
(PID.TID 0000.0001)                 8.084683449728902E+10,      /* J = 22 */
(PID.TID 0000.0001)                 7.699293007098555E+10,      /* J = 23 */
(PID.TID 0000.0001)                 7.256353271748119E+10,      /* J = 24 */
(PID.TID 0000.0001)                 6.757541173817516E+10,      /* J = 25 */
(PID.TID 0000.0001)                 6.203683527772523E+10,      /* J = 26 */
(PID.TID 0000.0001)                 5.594154126607553E+10,      /* J = 27 */
(PID.TID 0000.0001)                 4.925938996118163E+10,      /* J = 28 */
(PID.TID 0000.0001)                 4.192037169898667E+10,      /* J = 29 */
(PID.TID 0000.0001)                 3.378518544307869E+10,      /* J = 30 */
(PID.TID 0000.0001)                 2.459906945574446E+10,      /* J = 31 */
(PID.TID 0000.0001)                 1.401900702259215E+10       /* J = 32 */
(PID.TID 0000.0001)     ;
(PID.TID 0000.0001) rAw =  /* rAw(:,1,:,1) ( units: m^2 ) */
(PID.TID 0000.0001)                 1.216690346714270E+10,      /* I =  1 */
(PID.TID 0000.0001)                 1.974052138506315E+10,      /* I =  2 */
(PID.TID 0000.0001)                 2.943712825252015E+10,      /* I =  3 */
(PID.TID 0000.0001)                 3.801790263324359E+10,      /* I =  4 */
(PID.TID 0000.0001)                 4.571243814189866E+10,      /* I =  5 */
(PID.TID 0000.0001)                 5.269930713599979E+10,      /* I =  6 */
(PID.TID 0000.0001)                 5.907428494299063E+10,      /* I =  7 */
(PID.TID 0000.0001)                 6.488320895111514E+10,      /* I =  8 */
(PID.TID 0000.0001)                 7.014205907741882E+10,      /* I =  9 */
(PID.TID 0000.0001)                 7.484854821847499E+10,      /* I = 10 */
(PID.TID 0000.0001)                 7.898934631431560E+10,      /* I = 11 */
(PID.TID 0000.0001)                 8.254500894894537E+10,      /* I = 12 */
(PID.TID 0000.0001)                 8.549360686473492E+10,      /* I = 13 */
(PID.TID 0000.0001)                 8.781353403175085E+10,      /* I = 14 */
(PID.TID 0000.0001)                 8.948571540392021E+10,      /* I = 15 */
(PID.TID 0000.0001)                 9.049530583086168E+10,      /* I = 16 */
(PID.TID 0000.0001)                 9.083293515008307E+10,      /* I = 17 */
(PID.TID 0000.0001)                 9.049530583087070E+10,      /* I = 18 */
(PID.TID 0000.0001)                 8.948571540391121E+10,      /* I = 19 */
(PID.TID 0000.0001)                 8.781353403174185E+10,      /* I = 20 */
(PID.TID 0000.0001)                 8.549360686467184E+10,      /* I = 21 */
(PID.TID 0000.0001)                 8.254500894890933E+10,      /* I = 22 */
(PID.TID 0000.0001)                 7.898934631434262E+10,      /* I = 23 */
(PID.TID 0000.0001)                 7.484854821844795E+10,      /* I = 24 */
(PID.TID 0000.0001)                 7.014205907742783E+10,      /* I = 25 */
(PID.TID 0000.0001)                 6.488320895111514E+10,      /* I = 26 */
(PID.TID 0000.0001)                 5.907428494299063E+10,      /* I = 27 */
(PID.TID 0000.0001)                 5.269930713599078E+10,      /* I = 28 */
(PID.TID 0000.0001)                 4.571243814190767E+10,      /* I = 29 */
(PID.TID 0000.0001)                 3.801790263325260E+10,      /* I = 30 */
(PID.TID 0000.0001)                 2.943712825251114E+10,      /* I = 31 */
(PID.TID 0000.0001)                 1.974052138509018E+10,      /* I = 32 */
(PID.TID 0000.0001)                 1.216690346714270E+10,      /* I = 33 */
(PID.TID 0000.0001)                 1.974052138506315E+10,      /* I = 34 */
(PID.TID 0000.0001)                 2.943712825252015E+10,      /* I = 35 */
(PID.TID 0000.0001)                 3.801790263324359E+10,      /* I = 36 */
(PID.TID 0000.0001)                 4.571243814189866E+10,      /* I = 37 */
(PID.TID 0000.0001)                 5.269930713599979E+10,      /* I = 38 */
(PID.TID 0000.0001)                 5.907428494299063E+10,      /* I = 39 */
(PID.TID 0000.0001)                 6.488320895111514E+10,      /* I = 40 */
(PID.TID 0000.0001)                 7.014205907741882E+10,      /* I = 41 */
(PID.TID 0000.0001)                 7.484854821847499E+10,      /* I = 42 */
(PID.TID 0000.0001)                 7.898934631431560E+10,      /* I = 43 */
(PID.TID 0000.0001)                 8.254500894894537E+10,      /* I = 44 */
(PID.TID 0000.0001)                 8.549360686473492E+10,      /* I = 45 */
(PID.TID 0000.0001)                 8.781353403175085E+10,      /* I = 46 */
(PID.TID 0000.0001)                 8.948571540392021E+10,      /* I = 47 */
(PID.TID 0000.0001)                 9.049530583086168E+10,      /* I = 48 */
(PID.TID 0000.0001)                 9.083293515008307E+10,      /* I = 49 */
(PID.TID 0000.0001)                 9.049530583087070E+10,      /* I = 50 */
(PID.TID 0000.0001)                 8.948571540391121E+10,      /* I = 51 */
(PID.TID 0000.0001)                 8.781353403174185E+10,      /* I = 52 */
(PID.TID 0000.0001)                 8.549360686467184E+10,      /* I = 53 */
(PID.TID 0000.0001)                 8.254500894890933E+10,      /* I = 54 */
(PID.TID 0000.0001)                 7.898934631434262E+10,      /* I = 55 */
(PID.TID 0000.0001)                 7.484854821844795E+10,      /* I = 56 */
(PID.TID 0000.0001)                 7.014205907742783E+10,      /* I = 57 */
(PID.TID 0000.0001)                 6.488320895111514E+10,      /* I = 58 */
(PID.TID 0000.0001)                 5.907428494299063E+10,      /* I = 59 */
(PID.TID 0000.0001)                 5.269930713599078E+10,      /* I = 60 */
(PID.TID 0000.0001)                 4.571243814190767E+10,      /* I = 61 */
(PID.TID 0000.0001)                 3.801790263325260E+10,      /* I = 62 */
(PID.TID 0000.0001)                 2.943712825251114E+10,      /* I = 63 */
(PID.TID 0000.0001)                 1.974052138509018E+10,      /* I = 64 */
(PID.TID 0000.0001)                 1.216690346714270E+10,      /* I = 65 */
(PID.TID 0000.0001)                 1.974052138506315E+10,      /* I = 66 */
(PID.TID 0000.0001)                 2.943712825252015E+10,      /* I = 67 */
(PID.TID 0000.0001)                 3.801790263324359E+10,      /* I = 68 */
(PID.TID 0000.0001)                 4.571243814189866E+10,      /* I = 69 */
(PID.TID 0000.0001)                 5.269930713599979E+10,      /* I = 70 */
(PID.TID 0000.0001)                 5.907428494299063E+10,      /* I = 71 */
(PID.TID 0000.0001)                 6.488320895111514E+10,      /* I = 72 */
(PID.TID 0000.0001)                 7.014205907741882E+10,      /* I = 73 */
(PID.TID 0000.0001)                 7.484854821847499E+10,      /* I = 74 */
(PID.TID 0000.0001)                 7.898934631431560E+10,      /* I = 75 */
(PID.TID 0000.0001)                 8.254500894894537E+10,      /* I = 76 */
(PID.TID 0000.0001)                 8.549360686473492E+10,      /* I = 77 */
(PID.TID 0000.0001)                 8.781353403175085E+10,      /* I = 78 */
(PID.TID 0000.0001)                 8.948571540392021E+10,      /* I = 79 */
(PID.TID 0000.0001)                 9.049530583086168E+10,      /* I = 80 */
(PID.TID 0000.0001)                 9.083293515008307E+10,      /* I = 81 */
(PID.TID 0000.0001)                 9.049530583087070E+10,      /* I = 82 */
(PID.TID 0000.0001)                 8.948571540391121E+10,      /* I = 83 */
(PID.TID 0000.0001)                 8.781353403174185E+10,      /* I = 84 */
(PID.TID 0000.0001)                 8.549360686467184E+10,      /* I = 85 */
(PID.TID 0000.0001)                 8.254500894890933E+10,      /* I = 86 */
(PID.TID 0000.0001)                 7.898934631434262E+10,      /* I = 87 */
(PID.TID 0000.0001)                 7.484854821844795E+10,      /* I = 88 */
(PID.TID 0000.0001)                 7.014205907742783E+10,      /* I = 89 */
(PID.TID 0000.0001)                 6.488320895111514E+10,      /* I = 90 */
(PID.TID 0000.0001)                 5.907428494299063E+10,      /* I = 91 */
(PID.TID 0000.0001)                 5.269930713599078E+10,      /* I = 92 */
(PID.TID 0000.0001)                 4.571243814190767E+10,      /* I = 93 */
(PID.TID 0000.0001)                 3.801790263325260E+10,      /* I = 94 */
(PID.TID 0000.0001)                 2.943712825251114E+10,      /* I = 95 */
(PID.TID 0000.0001)                 1.974052138509018E+10,      /* I = 96 */
(PID.TID 0000.0001)                 1.216690346714270E+10,      /* I = 97 */
(PID.TID 0000.0001)                 1.974052138506315E+10,      /* I = 98 */
(PID.TID 0000.0001)                 2.943712825252015E+10,      /* I = 99 */
(PID.TID 0000.0001)                 3.801790263324359E+10,      /* I =100 */
(PID.TID 0000.0001)                 4.571243814189866E+10,      /* I =101 */
(PID.TID 0000.0001)                 5.269930713599979E+10,      /* I =102 */
(PID.TID 0000.0001)                 5.907428494299063E+10,      /* I =103 */
(PID.TID 0000.0001)                 6.488320895111514E+10,      /* I =104 */
(PID.TID 0000.0001)                 7.014205907741882E+10,      /* I =105 */
(PID.TID 0000.0001)                 7.484854821847499E+10,      /* I =106 */
(PID.TID 0000.0001)                 7.898934631431560E+10,      /* I =107 */
(PID.TID 0000.0001)                 8.254500894894537E+10,      /* I =108 */
(PID.TID 0000.0001)                 8.549360686473492E+10,      /* I =109 */
(PID.TID 0000.0001)                 8.781353403175085E+10,      /* I =110 */
(PID.TID 0000.0001)                 8.948571540392021E+10,      /* I =111 */
(PID.TID 0000.0001)                 9.049530583086168E+10,      /* I =112 */
(PID.TID 0000.0001)                 9.083293515008307E+10,      /* I =113 */
(PID.TID 0000.0001)                 9.049530583087070E+10,      /* I =114 */
(PID.TID 0000.0001)                 8.948571540391121E+10,      /* I =115 */
(PID.TID 0000.0001)                 8.781353403174185E+10,      /* I =116 */
(PID.TID 0000.0001)                 8.549360686467184E+10,      /* I =117 */
(PID.TID 0000.0001)                 8.254500894890933E+10,      /* I =118 */
(PID.TID 0000.0001)                 7.898934631434262E+10,      /* I =119 */
(PID.TID 0000.0001)                 7.484854821844795E+10,      /* I =120 */
(PID.TID 0000.0001)                 7.014205907742783E+10,      /* I =121 */
(PID.TID 0000.0001)                 6.488320895111514E+10,      /* I =122 */
(PID.TID 0000.0001)                 5.907428494299063E+10,      /* I =123 */
(PID.TID 0000.0001)                 5.269930713599078E+10,      /* I =124 */
(PID.TID 0000.0001)                 4.571243814190767E+10,      /* I =125 */
(PID.TID 0000.0001)                 3.801790263325260E+10,      /* I =126 */
(PID.TID 0000.0001)                 2.943712825251114E+10,      /* I =127 */
(PID.TID 0000.0001)                 1.974052138509018E+10,      /* I =128 */
(PID.TID 0000.0001)                 1.216690346714270E+10,      /* I =129 */
(PID.TID 0000.0001)                 1.974052138506315E+10,      /* I =130 */
(PID.TID 0000.0001)                 2.943712825252015E+10,      /* I =131 */
(PID.TID 0000.0001)                 3.801790263324359E+10,      /* I =132 */
(PID.TID 0000.0001)                 4.571243814189866E+10,      /* I =133 */
(PID.TID 0000.0001)                 5.269930713599979E+10,      /* I =134 */
(PID.TID 0000.0001)                 5.907428494299063E+10,      /* I =135 */
(PID.TID 0000.0001)                 6.488320895111514E+10,      /* I =136 */
(PID.TID 0000.0001)                 7.014205907741882E+10,      /* I =137 */
(PID.TID 0000.0001)                 7.484854821847499E+10,      /* I =138 */
(PID.TID 0000.0001)                 7.898934631431560E+10,      /* I =139 */
(PID.TID 0000.0001)                 8.254500894894537E+10,      /* I =140 */
(PID.TID 0000.0001)                 8.549360686473492E+10,      /* I =141 */
(PID.TID 0000.0001)                 8.781353403175085E+10,      /* I =142 */
(PID.TID 0000.0001)                 8.948571540392021E+10,      /* I =143 */
(PID.TID 0000.0001)                 9.049530583086168E+10,      /* I =144 */
(PID.TID 0000.0001)                 9.083293515008307E+10,      /* I =145 */
(PID.TID 0000.0001)                 9.049530583087070E+10,      /* I =146 */
(PID.TID 0000.0001)                 8.948571540391121E+10,      /* I =147 */
(PID.TID 0000.0001)                 8.781353403174185E+10,      /* I =148 */
(PID.TID 0000.0001)                 8.549360686467184E+10,      /* I =149 */
(PID.TID 0000.0001)                 8.254500894890933E+10,      /* I =150 */
(PID.TID 0000.0001)                 7.898934631434262E+10,      /* I =151 */
(PID.TID 0000.0001)                 7.484854821844795E+10,      /* I =152 */
(PID.TID 0000.0001)                 7.014205907742783E+10,      /* I =153 */
(PID.TID 0000.0001)                 6.488320895111514E+10,      /* I =154 */
(PID.TID 0000.0001)                 5.907428494299063E+10,      /* I =155 */
(PID.TID 0000.0001)                 5.269930713599078E+10,      /* I =156 */
(PID.TID 0000.0001)                 4.571243814190767E+10,      /* I =157 */
(PID.TID 0000.0001)                 3.801790263325260E+10,      /* I =158 */
(PID.TID 0000.0001)                 2.943712825251114E+10,      /* I =159 */
(PID.TID 0000.0001)                 1.974052138509018E+10,      /* I =160 */
(PID.TID 0000.0001)                 1.216690346714270E+10,      /* I =161 */
(PID.TID 0000.0001)                 1.974052138506315E+10,      /* I =162 */
(PID.TID 0000.0001)                 2.943712825252015E+10,      /* I =163 */
(PID.TID 0000.0001)                 3.801790263324359E+10,      /* I =164 */
(PID.TID 0000.0001)                 4.571243814189866E+10,      /* I =165 */
(PID.TID 0000.0001)                 5.269930713599979E+10,      /* I =166 */
(PID.TID 0000.0001)                 5.907428494299063E+10,      /* I =167 */
(PID.TID 0000.0001)                 6.488320895111514E+10,      /* I =168 */
(PID.TID 0000.0001)                 7.014205907741882E+10,      /* I =169 */
(PID.TID 0000.0001)                 7.484854821847499E+10,      /* I =170 */
(PID.TID 0000.0001)                 7.898934631431560E+10,      /* I =171 */
(PID.TID 0000.0001)                 8.254500894894537E+10,      /* I =172 */
(PID.TID 0000.0001)                 8.549360686473492E+10,      /* I =173 */
(PID.TID 0000.0001)                 8.781353403175085E+10,      /* I =174 */
(PID.TID 0000.0001)                 8.948571540392021E+10,      /* I =175 */
(PID.TID 0000.0001)                 9.049530583086168E+10,      /* I =176 */
(PID.TID 0000.0001)                 9.083293515008307E+10,      /* I =177 */
(PID.TID 0000.0001)                 9.049530583087070E+10,      /* I =178 */
(PID.TID 0000.0001)                 8.948571540391121E+10,      /* I =179 */
(PID.TID 0000.0001)                 8.781353403174185E+10,      /* I =180 */
(PID.TID 0000.0001)                 8.549360686467184E+10,      /* I =181 */
(PID.TID 0000.0001)                 8.254500894890933E+10,      /* I =182 */
(PID.TID 0000.0001)                 7.898934631434262E+10,      /* I =183 */
(PID.TID 0000.0001)                 7.484854821844795E+10,      /* I =184 */
(PID.TID 0000.0001)                 7.014205907742783E+10,      /* I =185 */
(PID.TID 0000.0001)                 6.488320895111514E+10,      /* I =186 */
(PID.TID 0000.0001)                 5.907428494299063E+10,      /* I =187 */
(PID.TID 0000.0001)                 5.269930713599078E+10,      /* I =188 */
(PID.TID 0000.0001)                 4.571243814190767E+10,      /* I =189 */
(PID.TID 0000.0001)                 3.801790263325260E+10,      /* I =190 */
(PID.TID 0000.0001)                 2.943712825251114E+10,      /* I =191 */
(PID.TID 0000.0001)                 1.974052138509018E+10       /* I =192 */
(PID.TID 0000.0001)     ;
(PID.TID 0000.0001) rAw =  /* rAw(1,:,1,:) ( units: m^2 ) */
(PID.TID 0000.0001)                 1.216690346714270E+10,      /* J =  1 */
(PID.TID 0000.0001)                 2.390126200743558E+10,      /* J =  2 */
(PID.TID 0000.0001)                 3.341968103208270E+10,      /* J =  3 */
(PID.TID 0000.0001)                 4.168532893152940E+10,      /* J =  4 */
(PID.TID 0000.0001)                 4.909074590409593E+10,      /* J =  5 */
(PID.TID 0000.0001)                 5.581203765722643E+10,      /* J =  6 */
(PID.TID 0000.0001)                 6.193257577506788E+10,      /* J =  7 */
(PID.TID 0000.0001)                 6.748840226738273E+10,      /* J =  8 */
(PID.TID 0000.0001)                 7.248875782324815E+10,      /* J =  9 */
(PID.TID 0000.0001)                 7.692702995909871E+10,      /* J = 10 */
(PID.TID 0000.0001)                 8.078743937057304E+10,      /* J = 11 */
(PID.TID 0000.0001)                 8.404959656062837E+10,      /* J = 12 */
(PID.TID 0000.0001)                 8.669186205742538E+10,      /* J = 13 */
(PID.TID 0000.0001)                 8.869393350723613E+10,      /* J = 14 */
(PID.TID 0000.0001)                 9.003884657168852E+10,      /* J = 15 */
(PID.TID 0000.0001)     2 @  9.071447638299399E+10,             /* J = 16: 17 */
(PID.TID 0000.0001)                 9.003884657168852E+10,      /* J = 18 */
(PID.TID 0000.0001)                 8.869393350723613E+10,      /* J = 19 */
(PID.TID 0000.0001)                 8.669186205742538E+10,      /* J = 20 */
(PID.TID 0000.0001)                 8.404959656062837E+10,      /* J = 21 */
(PID.TID 0000.0001)                 8.078743937057304E+10,      /* J = 22 */
(PID.TID 0000.0001)                 7.692702995909871E+10,      /* J = 23 */
(PID.TID 0000.0001)                 7.248875782324815E+10,      /* J = 24 */
(PID.TID 0000.0001)                 6.748840226738273E+10,      /* J = 25 */
(PID.TID 0000.0001)                 6.193257577506788E+10,      /* J = 26 */
(PID.TID 0000.0001)                 5.581203765722643E+10,      /* J = 27 */
(PID.TID 0000.0001)                 4.909074590409593E+10,      /* J = 28 */
(PID.TID 0000.0001)                 4.168532893152940E+10,      /* J = 29 */
(PID.TID 0000.0001)                 3.341968103208270E+10,      /* J = 30 */
(PID.TID 0000.0001)                 2.390126200743558E+10,      /* J = 31 */
(PID.TID 0000.0001)                 1.216690346714270E+10       /* J = 32 */
(PID.TID 0000.0001)     ;
(PID.TID 0000.0001) rAs =  /* rAs(:,1,:,1) ( units: m^2 ) */
(PID.TID 0000.0001)                 1.216690346714270E+10,      /* I =  1 */
(PID.TID 0000.0001)                 2.390126200743558E+10,      /* I =  2 */
(PID.TID 0000.0001)                 3.341968103208270E+10,      /* I =  3 */
(PID.TID 0000.0001)                 4.168532893152940E+10,      /* I =  4 */
(PID.TID 0000.0001)                 4.909074590409593E+10,      /* I =  5 */
(PID.TID 0000.0001)                 5.581203765722643E+10,      /* I =  6 */
(PID.TID 0000.0001)                 6.193257577506788E+10,      /* I =  7 */
(PID.TID 0000.0001)                 6.748840226738273E+10,      /* I =  8 */
(PID.TID 0000.0001)                 7.248875782324815E+10,      /* I =  9 */
(PID.TID 0000.0001)                 7.692702995909871E+10,      /* I = 10 */
(PID.TID 0000.0001)                 8.078743937057304E+10,      /* I = 11 */
(PID.TID 0000.0001)                 8.404959656062837E+10,      /* I = 12 */
(PID.TID 0000.0001)                 8.669186205742538E+10,      /* I = 13 */
(PID.TID 0000.0001)                 8.869393350723613E+10,      /* I = 14 */
(PID.TID 0000.0001)                 9.003884657168852E+10,      /* I = 15 */
(PID.TID 0000.0001)     2 @  9.071447638299399E+10,             /* I = 16: 17 */
(PID.TID 0000.0001)                 9.003884657168852E+10,      /* I = 18 */
(PID.TID 0000.0001)                 8.869393350723613E+10,      /* I = 19 */
(PID.TID 0000.0001)                 8.669186205742538E+10,      /* I = 20 */
(PID.TID 0000.0001)                 8.404959656062837E+10,      /* I = 21 */
(PID.TID 0000.0001)                 8.078743937057304E+10,      /* I = 22 */
(PID.TID 0000.0001)                 7.692702995909871E+10,      /* I = 23 */
(PID.TID 0000.0001)                 7.248875782324815E+10,      /* I = 24 */
(PID.TID 0000.0001)                 6.748840226738273E+10,      /* I = 25 */
(PID.TID 0000.0001)                 6.193257577506788E+10,      /* I = 26 */
(PID.TID 0000.0001)                 5.581203765722643E+10,      /* I = 27 */
(PID.TID 0000.0001)                 4.909074590409593E+10,      /* I = 28 */
(PID.TID 0000.0001)                 4.168532893152940E+10,      /* I = 29 */
(PID.TID 0000.0001)                 3.341968103208270E+10,      /* I = 30 */
(PID.TID 0000.0001)                 2.390126200743558E+10,      /* I = 31 */
(PID.TID 0000.0001)     2 @  1.216690346714270E+10,             /* I = 32: 33 */
(PID.TID 0000.0001)                 2.390126200743558E+10,      /* I = 34 */
(PID.TID 0000.0001)                 3.341968103208270E+10,      /* I = 35 */
(PID.TID 0000.0001)                 4.168532893152940E+10,      /* I = 36 */
(PID.TID 0000.0001)                 4.909074590409593E+10,      /* I = 37 */
(PID.TID 0000.0001)                 5.581203765722643E+10,      /* I = 38 */
(PID.TID 0000.0001)                 6.193257577506788E+10,      /* I = 39 */
(PID.TID 0000.0001)                 6.748840226738273E+10,      /* I = 40 */
(PID.TID 0000.0001)                 7.248875782324815E+10,      /* I = 41 */
(PID.TID 0000.0001)                 7.692702995909871E+10,      /* I = 42 */
(PID.TID 0000.0001)                 8.078743937057304E+10,      /* I = 43 */
(PID.TID 0000.0001)                 8.404959656062837E+10,      /* I = 44 */
(PID.TID 0000.0001)                 8.669186205742538E+10,      /* I = 45 */
(PID.TID 0000.0001)                 8.869393350723613E+10,      /* I = 46 */
(PID.TID 0000.0001)                 9.003884657168852E+10,      /* I = 47 */
(PID.TID 0000.0001)     2 @  9.071447638299399E+10,             /* I = 48: 49 */
(PID.TID 0000.0001)                 9.003884657168852E+10,      /* I = 50 */
(PID.TID 0000.0001)                 8.869393350723613E+10,      /* I = 51 */
(PID.TID 0000.0001)                 8.669186205742538E+10,      /* I = 52 */
(PID.TID 0000.0001)                 8.404959656062837E+10,      /* I = 53 */
(PID.TID 0000.0001)                 8.078743937057304E+10,      /* I = 54 */
(PID.TID 0000.0001)                 7.692702995909871E+10,      /* I = 55 */
(PID.TID 0000.0001)                 7.248875782324815E+10,      /* I = 56 */
(PID.TID 0000.0001)                 6.748840226738273E+10,      /* I = 57 */
(PID.TID 0000.0001)                 6.193257577506788E+10,      /* I = 58 */
(PID.TID 0000.0001)                 5.581203765722643E+10,      /* I = 59 */
(PID.TID 0000.0001)                 4.909074590409593E+10,      /* I = 60 */
(PID.TID 0000.0001)                 4.168532893152940E+10,      /* I = 61 */
(PID.TID 0000.0001)                 3.341968103208270E+10,      /* I = 62 */
(PID.TID 0000.0001)                 2.390126200743558E+10,      /* I = 63 */
(PID.TID 0000.0001)     2 @  1.216690346714270E+10,             /* I = 64: 65 */
(PID.TID 0000.0001)                 2.390126200743558E+10,      /* I = 66 */
(PID.TID 0000.0001)                 3.341968103208270E+10,      /* I = 67 */
(PID.TID 0000.0001)                 4.168532893152940E+10,      /* I = 68 */
(PID.TID 0000.0001)                 4.909074590409593E+10,      /* I = 69 */
(PID.TID 0000.0001)                 5.581203765722643E+10,      /* I = 70 */
(PID.TID 0000.0001)                 6.193257577506788E+10,      /* I = 71 */
(PID.TID 0000.0001)                 6.748840226738273E+10,      /* I = 72 */
(PID.TID 0000.0001)                 7.248875782324815E+10,      /* I = 73 */
(PID.TID 0000.0001)                 7.692702995909871E+10,      /* I = 74 */
(PID.TID 0000.0001)                 8.078743937057304E+10,      /* I = 75 */
(PID.TID 0000.0001)                 8.404959656062837E+10,      /* I = 76 */
(PID.TID 0000.0001)                 8.669186205742538E+10,      /* I = 77 */
(PID.TID 0000.0001)                 8.869393350723613E+10,      /* I = 78 */
(PID.TID 0000.0001)                 9.003884657168852E+10,      /* I = 79 */
(PID.TID 0000.0001)     2 @  9.071447638299399E+10,             /* I = 80: 81 */
(PID.TID 0000.0001)                 9.003884657168852E+10,      /* I = 82 */
(PID.TID 0000.0001)                 8.869393350723613E+10,      /* I = 83 */
(PID.TID 0000.0001)                 8.669186205742538E+10,      /* I = 84 */
(PID.TID 0000.0001)                 8.404959656062837E+10,      /* I = 85 */
(PID.TID 0000.0001)                 8.078743937057304E+10,      /* I = 86 */
(PID.TID 0000.0001)                 7.692702995909871E+10,      /* I = 87 */
(PID.TID 0000.0001)                 7.248875782324815E+10,      /* I = 88 */
(PID.TID 0000.0001)                 6.748840226738273E+10,      /* I = 89 */
(PID.TID 0000.0001)                 6.193257577506788E+10,      /* I = 90 */
(PID.TID 0000.0001)                 5.581203765722643E+10,      /* I = 91 */
(PID.TID 0000.0001)                 4.909074590409593E+10,      /* I = 92 */
(PID.TID 0000.0001)                 4.168532893152940E+10,      /* I = 93 */
(PID.TID 0000.0001)                 3.341968103208270E+10,      /* I = 94 */
(PID.TID 0000.0001)                 2.390126200743558E+10,      /* I = 95 */
(PID.TID 0000.0001)     2 @  1.216690346714270E+10,             /* I = 96: 97 */
(PID.TID 0000.0001)                 2.390126200743558E+10,      /* I = 98 */
(PID.TID 0000.0001)                 3.341968103208270E+10,      /* I = 99 */
(PID.TID 0000.0001)                 4.168532893152940E+10,      /* I =100 */
(PID.TID 0000.0001)                 4.909074590409593E+10,      /* I =101 */
(PID.TID 0000.0001)                 5.581203765722643E+10,      /* I =102 */
(PID.TID 0000.0001)                 6.193257577506788E+10,      /* I =103 */
(PID.TID 0000.0001)                 6.748840226738273E+10,      /* I =104 */
(PID.TID 0000.0001)                 7.248875782324815E+10,      /* I =105 */
(PID.TID 0000.0001)                 7.692702995909871E+10,      /* I =106 */
(PID.TID 0000.0001)                 8.078743937057304E+10,      /* I =107 */
(PID.TID 0000.0001)                 8.404959656062837E+10,      /* I =108 */
(PID.TID 0000.0001)                 8.669186205742538E+10,      /* I =109 */
(PID.TID 0000.0001)                 8.869393350723613E+10,      /* I =110 */
(PID.TID 0000.0001)                 9.003884657168852E+10,      /* I =111 */
(PID.TID 0000.0001)     2 @  9.071447638299399E+10,             /* I =112:113 */
(PID.TID 0000.0001)                 9.003884657168852E+10,      /* I =114 */
(PID.TID 0000.0001)                 8.869393350723613E+10,      /* I =115 */
(PID.TID 0000.0001)                 8.669186205742538E+10,      /* I =116 */
(PID.TID 0000.0001)                 8.404959656062837E+10,      /* I =117 */
(PID.TID 0000.0001)                 8.078743937057304E+10,      /* I =118 */
(PID.TID 0000.0001)                 7.692702995909871E+10,      /* I =119 */
(PID.TID 0000.0001)                 7.248875782324815E+10,      /* I =120 */
(PID.TID 0000.0001)                 6.748840226738273E+10,      /* I =121 */
(PID.TID 0000.0001)                 6.193257577506788E+10,      /* I =122 */
(PID.TID 0000.0001)                 5.581203765722643E+10,      /* I =123 */
(PID.TID 0000.0001)                 4.909074590409593E+10,      /* I =124 */
(PID.TID 0000.0001)                 4.168532893152940E+10,      /* I =125 */
(PID.TID 0000.0001)                 3.341968103208270E+10,      /* I =126 */
(PID.TID 0000.0001)                 2.390126200743558E+10,      /* I =127 */
(PID.TID 0000.0001)     2 @  1.216690346714270E+10,             /* I =128:129 */
(PID.TID 0000.0001)                 2.390126200743558E+10,      /* I =130 */
(PID.TID 0000.0001)                 3.341968103208270E+10,      /* I =131 */
(PID.TID 0000.0001)                 4.168532893152940E+10,      /* I =132 */
(PID.TID 0000.0001)                 4.909074590409593E+10,      /* I =133 */
(PID.TID 0000.0001)                 5.581203765722643E+10,      /* I =134 */
(PID.TID 0000.0001)                 6.193257577506788E+10,      /* I =135 */
(PID.TID 0000.0001)                 6.748840226738273E+10,      /* I =136 */
(PID.TID 0000.0001)                 7.248875782324815E+10,      /* I =137 */
(PID.TID 0000.0001)                 7.692702995909871E+10,      /* I =138 */
(PID.TID 0000.0001)                 8.078743937057304E+10,      /* I =139 */
(PID.TID 0000.0001)                 8.404959656062837E+10,      /* I =140 */
(PID.TID 0000.0001)                 8.669186205742538E+10,      /* I =141 */
(PID.TID 0000.0001)                 8.869393350723613E+10,      /* I =142 */
(PID.TID 0000.0001)                 9.003884657168852E+10,      /* I =143 */
(PID.TID 0000.0001)     2 @  9.071447638299399E+10,             /* I =144:145 */
(PID.TID 0000.0001)                 9.003884657168852E+10,      /* I =146 */
(PID.TID 0000.0001)                 8.869393350723613E+10,      /* I =147 */
(PID.TID 0000.0001)                 8.669186205742538E+10,      /* I =148 */
(PID.TID 0000.0001)                 8.404959656062837E+10,      /* I =149 */
(PID.TID 0000.0001)                 8.078743937057304E+10,      /* I =150 */
(PID.TID 0000.0001)                 7.692702995909871E+10,      /* I =151 */
(PID.TID 0000.0001)                 7.248875782324815E+10,      /* I =152 */
(PID.TID 0000.0001)                 6.748840226738273E+10,      /* I =153 */
(PID.TID 0000.0001)                 6.193257577506788E+10,      /* I =154 */
(PID.TID 0000.0001)                 5.581203765722643E+10,      /* I =155 */
(PID.TID 0000.0001)                 4.909074590409593E+10,      /* I =156 */
(PID.TID 0000.0001)                 4.168532893152940E+10,      /* I =157 */
(PID.TID 0000.0001)                 3.341968103208270E+10,      /* I =158 */
(PID.TID 0000.0001)                 2.390126200743558E+10,      /* I =159 */
(PID.TID 0000.0001)     2 @  1.216690346714270E+10,             /* I =160:161 */
(PID.TID 0000.0001)                 2.390126200743558E+10,      /* I =162 */
(PID.TID 0000.0001)                 3.341968103208270E+10,      /* I =163 */
(PID.TID 0000.0001)                 4.168532893152940E+10,      /* I =164 */
(PID.TID 0000.0001)                 4.909074590409593E+10,      /* I =165 */
(PID.TID 0000.0001)                 5.581203765722643E+10,      /* I =166 */
(PID.TID 0000.0001)                 6.193257577506788E+10,      /* I =167 */
(PID.TID 0000.0001)                 6.748840226738273E+10,      /* I =168 */
(PID.TID 0000.0001)                 7.248875782324815E+10,      /* I =169 */
(PID.TID 0000.0001)                 7.692702995909871E+10,      /* I =170 */
(PID.TID 0000.0001)                 8.078743937057304E+10,      /* I =171 */
(PID.TID 0000.0001)                 8.404959656062837E+10,      /* I =172 */
(PID.TID 0000.0001)                 8.669186205742538E+10,      /* I =173 */
(PID.TID 0000.0001)                 8.869393350723613E+10,      /* I =174 */
(PID.TID 0000.0001)                 9.003884657168852E+10,      /* I =175 */
(PID.TID 0000.0001)     2 @  9.071447638299399E+10,             /* I =176:177 */
(PID.TID 0000.0001)                 9.003884657168852E+10,      /* I =178 */
(PID.TID 0000.0001)                 8.869393350723613E+10,      /* I =179 */
(PID.TID 0000.0001)                 8.669186205742538E+10,      /* I =180 */
(PID.TID 0000.0001)                 8.404959656062837E+10,      /* I =181 */
(PID.TID 0000.0001)                 8.078743937057304E+10,      /* I =182 */
(PID.TID 0000.0001)                 7.692702995909871E+10,      /* I =183 */
(PID.TID 0000.0001)                 7.248875782324815E+10,      /* I =184 */
(PID.TID 0000.0001)                 6.748840226738273E+10,      /* I =185 */
(PID.TID 0000.0001)                 6.193257577506788E+10,      /* I =186 */
(PID.TID 0000.0001)                 5.581203765722643E+10,      /* I =187 */
(PID.TID 0000.0001)                 4.909074590409593E+10,      /* I =188 */
(PID.TID 0000.0001)                 4.168532893152940E+10,      /* I =189 */
(PID.TID 0000.0001)                 3.341968103208270E+10,      /* I =190 */
(PID.TID 0000.0001)                 2.390126200743558E+10,      /* I =191 */
(PID.TID 0000.0001)                 1.216690346714270E+10       /* I =192 */
(PID.TID 0000.0001)     ;
(PID.TID 0000.0001) rAs =  /* rAs(1,:,1,:) ( units: m^2 ) */
(PID.TID 0000.0001)                 1.216690346714270E+10,      /* J =  1 */
(PID.TID 0000.0001)                 1.974052138506315E+10,      /* J =  2 */
(PID.TID 0000.0001)                 2.943712825252015E+10,      /* J =  3 */
(PID.TID 0000.0001)                 3.801790263324359E+10,      /* J =  4 */
(PID.TID 0000.0001)                 4.571243814189866E+10,      /* J =  5 */
(PID.TID 0000.0001)                 5.269930713599979E+10,      /* J =  6 */
(PID.TID 0000.0001)                 5.907428494299063E+10,      /* J =  7 */
(PID.TID 0000.0001)                 6.488320895111514E+10,      /* J =  8 */
(PID.TID 0000.0001)                 7.014205907741882E+10,      /* J =  9 */
(PID.TID 0000.0001)                 7.484854821847499E+10,      /* J = 10 */
(PID.TID 0000.0001)                 7.898934631431560E+10,      /* J = 11 */
(PID.TID 0000.0001)                 8.254500894894537E+10,      /* J = 12 */
(PID.TID 0000.0001)                 8.549360686473492E+10,      /* J = 13 */
(PID.TID 0000.0001)                 8.781353403175085E+10,      /* J = 14 */
(PID.TID 0000.0001)                 8.948571540392021E+10,      /* J = 15 */
(PID.TID 0000.0001)                 9.049530583086168E+10,      /* J = 16 */
(PID.TID 0000.0001)                 9.083293515008307E+10,      /* J = 17 */
(PID.TID 0000.0001)                 9.049530583087070E+10,      /* J = 18 */
(PID.TID 0000.0001)                 8.948571540391121E+10,      /* J = 19 */
(PID.TID 0000.0001)                 8.781353403174185E+10,      /* J = 20 */
(PID.TID 0000.0001)                 8.549360686467184E+10,      /* J = 21 */
(PID.TID 0000.0001)                 8.254500894890933E+10,      /* J = 22 */
(PID.TID 0000.0001)                 7.898934631434262E+10,      /* J = 23 */
(PID.TID 0000.0001)                 7.484854821844795E+10,      /* J = 24 */
(PID.TID 0000.0001)                 7.014205907742783E+10,      /* J = 25 */
(PID.TID 0000.0001)                 6.488320895111514E+10,      /* J = 26 */
(PID.TID 0000.0001)                 5.907428494299063E+10,      /* J = 27 */
(PID.TID 0000.0001)                 5.269930713599078E+10,      /* J = 28 */
(PID.TID 0000.0001)                 4.571243814190767E+10,      /* J = 29 */
(PID.TID 0000.0001)                 3.801790263325260E+10,      /* J = 30 */
(PID.TID 0000.0001)                 2.943712825251114E+10,      /* J = 31 */
(PID.TID 0000.0001)                 1.974052138509018E+10       /* J = 32 */
(PID.TID 0000.0001)     ;
(PID.TID 0000.0001) globalArea = /* Integrated horizontal Area (m^2) */
(PID.TID 0000.0001)                 5.099043637817220E+14
(PID.TID 0000.0001)     ;
(PID.TID 0000.0001) // =======================================================
(PID.TID 0000.0001) // End of Model config. summary
(PID.TID 0000.0001) // =======================================================
(PID.TID 0000.0001) 
(PID.TID 0000.0001) // =======================================================
(PID.TID 0000.0001) // Field Ocean mixed-layer depth on atmos grid at iteration          1
(PID.TID 0000.0001) // CMIN =          5.000000000000000E+01
(PID.TID 0000.0001) // CMAX =          5.000000000000000E+01
(PID.TID 0000.0001) // CINT =          0.000000000000000E+00
(PID.TID 0000.0001) // SYMBOLS (CMIN->CMAX): -abcdefghijklmnopqrstuvwxyz+
(PID.TID 0000.0001) //                  0.0: .
(PID.TID 0000.0001) // RANGE I (Lo:Hi:Step):(  -1: 194:   1)
(PID.TID 0000.0001) // RANGE J (Lo:Hi:Step):(  34:  -1:  -1)
(PID.TID 0000.0001) // RANGE K (Lo:Hi:Step):(   1:   1:   1)
(PID.TID 0000.0001) // =======================================================
(PID.TID 0000.0001) // =======================================================
(PID.TID 0000.0001) // END OF FIELD                                          =
(PID.TID 0000.0001) // =======================================================
(PID.TID 0000.0001) 
(PID.TID 0000.0001) // =======================================================
(PID.TID 0000.0001) // Field Initial Temperature at iteration          1
(PID.TID 0000.0001) // CMIN =          2.896000000000000E+02
(PID.TID 0000.0001) // CMAX =          2.896000000000000E+02
(PID.TID 0000.0001) // CINT =          0.000000000000000E+00
(PID.TID 0000.0001) // SYMBOLS (CMIN->CMAX): -abcdefghijklmnopqrstuvwxyz+
(PID.TID 0000.0001) //                  0.0: .
(PID.TID 0000.0001) // RANGE I (Lo:Hi:Step):(   1: 192:   1)
(PID.TID 0000.0001) // RANGE J (Lo:Hi:Step):(  32:   1:  -1)
(PID.TID 0000.0001) // RANGE K (Lo:Hi:Step):(   1:   1:   1)
(PID.TID 0000.0001) // =======================================================
(PID.TID 0000.0001) // =======================================================
(PID.TID 0000.0001) // END OF FIELD                                          =
(PID.TID 0000.0001) // =======================================================
(PID.TID 0000.0001) 
(PID.TID 0000.0001) // =======================================================
(PID.TID 0000.0001) // Field Initial Salinity at iteration          1
(PID.TID 0000.0001) // CMIN =          1.000000000000000E+32
(PID.TID 0000.0001) // CMAX =         -1.000000000000000E+32
(PID.TID 0000.0001) // CINT =          0.000000000000000E+00
(PID.TID 0000.0001) // SYMBOLS (CMIN->CMAX): -abcdefghijklmnopqrstuvwxyz+
(PID.TID 0000.0001) //                  0.0: .
(PID.TID 0000.0001) // RANGE I (Lo:Hi:Step):(   1: 192:   1)
(PID.TID 0000.0001) // RANGE J (Lo:Hi:Step):(  32:   1:  -1)
(PID.TID 0000.0001) // RANGE K (Lo:Hi:Step):(   1:   1:   1)
(PID.TID 0000.0001) // =======================================================
(PID.TID 0000.0001) // =======================================================
(PID.TID 0000.0001) // END OF FIELD                                          =
(PID.TID 0000.0001) // =======================================================
(PID.TID 0000.0001) 
(PID.TID 0000.0001) Start initial hydrostatic pressure computation
(PID.TID 0000.0001) Pressure is predetermined for buoyancyRelation ATMOSPHERIC
(PID.TID 0000.0001) 
(PID.TID 0000.0001)  MDS_READ_FIELD: opening global file: land_grT_ini.cpl.bin
(PID.TID 0000.0001)  MDS_READ_FIELD: opening global file: land_grW_ini.mn.bin
(PID.TID 0000.0001)  MDS_READ_FIELD: opening global file: land_snw_ini.cpl.bin
(PID.TID 0000.0001) // =======================================================
(PID.TID 0000.0001) // Model current state
(PID.TID 0000.0001) // =======================================================
(PID.TID 0000.0001) 
(PID.TID 0000.0001) // =======================================================
(PID.TID 0000.0001) // Begin MONITOR dynamic field statistics
(PID.TID 0000.0001) // =======================================================
(PID.TID 0000.0001) %MON time_tsnumber                =                     0
(PID.TID 0000.0001) %MON time_secondsf                =   0.0000000000000E+00
(PID.TID 0000.0001) %MON dynstat_eta_max              =   0.0000000000000E+00
(PID.TID 0000.0001) %MON dynstat_eta_min              =   0.0000000000000E+00
(PID.TID 0000.0001) %MON dynstat_eta_mean             =   0.0000000000000E+00
(PID.TID 0000.0001) %MON dynstat_eta_sd               =   0.0000000000000E+00
(PID.TID 0000.0001) %MON dynstat_eta_del2             =   0.0000000000000E+00
(PID.TID 0000.0001) %MON dynstat_uvel_max             =   0.0000000000000E+00
(PID.TID 0000.0001) %MON dynstat_uvel_min             =   0.0000000000000E+00
(PID.TID 0000.0001) %MON dynstat_uvel_mean            =   0.0000000000000E+00
(PID.TID 0000.0001) %MON dynstat_uvel_sd              =   0.0000000000000E+00
(PID.TID 0000.0001) %MON dynstat_uvel_del2            =   0.0000000000000E+00
(PID.TID 0000.0001) %MON dynstat_vvel_max             =   0.0000000000000E+00
(PID.TID 0000.0001) %MON dynstat_vvel_min             =   0.0000000000000E+00
(PID.TID 0000.0001) %MON dynstat_vvel_mean            =   0.0000000000000E+00
(PID.TID 0000.0001) %MON dynstat_vvel_sd              =   0.0000000000000E+00
(PID.TID 0000.0001) %MON dynstat_vvel_del2            =   0.0000000000000E+00
(PID.TID 0000.0001) %MON dynstat_wvel_max             =   0.0000000000000E+00
(PID.TID 0000.0001) %MON dynstat_wvel_min             =   0.0000000000000E+00
(PID.TID 0000.0001) %MON dynstat_wvel_mean            =   0.0000000000000E+00
(PID.TID 0000.0001) %MON dynstat_wvel_sd              =   0.0000000000000E+00
(PID.TID 0000.0001) %MON dynstat_wvel_del2            =   0.0000000000000E+00
(PID.TID 0000.0001) %MON dynstat_theta_max            =   4.3740000000000E+02
(PID.TID 0000.0001) %MON dynstat_theta_min            =   2.8960000000000E+02
(PID.TID 0000.0001) %MON dynstat_theta_mean           =   3.3171566851928E+02
(PID.TID 0000.0001) %MON dynstat_theta_sd             =   4.7418367738381E+01
(PID.TID 0000.0001) %MON dynstat_theta_del2           =   0.0000000000000E+00
(PID.TID 0000.0001) %MON dynstat_salt_max             =   0.0000000000000E+00
(PID.TID 0000.0001) %MON dynstat_salt_min             =   0.0000000000000E+00
(PID.TID 0000.0001) %MON dynstat_salt_mean            =   0.0000000000000E+00
(PID.TID 0000.0001) %MON dynstat_salt_sd              =   0.0000000000000E+00
(PID.TID 0000.0001) %MON dynstat_salt_del2            =   0.0000000000000E+00
(PID.TID 0000.0001) %MON advcfl_uvel_max              =   0.0000000000000E+00
(PID.TID 0000.0001) %MON advcfl_vvel_max              =   0.0000000000000E+00
(PID.TID 0000.0001) %MON advcfl_wvel_max              =   0.0000000000000E+00
(PID.TID 0000.0001) %MON advcfl_W_hf_max              =   0.0000000000000E+00
(PID.TID 0000.0001) %MON pe_b_mean                    =   0.0000000000000E+00
(PID.TID 0000.0001) %MON ke_max                       =   0.0000000000000E+00
(PID.TID 0000.0001) %MON ke_mean                      =   0.0000000000000E+00
(PID.TID 0000.0001) %MON ke_vol                       =   4.9523908919847E+19
(PID.TID 0000.0001) %MON vort_r_min                   =   0.0000000000000E+00
(PID.TID 0000.0001) %MON vort_r_max                   =   0.0000000000000E+00
(PID.TID 0000.0001) %MON vort_a_mean                  =   6.7242814765318E-08
(PID.TID 0000.0001) %MON vort_a_sd                    =   8.3936822068631E-05
(PID.TID 0000.0001) %MON vort_p_mean                  =   6.8939448519602E-08
(PID.TID 0000.0001) %MON vort_p_sd                    =   9.1626513531368E-05
(PID.TID 0000.0001) %MON surfExpan_theta_mean         =   0.0000000000000E+00
(PID.TID 0000.0001) %MON surfExpan_salt_mean          =   0.0000000000000E+00
(PID.TID 0000.0001) %MON surfExpan_Heat_mean          =   0.0000000000000E+00
(PID.TID 0000.0001) %MON En_Budget_T2PE_mean          =   0.0000000000000E+00
(PID.TID 0000.0001) // =======================================================
(PID.TID 0000.0001) // End MONITOR dynamic field statistics
(PID.TID 0000.0001) // =======================================================
(PID.TID 0000.0001) // =======================================================
(PID.TID 0000.0001) // Begin MONITOR Land statistics
(PID.TID 0000.0001) // =======================================================
(PID.TID 0000.0001) %MON land_time_sec                =   0.0000000000000E+00
(PID.TID 0000.0001) %MON land_SnwH_ave_G              =   1.5327595968918E-01
(PID.TID 0000.0001) %MON land_SnwH_ave_S              =   5.5906277570341E-01
(PID.TID 0000.0001) %MON land_SnwH_ave_T              =   2.7405468051285E-07
(PID.TID 0000.0001) %MON land_SnwH_ave_N              =   1.2399418417812E-01
(PID.TID 0000.0001) %MON land_SnwH_max_S              =   1.0000000000000E+00
(PID.TID 0000.0001) %MON land_SnwH_max_T              =   7.7654719504950E-05
(PID.TID 0000.0001) %MON land_SnwH_max_N              =   1.0000000000000E+00
(PID.TID 0000.0001) %MON land_TotEnerg_G              =  -6.2318014275423E+21
(PID.TID 0000.0001) %MON land_TotEnerg_S              =  -4.9893442833974E+21
(PID.TID 0000.0001) %MON land_TotEnerg_T              =   7.3640891470528E+21
(PID.TID 0000.0001) %MON land_TotEnerg_N              =  -8.6065462911976E+21
(PID.TID 0000.0001) %MON land_Tsrf_ave_G              =  -2.5815959216687E+00
(PID.TID 0000.0001) %MON land_Tsrf_ave_S              =  -3.3132697963695E+00
(PID.TID 0000.0001) %MON land_Tsrf_ave_T              =   2.0149199094728E+01
(PID.TID 0000.0001) %MON land_Tsrf_ave_N              =  -1.7523201785581E+01
(PID.TID 0000.0001) %MON land_Tsrf_min_S              =  -3.8985871813098E+01
(PID.TID 0000.0001) %MON land_Tsrf_min_T              =  -8.0316451094858E+00
(PID.TID 0000.0001) %MON land_Tsrf_min_N              =  -5.5018877502675E+01
(PID.TID 0000.0001) %MON land_Tsrf_max_S              =   3.3608904510445E+01
(PID.TID 0000.0001) %MON land_Tsrf_max_T              =   3.7568273139015E+01
(PID.TID 0000.0001) %MON land_Tsrf_max_N              =   1.5686208531239E+01
(PID.TID 0000.0001) %MON land_Tgr1_ave_G              =  -2.5815959216687E+00
(PID.TID 0000.0001) %MON land_Tgr1_ave_S              =  -3.3132697963695E+00
(PID.TID 0000.0001) %MON land_Tgr1_ave_T              =   2.0149199094728E+01
(PID.TID 0000.0001) %MON land_Tgr1_ave_N              =  -1.7523201785581E+01
(PID.TID 0000.0001) %MON land_Tgr1_min_S              =  -3.8985871813098E+01
(PID.TID 0000.0001) %MON land_Tgr1_min_T              =  -8.0316451094858E+00
(PID.TID 0000.0001) %MON land_Tgr1_min_N              =  -5.5018877502675E+01
(PID.TID 0000.0001) %MON land_Tgr1_max_S              =   3.3608904510445E+01
(PID.TID 0000.0001) %MON land_Tgr1_max_T              =   3.7568273139015E+01
(PID.TID 0000.0001) %MON land_Tgr1_max_N              =   1.5686208531239E+01
(PID.TID 0000.0001) %MON land_Tgr2_ave_G              =   4.2075844789702E+00
(PID.TID 0000.0001) %MON land_Tgr2_ave_S              =  -1.8731900381715E+01
(PID.TID 0000.0001) %MON land_Tgr2_ave_T              =   2.2013117275370E+01
(PID.TID 0000.0001) %MON land_Tgr2_ave_N              =  -2.4099755438273E-01
(PID.TID 0000.0001) %MON land_Tgr2_min_S              =  -6.4762296561906E+01
(PID.TID 0000.0001) %MON land_Tgr2_min_T              =  -9.7051070040243E+00
(PID.TID 0000.0001) %MON land_Tgr2_min_N              =  -4.0193619391069E+01
(PID.TID 0000.0001) %MON land_Tgr2_max_S              =   2.3360008819708E+01
(PID.TID 0000.0001) %MON land_Tgr2_max_T              =   3.1360925912704E+01
(PID.TID 0000.0001) %MON land_Tgr2_max_N              =   2.9833038898793E+01
(PID.TID 0000.0001) %MON land_grdW_ave_G              =   4.8705004606900E-01
(PID.TID 0000.0001) %MON land_grdW_ave_S              =   3.0877764965169E-01
(PID.TID 0000.0001) %MON land_grdW_ave_T              =   5.6494425086260E-01
(PID.TID 0000.0001) %MON land_grdW_ave_N              =   4.9286506610416E-01
(PID.TID 0000.0001) %MON land_grdW_min_S              =   2.5944074829007E-02
(PID.TID 0000.0001) %MON land_grdW_min_T              =   0.0000000000000E+00
(PID.TID 0000.0001) %MON land_grdW_min_N              =   0.0000000000000E+00
(PID.TID 0000.0001) // =======================================================
(PID.TID 0000.0001) // End MONITOR Land statistics
(PID.TID 0000.0001) // =======================================================
(PID.TID 0000.0001) // =======================================================
(PID.TID 0000.0001) // Begin MONITOR Therm.SeaIce statistics
(PID.TID 0000.0001) // =======================================================
(PID.TID 0000.0001) %MON thSI_time_sec                =   0.0000000000000E+00
(PID.TID 0000.0001) %MON thSI_Ice_Area_G              =   0.0000000000000E+00
(PID.TID 0000.0001) %MON thSI_Ice_Area_S              =   0.0000000000000E+00
(PID.TID 0000.0001) %MON thSI_Ice_Area_N              =   0.0000000000000E+00
(PID.TID 0000.0001) %MON thSI_IceH_ave_G              =   0.0000000000000E+00
(PID.TID 0000.0001) %MON thSI_IceH_ave_S              =   0.0000000000000E+00
(PID.TID 0000.0001) %MON thSI_IceH_ave_N              =   0.0000000000000E+00
(PID.TID 0000.0001) %MON thSI_IceH_max_S              =   0.0000000000000E+00
(PID.TID 0000.0001) %MON thSI_IceH_max_N              =   0.0000000000000E+00
(PID.TID 0000.0001) %MON thSI_SnwH_ave_G              =   0.0000000000000E+00
(PID.TID 0000.0001) %MON thSI_SnwH_ave_S              =   0.0000000000000E+00
(PID.TID 0000.0001) %MON thSI_SnwH_ave_N              =   0.0000000000000E+00
(PID.TID 0000.0001) %MON thSI_SnwH_max_S              =   0.0000000000000E+00
(PID.TID 0000.0001) %MON thSI_SnwH_max_N              =   0.0000000000000E+00
(PID.TID 0000.0001) %MON thSI_TotEnerg_G              =   0.0000000000000E+00
(PID.TID 0000.0001) %MON thSI_Tsrf_ave_G              =   0.0000000000000E+00
(PID.TID 0000.0001) %MON thSI_Tsrf_ave_S              =   0.0000000000000E+00
(PID.TID 0000.0001) %MON thSI_Tsrf_ave_N              =   0.0000000000000E+00
(PID.TID 0000.0001) %MON thSI_Tsrf_min_S              =   0.0000000000000E+00
(PID.TID 0000.0001) %MON thSI_Tsrf_min_N              =   0.0000000000000E+00
(PID.TID 0000.0001) %MON thSI_Tsrf_max_S              =   0.0000000000000E+00
(PID.TID 0000.0001) %MON thSI_Tsrf_max_N              =   0.0000000000000E+00
(PID.TID 0000.0001) %MON thSI_Tic1_ave_G              =   0.0000000000000E+00
(PID.TID 0000.0001) %MON thSI_Tic1_ave_S              =   0.0000000000000E+00
(PID.TID 0000.0001) %MON thSI_Tic1_ave_N              =   0.0000000000000E+00
(PID.TID 0000.0001) %MON thSI_Tic1_min_S              =   0.0000000000000E+00
(PID.TID 0000.0001) %MON thSI_Tic1_min_N              =   0.0000000000000E+00
(PID.TID 0000.0001) %MON thSI_Tic1_max_S              =   0.0000000000000E+00
(PID.TID 0000.0001) %MON thSI_Tic1_max_N              =   0.0000000000000E+00
(PID.TID 0000.0001) %MON thSI_Tic2_ave_G              =   0.0000000000000E+00
(PID.TID 0000.0001) %MON thSI_Tic2_ave_S              =   0.0000000000000E+00
(PID.TID 0000.0001) %MON thSI_Tic2_ave_N              =   0.0000000000000E+00
(PID.TID 0000.0001) %MON thSI_Tic2_min_S              =   0.0000000000000E+00
(PID.TID 0000.0001) %MON thSI_Tic2_min_N              =   0.0000000000000E+00
(PID.TID 0000.0001) %MON thSI_Tic2_max_S              =   0.0000000000000E+00
(PID.TID 0000.0001) %MON thSI_Tic2_max_N              =   0.0000000000000E+00
(PID.TID 0000.0001) // =======================================================
(PID.TID 0000.0001) // End MONITOR Therm.SeaIce statistics
(PID.TID 0000.0001) // =======================================================
(PID.TID 0000.0001)  MDS_READ_FIELD: opening global file: albedo_cs32.bin
(PID.TID 0000.0001)  MDS_READ_FIELD: opening global file: vegetFrc.cpl_FM.bin
(PID.TID 0000.0001)  MDS_READ_FIELD: opening global file: seaSurfT.cpl_FM.bin
(PID.TID 0000.0001)  MDS_READ_FIELD: opening global file: seaSurfT.cpl_FM.bin
(PID.TID 0000.0001)  MDS_READ_FIELD: opening global file: lndSurfT.cpl_FM.bin
(PID.TID 0000.0001)  MDS_READ_FIELD: opening global file: lndSurfT.cpl_FM.bin
(PID.TID 0000.0001)  MDS_READ_FIELD: opening global file: seaIce.cpl3FM.bin
(PID.TID 0000.0001)  MDS_READ_FIELD: opening global file: seaIce.cpl3FM.bin
(PID.TID 0000.0001)  MDS_READ_FIELD: opening global file: snowDepth.cpl_FM.bin
(PID.TID 0000.0001)  MDS_READ_FIELD: opening global file: snowDepth.cpl_FM.bin
(PID.TID 0000.0001)  MDS_READ_FIELD: opening global file: soilMoist.cpl_FM.bin
(PID.TID 0000.0001)  MDS_READ_FIELD: opening global file: soilMoist.cpl_FM.bin
(PID.TID 0000.0001)  MDS_READ_FIELD: opening global file: soilMoist.cpl_FM.bin
(PID.TID 0000.0001)  MDS_READ_FIELD: opening global file: soilMoist.cpl_FM.bin
 cg2d: Sum(rhs),rhsMax =   3.97903932025656E-12  4.56406615217961E+03
(PID.TID 0000.0001)                    cg2d_init_res =    2.69435642942126E+04
(PID.TID 0000.0001)                       cg2d_iters =    16
(PID.TID 0000.0001)                         cg2d_res =    1.06445831620481E-10
(PID.TID 0000.0001) // =======================================================
(PID.TID 0000.0001) // Begin MONITOR dynamic field statistics
(PID.TID 0000.0001) // =======================================================
(PID.TID 0000.0001) %MON time_tsnumber                =                     1
(PID.TID 0000.0001) %MON time_secondsf                =   4.5000000000000E+02
(PID.TID 0000.0001) %MON dynstat_eta_max              =   4.9613836014184E+02
(PID.TID 0000.0001) %MON dynstat_eta_min              =  -4.3215362210608E+02
(PID.TID 0000.0001) %MON dynstat_eta_mean             =  -5.2166645138552E-17
(PID.TID 0000.0001) %MON dynstat_eta_sd               =   4.9165804759269E+01
(PID.TID 0000.0001) %MON dynstat_eta_del2             =   1.4268407331310E+01
(PID.TID 0000.0001) %MON dynstat_uvel_max             =   3.4896271935293E+00
(PID.TID 0000.0001) %MON dynstat_uvel_min             =  -2.8043477370503E+00
(PID.TID 0000.0001) %MON dynstat_uvel_mean            =  -8.6186344161884E-04
(PID.TID 0000.0001) %MON dynstat_uvel_sd              =   2.3938982710456E-01
(PID.TID 0000.0001) %MON dynstat_uvel_del2            =   3.3130023277177E-02
(PID.TID 0000.0001) %MON dynstat_vvel_max             =   3.6044902563287E+00
(PID.TID 0000.0001) %MON dynstat_vvel_min             =  -3.8832729647589E+00
(PID.TID 0000.0001) %MON dynstat_vvel_mean            =   1.0770655299200E-03
(PID.TID 0000.0001) %MON dynstat_vvel_sd              =   2.3140373950851E-01
(PID.TID 0000.0001) %MON dynstat_vvel_del2            =   3.3576370990052E-02
(PID.TID 0000.0001) %MON dynstat_wvel_max             =   4.7528267180664E-02
(PID.TID 0000.0001) %MON dynstat_wvel_min             =  -3.2491026139051E-01
(PID.TID 0000.0001) %MON dynstat_wvel_mean            =  -1.2601788696702E-03
(PID.TID 0000.0001) %MON dynstat_wvel_sd              =   1.0323039191429E-02
(PID.TID 0000.0001) %MON dynstat_wvel_del2            =   1.1364719435226E-03
(PID.TID 0000.0001) %MON dynstat_theta_max            =   4.3742421279788E+02
(PID.TID 0000.0001) %MON dynstat_theta_min            =   2.8934446142054E+02
(PID.TID 0000.0001) %MON dynstat_theta_mean           =   3.3171676172326E+02
(PID.TID 0000.0001) %MON dynstat_theta_sd             =   4.7417133656499E+01
(PID.TID 0000.0001) %MON dynstat_theta_del2           =   1.8580024936099E-03
(PID.TID 0000.0001) %MON dynstat_salt_max             =   4.8330616477211E-01
(PID.TID 0000.0001) %MON dynstat_salt_min             =  -3.6263106967984E-03
(PID.TID 0000.0001) %MON dynstat_salt_mean            =   4.0262311598958E-03
(PID.TID 0000.0001) %MON dynstat_salt_sd              =   1.7723624218200E-02
(PID.TID 0000.0001) %MON dynstat_salt_del2            =   7.7663633143347E-04
(PID.TID 0000.0001) %MON advcfl_uvel_max              =   5.0093339770585E-03
(PID.TID 0000.0001) %MON advcfl_vvel_max              =   5.5233695889847E-03
(PID.TID 0000.0001) %MON advcfl_wvel_max              =   5.3167133682084E-03
(PID.TID 0000.0001) %MON advcfl_W_hf_max              =   1.3330281514811E-02
(PID.TID 0000.0001) %MON pe_b_mean                    =  -1.2347200430462E-01
(PID.TID 0000.0001) %MON ke_max                       =   6.1065189290563E+00
(PID.TID 0000.0001) %MON ke_mean                      =   5.5101768014871E-02
(PID.TID 0000.0001) %MON ke_vol                       =   4.9523908919847E+19
(PID.TID 0000.0001) %MON vort_r_min                   =  -9.4580139346488E-06
(PID.TID 0000.0001) %MON vort_r_max                   =   7.4909088464658E-06
(PID.TID 0000.0001) %MON vort_a_mean                  =   6.7242814765328E-08
(PID.TID 0000.0001) %MON vort_a_sd                    =   8.3936940089773E-05
(PID.TID 0000.0001) %MON vort_p_mean                  =   6.8939448519615E-08
(PID.TID 0000.0001) %MON vort_p_sd                    =   9.1622197174781E-05
(PID.TID 0000.0001) %MON surfExpan_theta_mean         =   1.1973318489192E-01
(PID.TID 0000.0001) %MON surfExpan_salt_mean          =   8.6085474370720E-07
(PID.TID 0000.0001) %MON surfExpan_Heat_mean          =  -9.8253401830277E+00
(PID.TID 0000.0001) %MON En_Budget_T2PE_mean          =   1.8746049275873E+01
(PID.TID 0000.0001) // =======================================================
(PID.TID 0000.0001) // End MONITOR dynamic field statistics
(PID.TID 0000.0001) // =======================================================
(PID.TID 0000.0001) // =======================================================
(PID.TID 0000.0001) // Begin MONITOR Land statistics
(PID.TID 0000.0001) // =======================================================
(PID.TID 0000.0001) %MON land_time_sec                =   4.5000000000000E+02
(PID.TID 0000.0001) %MON land_SnwH_ave_G              =   1.5324899397338E-01
(PID.TID 0000.0001) %MON land_SnwH_ave_S              =   5.5906218965844E-01
(PID.TID 0000.0001) %MON land_SnwH_ave_T              =   0.0000000000000E+00
(PID.TID 0000.0001) %MON land_SnwH_ave_N              =   1.2394083715153E-01
(PID.TID 0000.0001) %MON land_SnwH_max_S              =   9.9999995109566E-01
(PID.TID 0000.0001) %MON land_SnwH_max_T              =   0.0000000000000E+00
(PID.TID 0000.0001) %MON land_SnwH_max_N              =   9.9999994050054E-01
(PID.TID 0000.0001) %MON LAND : Area= 1.460176263E+14 ; Lat sep= -24.00  24.00
(PID.TID 0000.0001) %MON LAND : LatA= 2.377676559E+13 4.894489218E+13 7.329596851E+13
(PID.TID 0000.0001) %MON land_TotEnerg_G              =  -6.2449515374219E+21
(PID.TID 0000.0001) %MON land_TotEnerg_S              =  -4.9909822313117E+21
(PID.TID 0000.0001) %MON land_TotEnerg_T              =   7.3535791679035E+21
(PID.TID 0000.0001) %MON land_TotEnerg_N              =  -8.6075484740138E+21
(PID.TID 0000.0001) %MON land_Tsrf_ave_G              =  -4.5052770691886E+00
(PID.TID 0000.0001) %MON land_Tsrf_ave_S              =  -4.8557437392646E+00
(PID.TID 0000.0001) %MON land_Tsrf_ave_T              =   1.8966286014486E+01
(PID.TID 0000.0001) %MON land_Tsrf_ave_N              =  -2.0065207357261E+01
(PID.TID 0000.0001) %MON land_Tsrf_min_S              =  -3.4789766254951E+01
(PID.TID 0000.0001) %MON land_Tsrf_min_T              =  -7.7792666782447E+00
(PID.TID 0000.0001) %MON land_Tsrf_min_N              =  -5.2214355600519E+01
(PID.TID 0000.0001) %MON land_Tsrf_max_S              =   3.1948450259187E+01
(PID.TID 0000.0001) %MON land_Tsrf_max_T              =   3.5749274328408E+01
(PID.TID 0000.0001) %MON land_Tsrf_max_N              =   1.5372300088674E+01
(PID.TID 0000.0001) %MON land_Tgr1_ave_G              =  -3.1128744327563E+00
(PID.TID 0000.0001) %MON land_Tgr1_ave_S              =  -3.7817603349593E+00
(PID.TID 0000.0001) %MON land_Tgr1_ave_T              =   1.8966286014486E+01
(PID.TID 0000.0001) %MON land_Tgr1_ave_N              =  -1.7639705931337E+01
(PID.TID 0000.0001) %MON land_Tgr1_min_S              =  -3.8998400972344E+01
(PID.TID 0000.0001) %MON land_Tgr1_min_T              =  -7.7792666782447E+00
(PID.TID 0000.0001) %MON land_Tgr1_min_N              =  -5.5006040010541E+01
(PID.TID 0000.0001) %MON land_Tgr1_max_S              =   3.1948450259187E+01
(PID.TID 0000.0001) %MON land_Tgr1_max_T              =   3.5749274328408E+01
(PID.TID 0000.0001) %MON land_Tgr1_max_N              =   1.5372300088674E+01
(PID.TID 0000.0001) %MON land_Tgr2_ave_G              =   4.2074719542915E+00
(PID.TID 0000.0001) %MON land_Tgr2_ave_S              =  -1.8731652801597E+01
(PID.TID 0000.0001) %MON land_Tgr2_ave_T              =   2.2013064780622E+01
(PID.TID 0000.0001) %MON land_Tgr2_ave_N              =  -2.4126698108521E-01
(PID.TID 0000.0001) %MON land_Tgr2_min_S              =  -6.4761861869264E+01
(PID.TID 0000.0001) %MON land_Tgr2_min_T              =  -9.7050826694738E+00
(PID.TID 0000.0001) %MON land_Tgr2_min_N              =  -4.0193860864839E+01
(PID.TID 0000.0001) %MON land_Tgr2_max_S              =   2.3360154761154E+01
(PID.TID 0000.0001) %MON land_Tgr2_max_T              =   3.1360681941136E+01
(PID.TID 0000.0001) %MON land_Tgr2_max_N              =   2.9832408494537E+01
(PID.TID 0000.0001) %MON land_grdW_ave_G              =   4.8703719987843E-01
(PID.TID 0000.0001) %MON land_grdW_ave_S              =   3.0876198463413E-01
(PID.TID 0000.0001) %MON land_grdW_ave_T              =   5.6488810374958E-01
(PID.TID 0000.0001) %MON land_grdW_ave_N              =   4.9288204940644E-01
(PID.TID 0000.0001) %MON land_grdW_min_S              =   2.5934335757901E-02
(PID.TID 0000.0001) %MON land_grdW_min_T              =   0.0000000000000E+00
(PID.TID 0000.0001) %MON land_grdW_min_N              =   0.0000000000000E+00
(PID.TID 0000.0001) // =======================================================
(PID.TID 0000.0001) // End MONITOR Land statistics
(PID.TID 0000.0001) // =======================================================
(PID.TID 0000.0001) // =======================================================
(PID.TID 0000.0001) // Begin MONITOR Therm.SeaIce statistics
(PID.TID 0000.0001) // =======================================================
(PID.TID 0000.0001) %MON thSI_time_sec                =   4.5000000000000E+02
(PID.TID 0000.0001) %MON thSI_Ice_Area_G              =   1.6321362239017E+10
(PID.TID 0000.0001) %MON thSI_Ice_Area_S              =   0.0000000000000E+00
(PID.TID 0000.0001) %MON thSI_Ice_Area_N              =   1.6321362239017E+10
(PID.TID 0000.0001) %MON thSI_IceH_ave_G              =   9.0201168668972E-02
(PID.TID 0000.0001) %MON thSI_IceH_ave_S              =   0.0000000000000E+00
(PID.TID 0000.0001) %MON thSI_IceH_ave_N              =   9.0201168668972E-02
(PID.TID 0000.0001) %MON thSI_IceH_max_S              =   0.0000000000000E+00
(PID.TID 0000.0001) %MON thSI_IceH_max_N              =   1.0000000000000E-01
(PID.TID 0000.0001) %MON thSI_SnwH_ave_G              =   0.0000000000000E+00
(PID.TID 0000.0001) %MON thSI_SnwH_ave_S              =   0.0000000000000E+00
(PID.TID 0000.0001) %MON thSI_SnwH_ave_N              =   0.0000000000000E+00
(PID.TID 0000.0001) %MON thSI_SnwH_max_S              =   0.0000000000000E+00
(PID.TID 0000.0001) %MON thSI_SnwH_max_N              =   0.0000000000000E+00
(PID.TID 0000.0001) %MON thSI_TotEnerg_G              =  -4.4008237021629E+17
(PID.TID 0000.0001) %MON thSI_Tsrf_ave_G              =  -1.6672207727980E+00
(PID.TID 0000.0001) %MON thSI_Tsrf_ave_S              =   0.0000000000000E+00
(PID.TID 0000.0001) %MON thSI_Tsrf_ave_N              =  -1.6672207727980E+00
(PID.TID 0000.0001) %MON thSI_Tsrf_min_S              =   0.0000000000000E+00
(PID.TID 0000.0001) %MON thSI_Tsrf_min_N              =  -1.7019828369658E+00
(PID.TID 0000.0001) %MON thSI_Tsrf_max_S              =   0.0000000000000E+00
(PID.TID 0000.0001) %MON thSI_Tsrf_max_N              =  -1.6162307215484E+00
(PID.TID 0000.0001) %MON thSI_Tic1_ave_G              =  -1.6654148959328E+00
(PID.TID 0000.0001) %MON thSI_Tic1_ave_S              =   0.0000000000000E+00
(PID.TID 0000.0001) %MON thSI_Tic1_ave_N              =  -1.6654148959328E+00
(PID.TID 0000.0001) %MON thSI_Tic1_min_S              =   0.0000000000000E+00
(PID.TID 0000.0001) %MON thSI_Tic1_min_N              =  -1.7019828369658E+00
(PID.TID 0000.0001) %MON thSI_Tic1_max_S              =   0.0000000000000E+00
(PID.TID 0000.0001) %MON thSI_Tic1_max_N              =  -1.6162307215484E+00
(PID.TID 0000.0001) %MON thSI_Tic2_ave_G              =  -1.6654148959328E+00
(PID.TID 0000.0001) %MON thSI_Tic2_ave_S              =   0.0000000000000E+00
(PID.TID 0000.0001) %MON thSI_Tic2_ave_N              =  -1.6654148959328E+00
(PID.TID 0000.0001) %MON thSI_Tic2_min_S              =   0.0000000000000E+00
(PID.TID 0000.0001) %MON thSI_Tic2_min_N              =  -1.7019828369658E+00
(PID.TID 0000.0001) %MON thSI_Tic2_max_S              =   0.0000000000000E+00
(PID.TID 0000.0001) %MON thSI_Tic2_max_N              =  -1.6162307215484E+00
(PID.TID 0000.0001) // =======================================================
(PID.TID 0000.0001) // End MONITOR Therm.SeaIce statistics
(PID.TID 0000.0001) // =======================================================
 cg2d: Sum(rhs),rhsMax =  -1.00612851383630E-11  9.58133938764946E+03
(PID.TID 0000.0001)                    cg2d_init_res =    3.46523975247678E+04
(PID.TID 0000.0001)                       cg2d_iters =    17
(PID.TID 0000.0001)                         cg2d_res =    1.39031813142455E-11
(PID.TID 0000.0001) // =======================================================
(PID.TID 0000.0001) // Begin MONITOR dynamic field statistics
(PID.TID 0000.0001) // =======================================================
(PID.TID 0000.0001) %MON time_tsnumber                =                     2
(PID.TID 0000.0001) %MON time_secondsf                =   9.0000000000000E+02
(PID.TID 0000.0001) %MON dynstat_eta_max              =   1.0853914163580E+03
(PID.TID 0000.0001) %MON dynstat_eta_min              =  -1.0760016672715E+03
(PID.TID 0000.0001) %MON dynstat_eta_mean             =  -1.5532324417193E-16
(PID.TID 0000.0001) %MON dynstat_eta_sd               =   1.1831655799719E+02
(PID.TID 0000.0001) %MON dynstat_eta_del2             =   2.9872886790151E+01
(PID.TID 0000.0001) %MON dynstat_uvel_max             =   5.5539509422153E+00
(PID.TID 0000.0001) %MON dynstat_uvel_min             =  -4.8926215391332E+00
(PID.TID 0000.0001) %MON dynstat_uvel_mean            =  -1.7287037237750E-03
(PID.TID 0000.0001) %MON dynstat_uvel_sd              =   4.1490358966983E-01
(PID.TID 0000.0001) %MON dynstat_uvel_del2            =   4.0980475224547E-02
(PID.TID 0000.0001) %MON dynstat_vvel_max             =   5.9068742128278E+00
(PID.TID 0000.0001) %MON dynstat_vvel_min             =  -6.6426715003767E+00
(PID.TID 0000.0001) %MON dynstat_vvel_mean            =   2.2390642620045E-03
(PID.TID 0000.0001) %MON dynstat_vvel_sd              =   3.9224223481705E-01
(PID.TID 0000.0001) %MON dynstat_vvel_del2            =   4.1445142070960E-02
(PID.TID 0000.0001) %MON dynstat_wvel_max             =   6.4868391740251E-02
(PID.TID 0000.0001) %MON dynstat_wvel_min             =  -5.1947617889938E-01
(PID.TID 0000.0001) %MON dynstat_wvel_mean            =  -2.0758535150083E-03
(PID.TID 0000.0001) %MON dynstat_wvel_sd              =   1.6609473936638E-02
(PID.TID 0000.0001) %MON dynstat_wvel_del2            =   1.6510604918019E-03
(PID.TID 0000.0001) %MON dynstat_theta_max            =   4.3746525698884E+02
(PID.TID 0000.0001) %MON dynstat_theta_min            =   2.8908988169716E+02
(PID.TID 0000.0001) %MON dynstat_theta_mean           =   3.3171699700000E+02
(PID.TID 0000.0001) %MON dynstat_theta_sd             =   4.7416616094581E+01
(PID.TID 0000.0001) %MON dynstat_theta_del2           =   3.8019474196301E-03
(PID.TID 0000.0001) %MON dynstat_salt_max             =   9.1989086885272E-01
(PID.TID 0000.0001) %MON dynstat_salt_min             =  -2.9723583702825E-03
(PID.TID 0000.0001) %MON dynstat_salt_mean            =   7.9943951159887E-03
(PID.TID 0000.0001) %MON dynstat_salt_sd              =   3.4968210287826E-02
(PID.TID 0000.0001) %MON dynstat_salt_del2            =   1.4851476783213E-03
(PID.TID 0000.0001) %MON advcfl_uvel_max              =   7.9726554209985E-03
(PID.TID 0000.0001) %MON advcfl_vvel_max              =   9.4481974581135E-03
(PID.TID 0000.0001) %MON advcfl_wvel_max              =   8.5005192910808E-03
(PID.TID 0000.0001) %MON advcfl_W_hf_max              =   2.1179740636076E-02
(PID.TID 0000.0001) %MON pe_b_mean                    =  -2.8685682105793E-01
(PID.TID 0000.0001) %MON ke_max                       =   1.6262340343151E+01
(PID.TID 0000.0001) %MON ke_mean                      =   1.6204269927506E-01
(PID.TID 0000.0001) %MON ke_vol                       =   4.9523908919847E+19
(PID.TID 0000.0001) %MON vort_r_min                   =  -1.6353943411386E-05
(PID.TID 0000.0001) %MON vort_r_max                   =   1.1012625086235E-05
(PID.TID 0000.0001) %MON vort_a_mean                  =   6.7242814765345E-08
(PID.TID 0000.0001) %MON vort_a_sd                    =   8.3937541614152E-05
(PID.TID 0000.0001) %MON vort_p_mean                  =   6.8939448374251E-08
(PID.TID 0000.0001) %MON vort_p_sd                    =   9.1637371190803E-05
(PID.TID 0000.0001) %MON surfExpan_theta_mean         =   1.9851910160226E-01
(PID.TID 0000.0001) %MON surfExpan_salt_mean          =   1.7496753340819E-06
(PID.TID 0000.0001) %MON surfExpan_Heat_mean          =  -1.6220504517139E+01
(PID.TID 0000.0001) %MON En_Budget_T2PE_mean          =   3.0984361187953E+01
(PID.TID 0000.0001) // =======================================================
(PID.TID 0000.0001) // End MONITOR dynamic field statistics
(PID.TID 0000.0001) // =======================================================
(PID.TID 0000.0001) // =======================================================
(PID.TID 0000.0001) // Begin MONITOR Land statistics
(PID.TID 0000.0001) // =======================================================
(PID.TID 0000.0001) %MON land_time_sec                =   9.0000000000000E+02
(PID.TID 0000.0001) %MON land_SnwH_ave_G              =   1.5324757180228E-01
(PID.TID 0000.0001) %MON land_SnwH_ave_S              =   5.5906150893174E-01
(PID.TID 0000.0001) %MON land_SnwH_ave_T              =   0.0000000000000E+00
(PID.TID 0000.0001) %MON land_SnwH_ave_N              =   1.2393822477635E-01
(PID.TID 0000.0001) %MON land_SnwH_max_S              =   9.9999903262772E-01
(PID.TID 0000.0001) %MON land_SnwH_max_T              =   0.0000000000000E+00
(PID.TID 0000.0001) %MON land_SnwH_max_N              =   9.9999987508519E-01
(PID.TID 0000.0001) %MON land_TotEnerg_G              =  -6.2564815953304E+21
(PID.TID 0000.0001) %MON land_TotEnerg_S              =  -4.9923928132787E+21
(PID.TID 0000.0001) %MON land_TotEnerg_T              =   7.3445863805968E+21
(PID.TID 0000.0001) %MON land_TotEnerg_N              =  -8.6086751626486E+21
(PID.TID 0000.0001) %MON land_Tsrf_ave_G              =  -5.0729778646852E+00
(PID.TID 0000.0001) %MON land_Tsrf_ave_S              =  -5.5210828801944E+00
(PID.TID 0000.0001) %MON land_Tsrf_ave_T              =   1.7948308537027E+01
(PID.TID 0000.0001) %MON land_Tsrf_ave_N              =  -2.0300553342615E+01
(PID.TID 0000.0001) %MON land_Tsrf_min_S              =  -3.4815105324779E+01
(PID.TID 0000.0001) %MON land_Tsrf_min_T              =  -7.5297669213811E+00
(PID.TID 0000.0001) %MON land_Tsrf_min_N              =  -5.1963151923798E+01
(PID.TID 0000.0001) %MON land_Tsrf_max_S              =   3.0526187593677E+01
(PID.TID 0000.0001) %MON land_Tsrf_max_T              =   3.4123617405344E+01
(PID.TID 0000.0001) %MON land_Tsrf_max_N              =   1.4714652401307E+01
(PID.TID 0000.0001) %MON land_Tgr1_ave_G              =  -3.5654986475994E+00
(PID.TID 0000.0001) %MON land_Tgr1_ave_S              =  -4.1884732916978E+00
(PID.TID 0000.0001) %MON land_Tgr1_ave_T              =   1.7948308537027E+01
(PID.TID 0000.0001) %MON land_Tgr1_ave_N              =  -1.7729697196547E+01
(PID.TID 0000.0001) %MON land_Tgr1_min_S              =  -3.9010948749135E+01
(PID.TID 0000.0001) %MON land_Tgr1_min_T              =  -7.5297669213811E+00
(PID.TID 0000.0001) %MON land_Tgr1_min_N              =  -5.4992979126802E+01
(PID.TID 0000.0001) %MON land_Tgr1_max_S              =   3.0526187593677E+01
(PID.TID 0000.0001) %MON land_Tgr1_max_T              =   3.4123617405344E+01
(PID.TID 0000.0001) %MON land_Tgr1_max_N              =   1.4714652401307E+01
(PID.TID 0000.0001) %MON land_Tgr2_ave_G              =   4.2073557436843E+00
(PID.TID 0000.0001) %MON land_Tgr2_ave_S              =  -1.8731411682894E+01
(PID.TID 0000.0001) %MON land_Tgr2_ave_T              =   2.2012996564054E+01
(PID.TID 0000.0001) %MON land_Tgr2_ave_N              =  -2.4153115615139E-01
(PID.TID 0000.0001) %MON land_Tgr2_min_S              =  -6.4761427410580E+01
(PID.TID 0000.0001) %MON land_Tgr2_min_T              =  -9.7050551832179E+00
(PID.TID 0000.0001) %MON land_Tgr2_min_N              =  -4.0194102086638E+01
(PID.TID 0000.0001) %MON land_Tgr2_max_S              =   2.3360276042917E+01
(PID.TID 0000.0001) %MON land_Tgr2_max_T              =   3.1360419768010E+01
(PID.TID 0000.0001) %MON land_Tgr2_max_N              =   2.9832066072851E+01
(PID.TID 0000.0001) %MON land_grdW_ave_G              =   4.8701735000251E-01
(PID.TID 0000.0001) %MON land_grdW_ave_S              =   3.0874741400518E-01
(PID.TID 0000.0001) %MON land_grdW_ave_T              =   5.6483645251108E-01
(PID.TID 0000.0001) %MON land_grdW_ave_N              =   4.9288172298963E-01
(PID.TID 0000.0001) %MON land_grdW_min_S              =   2.5938631412469E-02
(PID.TID 0000.0001) %MON land_grdW_min_T              =   0.0000000000000E+00
(PID.TID 0000.0001) %MON land_grdW_min_N              =   0.0000000000000E+00
(PID.TID 0000.0001) // =======================================================
(PID.TID 0000.0001) // End MONITOR Land statistics
(PID.TID 0000.0001) // =======================================================
(PID.TID 0000.0001) // =======================================================
(PID.TID 0000.0001) // Begin MONITOR Therm.SeaIce statistics
(PID.TID 0000.0001) // =======================================================
(PID.TID 0000.0001) %MON thSI_time_sec                =   9.0000000000000E+02
(PID.TID 0000.0001) %MON thSI_Ice_Area_G              =   3.1862040636713E+10
(PID.TID 0000.0001) %MON thSI_Ice_Area_S              =   0.0000000000000E+00
(PID.TID 0000.0001) %MON thSI_Ice_Area_N              =   3.1862040636713E+10
(PID.TID 0000.0001) %MON thSI_IceH_ave_G              =   9.2253097129135E-02
(PID.TID 0000.0001) %MON thSI_IceH_ave_S              =   0.0000000000000E+00
(PID.TID 0000.0001) %MON thSI_IceH_ave_N              =   9.2253097129135E-02
(PID.TID 0000.0001) %MON thSI_IceH_max_S              =   0.0000000000000E+00
(PID.TID 0000.0001) %MON thSI_IceH_max_N              =   1.0298625601109E-01
(PID.TID 0000.0001) %MON thSI_SnwH_ave_G              =   0.0000000000000E+00
(PID.TID 0000.0001) %MON thSI_SnwH_ave_S              =   0.0000000000000E+00
(PID.TID 0000.0001) %MON thSI_SnwH_ave_N              =   0.0000000000000E+00
(PID.TID 0000.0001) %MON thSI_SnwH_max_S              =   0.0000000000000E+00
(PID.TID 0000.0001) %MON thSI_SnwH_max_N              =   0.0000000000000E+00
(PID.TID 0000.0001) %MON thSI_TotEnerg_G              =  -8.8157893743940E+17
(PID.TID 0000.0001) %MON thSI_Tsrf_ave_G              =  -4.1053682922827E+00
(PID.TID 0000.0001) %MON thSI_Tsrf_ave_S              =   0.0000000000000E+00
(PID.TID 0000.0001) %MON thSI_Tsrf_ave_N              =  -4.1053682922827E+00
(PID.TID 0000.0001) %MON thSI_Tsrf_min_S              =   0.0000000000000E+00
(PID.TID 0000.0001) %MON thSI_Tsrf_min_N              =  -4.3153550678667E+00
(PID.TID 0000.0001) %MON thSI_Tsrf_max_S              =   0.0000000000000E+00
(PID.TID 0000.0001) %MON thSI_Tsrf_max_N              =  -2.7991957790007E+00
(PID.TID 0000.0001) %MON thSI_Tic1_ave_G              =  -1.9165428801977E+00
(PID.TID 0000.0001) %MON thSI_Tic1_ave_S              =   0.0000000000000E+00
(PID.TID 0000.0001) %MON thSI_Tic1_ave_N              =  -1.9165428801977E+00
(PID.TID 0000.0001) %MON thSI_Tic1_min_S              =   0.0000000000000E+00
(PID.TID 0000.0001) %MON thSI_Tic1_min_N              =  -2.4127023504924E+00
(PID.TID 0000.0001) %MON thSI_Tic1_max_S              =   0.0000000000000E+00
(PID.TID 0000.0001) %MON thSI_Tic1_max_N              =  -1.8429323090860E+00
(PID.TID 0000.0001) %MON thSI_Tic2_ave_G              =  -1.7000869614980E+00
(PID.TID 0000.0001) %MON thSI_Tic2_ave_S              =   0.0000000000000E+00
(PID.TID 0000.0001) %MON thSI_Tic2_ave_N              =  -1.7000869614980E+00
(PID.TID 0000.0001) %MON thSI_Tic2_min_S              =   0.0000000000000E+00
(PID.TID 0000.0001) %MON thSI_Tic2_min_N              =  -1.9183137258668E+00
(PID.TID 0000.0001) %MON thSI_Tic2_max_S              =   0.0000000000000E+00
(PID.TID 0000.0001) %MON thSI_Tic2_max_N              =  -1.6439205063078E+00
(PID.TID 0000.0001) // =======================================================
(PID.TID 0000.0001) // End MONITOR Therm.SeaIce statistics
(PID.TID 0000.0001) // =======================================================
 cg2d: Sum(rhs),rhsMax =   1.37561073643155E-11  1.30306870137486E+04
(PID.TID 0000.0001)                    cg2d_init_res =    3.21684520964696E+04
(PID.TID 0000.0001)                       cg2d_iters =    17
(PID.TID 0000.0001)                         cg2d_res =    1.32086573998163E-11
(PID.TID 0000.0001) // =======================================================
(PID.TID 0000.0001) // Begin MONITOR dynamic field statistics
(PID.TID 0000.0001) // =======================================================
(PID.TID 0000.0001) %MON time_tsnumber                =                     3
(PID.TID 0000.0001) %MON time_secondsf                =   1.3500000000000E+03
(PID.TID 0000.0001) %MON dynstat_eta_max              =   1.7332625812132E+03
(PID.TID 0000.0001) %MON dynstat_eta_min              =  -1.7700751364913E+03
(PID.TID 0000.0001) %MON dynstat_eta_mean             =   6.1501729005450E-16
(PID.TID 0000.0001) %MON dynstat_eta_sd               =   1.8802154814716E+02
(PID.TID 0000.0001) %MON dynstat_eta_del2             =   4.0442946165310E+01
(PID.TID 0000.0001) %MON dynstat_uvel_max             =   6.2749001149311E+00
(PID.TID 0000.0001) %MON dynstat_uvel_min             =  -6.2705267002895E+00
(PID.TID 0000.0001) %MON dynstat_uvel_mean            =  -2.5947660133892E-03
(PID.TID 0000.0001) %MON dynstat_uvel_sd              =   5.3869417677187E-01
(PID.TID 0000.0001) %MON dynstat_uvel_del2            =   3.5257904681777E-02
(PID.TID 0000.0001) %MON dynstat_vvel_max             =   7.0884917509192E+00
(PID.TID 0000.0001) %MON dynstat_vvel_min             =  -8.1797510858002E+00
(PID.TID 0000.0001) %MON dynstat_vvel_mean            =   3.4220990473922E-03
(PID.TID 0000.0001) %MON dynstat_vvel_sd              =   5.0059678283464E-01
(PID.TID 0000.0001) %MON dynstat_vvel_del2            =   3.5417933317846E-02
(PID.TID 0000.0001) %MON dynstat_wvel_max             =   5.9167689436665E-02
(PID.TID 0000.0001) %MON dynstat_wvel_min             =  -6.0037827800718E-01
(PID.TID 0000.0001) %MON dynstat_wvel_mean            =  -2.4816067791054E-03
(PID.TID 0000.0001) %MON dynstat_wvel_sd              =   1.9350993305120E-02
(PID.TID 0000.0001) %MON dynstat_wvel_del2            =   1.7155084924112E-03
(PID.TID 0000.0001) %MON dynstat_theta_max            =   4.3749846667035E+02
(PID.TID 0000.0001) %MON dynstat_theta_min            =   2.8883949680218E+02
(PID.TID 0000.0001) %MON dynstat_theta_mean           =   3.3171692035893E+02
(PID.TID 0000.0001) %MON dynstat_theta_sd             =   4.7416684884625E+01
(PID.TID 0000.0001) %MON dynstat_theta_del2           =   5.4079376825661E-03
(PID.TID 0000.0001) %MON dynstat_salt_max             =   1.2942924751153E+00
(PID.TID 0000.0001) %MON dynstat_salt_min             =  -2.2927478100649E-03
(PID.TID 0000.0001) %MON dynstat_salt_mean            =   1.1907481855098E-02
(PID.TID 0000.0001) %MON dynstat_salt_sd              =   5.1818121919281E-02
(PID.TID 0000.0001) %MON dynstat_salt_del2            =   2.1443311702860E-03
(PID.TID 0000.0001) %MON advcfl_uvel_max              =   9.0075726159682E-03
(PID.TID 0000.0001) %MON advcfl_vvel_max              =   1.1634461136980E-02
(PID.TID 0000.0001) %MON advcfl_wvel_max              =   9.8243718219357E-03
(PID.TID 0000.0001) %MON advcfl_W_hf_max              =   2.4448906399935E-02
(PID.TID 0000.0001) %MON pe_b_mean                    =  -4.4124506126139E-01
(PID.TID 0000.0001) %MON ke_max                       =   2.3381143328874E+01
(PID.TID 0000.0001) %MON ke_mean                      =   2.6880972708521E-01
(PID.TID 0000.0001) %MON ke_vol                       =   4.9523908919847E+19
(PID.TID 0000.0001) %MON vort_r_min                   =  -2.0637169891949E-05
(PID.TID 0000.0001) %MON vort_r_max                   =   1.2387159537372E-05
(PID.TID 0000.0001) %MON vort_a_mean                  =   6.7242814765254E-08
(PID.TID 0000.0001) %MON vort_a_sd                    =   8.3938489288401E-05
(PID.TID 0000.0001) %MON vort_p_mean                  =   6.8939448483271E-08
(PID.TID 0000.0001) %MON vort_p_sd                    =   9.1659823785020E-05
(PID.TID 0000.0001) %MON surfExpan_theta_mean         =   2.3861722167480E-01
(PID.TID 0000.0001) %MON surfExpan_salt_mean          =   1.5213143344982E-07
(PID.TID 0000.0001) %MON surfExpan_Heat_mean          =  -1.9469594098914E+01
(PID.TID 0000.0001) %MON En_Budget_T2PE_mean          =   3.7181617257236E+01
(PID.TID 0000.0001) // =======================================================
(PID.TID 0000.0001) // End MONITOR dynamic field statistics
(PID.TID 0000.0001) // =======================================================
(PID.TID 0000.0001) // =======================================================
(PID.TID 0000.0001) // Begin MONITOR Land statistics
(PID.TID 0000.0001) // =======================================================
(PID.TID 0000.0001) %MON land_time_sec                =   1.3500000000000E+03
(PID.TID 0000.0001) %MON land_SnwH_ave_G              =   1.5324622328405E-01
(PID.TID 0000.0001) %MON land_SnwH_ave_S              =   5.5906076491882E-01
(PID.TID 0000.0001) %MON land_SnwH_ave_T              =   0.0000000000000E+00
(PID.TID 0000.0001) %MON land_SnwH_ave_N              =   1.2393577965946E-01
(PID.TID 0000.0001) %MON land_SnwH_max_S              =   9.9999852974914E-01
(PID.TID 0000.0001) %MON land_SnwH_max_T              =   0.0000000000000E+00
(PID.TID 0000.0001) %MON land_SnwH_max_N              =   9.9999980255627E-01
(PID.TID 0000.0001) %MON land_TotEnerg_G              =  -6.2665864083396E+21
(PID.TID 0000.0001) %MON land_TotEnerg_S              =  -4.9936184855770E+21
(PID.TID 0000.0001) %MON land_TotEnerg_T              =   7.3367862243534E+21
(PID.TID 0000.0001) %MON land_TotEnerg_N              =  -8.6097541471160E+21
(PID.TID 0000.0001) %MON land_Tsrf_ave_G              =  -5.4214416204163E+00
(PID.TID 0000.0001) %MON land_Tsrf_ave_S              =  -5.7076706597405E+00
(PID.TID 0000.0001) %MON land_Tsrf_ave_T              =   1.7061714369232E+01
(PID.TID 0000.0001) %MON land_Tsrf_ave_N              =  -2.0342181015663E+01
(PID.TID 0000.0001) %MON land_Tsrf_min_S              =  -3.4758814041772E+01
(PID.TID 0000.0001) %MON land_Tsrf_min_T              =  -7.2831021819723E+00
(PID.TID 0000.0001) %MON land_Tsrf_min_N              =  -5.1364631618120E+01
(PID.TID 0000.0001) %MON land_Tsrf_max_S              =   2.9347021810171E+01
(PID.TID 0000.0001) %MON land_Tsrf_max_T              =   3.2666593184460E+01
(PID.TID 0000.0001) %MON land_Tsrf_max_N              =   1.4113892578212E+01
(PID.TID 0000.0001) %MON land_Tgr1_ave_G              =  -3.9629305913458E+00
(PID.TID 0000.0001) %MON land_Tgr1_ave_S              =  -4.5441747905048E+00
(PID.TID 0000.0001) %MON land_Tgr1_ave_T              =   1.7061714369232E+01
(PID.TID 0000.0001) %MON land_Tgr1_ave_N              =  -1.7814018095160E+01
(PID.TID 0000.0001) %MON land_Tgr1_min_S              =  -3.9023408470398E+01
(PID.TID 0000.0001) %MON land_Tgr1_min_T              =  -7.2831021819723E+00
(PID.TID 0000.0001) %MON land_Tgr1_min_N              =  -5.4979357037116E+01
(PID.TID 0000.0001) %MON land_Tgr1_max_S              =   2.9347021810171E+01
(PID.TID 0000.0001) %MON land_Tgr1_max_T              =   3.2666593184460E+01
(PID.TID 0000.0001) %MON land_Tgr1_max_N              =   1.4113892578212E+01
(PID.TID 0000.0001) %MON land_Tgr2_ave_G              =   4.2072329172634E+00
(PID.TID 0000.0001) %MON land_Tgr2_ave_S              =  -1.8731176221012E+01
(PID.TID 0000.0001) %MON land_Tgr2_ave_T              =   2.2012913713609E+01
(PID.TID 0000.0001) %MON land_Tgr2_ave_N              =  -2.4179690389588E-01
(PID.TID 0000.0001) %MON land_Tgr2_min_S              =  -6.4760993184559E+01
(PID.TID 0000.0001) %MON land_Tgr2_min_T              =  -9.7050245811227E+00
(PID.TID 0000.0001) %MON land_Tgr2_min_N              =  -4.0194343044151E+01
(PID.TID 0000.0001) %MON land_Tgr2_max_S              =   2.3360375667087E+01
(PID.TID 0000.0001) %MON land_Tgr2_max_T              =   3.1360140929534E+01
(PID.TID 0000.0001) %MON land_Tgr2_max_N              =   2.9831710315087E+01
(PID.TID 0000.0001) %MON land_grdW_ave_G              =   4.8699895613051E-01
(PID.TID 0000.0001) %MON land_grdW_ave_S              =   3.0873374237942E-01
(PID.TID 0000.0001) %MON land_grdW_ave_T              =   5.6478870574609E-01
(PID.TID 0000.0001) %MON land_grdW_ave_N              =   4.9288139824840E-01
(PID.TID 0000.0001) %MON land_grdW_min_S              =   2.5954898335907E-02
(PID.TID 0000.0001) %MON land_grdW_min_T              =   0.0000000000000E+00
(PID.TID 0000.0001) %MON land_grdW_min_N              =   0.0000000000000E+00
(PID.TID 0000.0001) // =======================================================
(PID.TID 0000.0001) // End MONITOR Land statistics
(PID.TID 0000.0001) // =======================================================
(PID.TID 0000.0001) // =======================================================
(PID.TID 0000.0001) // Begin MONITOR Therm.SeaIce statistics
(PID.TID 0000.0001) // =======================================================
(PID.TID 0000.0001) %MON thSI_time_sec                =   1.3500000000000E+03
(PID.TID 0000.0001) %MON thSI_Ice_Area_G              =   4.6681993916668E+10
(PID.TID 0000.0001) %MON thSI_Ice_Area_S              =   0.0000000000000E+00
(PID.TID 0000.0001) %MON thSI_Ice_Area_N              =   4.6681993916668E+10
(PID.TID 0000.0001) %MON thSI_IceH_ave_G              =   9.4313328531470E-02
(PID.TID 0000.0001) %MON thSI_IceH_ave_S              =   0.0000000000000E+00
(PID.TID 0000.0001) %MON thSI_IceH_ave_N              =   9.4313328531470E-02
(PID.TID 0000.0001) %MON thSI_IceH_max_S              =   0.0000000000000E+00
(PID.TID 0000.0001) %MON thSI_IceH_max_N              =   1.0597833202169E-01
(PID.TID 0000.0001) %MON thSI_SnwH_ave_G              =   0.0000000000000E+00
(PID.TID 0000.0001) %MON thSI_SnwH_ave_S              =   0.0000000000000E+00
(PID.TID 0000.0001) %MON thSI_SnwH_ave_N              =   0.0000000000000E+00
(PID.TID 0000.0001) %MON thSI_SnwH_max_S              =   0.0000000000000E+00
(PID.TID 0000.0001) %MON thSI_SnwH_max_N              =   0.0000000000000E+00
(PID.TID 0000.0001) %MON thSI_TotEnerg_G              =  -1.3243761158344E+18
(PID.TID 0000.0001) %MON thSI_Tsrf_ave_G              =  -4.4325006179394E+00
(PID.TID 0000.0001) %MON thSI_Tsrf_ave_S              =   0.0000000000000E+00
(PID.TID 0000.0001) %MON thSI_Tsrf_ave_N              =  -4.4325006179394E+00
(PID.TID 0000.0001) %MON thSI_Tsrf_min_S              =   0.0000000000000E+00
(PID.TID 0000.0001) %MON thSI_Tsrf_min_N              =  -4.6321265142019E+00
(PID.TID 0000.0001) %MON thSI_Tsrf_max_S              =   0.0000000000000E+00
(PID.TID 0000.0001) %MON thSI_Tsrf_max_N              =  -3.1064775987883E+00
(PID.TID 0000.0001) %MON thSI_Tic1_ave_G              =  -2.2167421373829E+00
(PID.TID 0000.0001) %MON thSI_Tic1_ave_S              =   0.0000000000000E+00
(PID.TID 0000.0001) %MON thSI_Tic1_ave_N              =  -2.2167421373829E+00
(PID.TID 0000.0001) %MON thSI_Tic1_min_S              =   0.0000000000000E+00
(PID.TID 0000.0001) %MON thSI_Tic1_min_N              =  -2.9281457731381E+00
(PID.TID 0000.0001) %MON thSI_Tic1_max_S              =   0.0000000000000E+00
(PID.TID 0000.0001) %MON thSI_Tic1_max_N              =  -2.1247803576576E+00
(PID.TID 0000.0001) %MON thSI_Tic2_ave_G              =  -1.7555613086616E+00
(PID.TID 0000.0001) %MON thSI_Tic2_ave_S              =   0.0000000000000E+00
(PID.TID 0000.0001) %MON thSI_Tic2_ave_N              =  -1.7555613086616E+00
(PID.TID 0000.0001) %MON thSI_Tic2_min_S              =   0.0000000000000E+00
(PID.TID 0000.0001) %MON thSI_Tic2_min_N              =  -2.0620283748365E+00
(PID.TID 0000.0001) %MON thSI_Tic2_max_S              =   0.0000000000000E+00
(PID.TID 0000.0001) %MON thSI_Tic2_max_N              =  -1.6937231728955E+00
(PID.TID 0000.0001) // =======================================================
(PID.TID 0000.0001) // End MONITOR Therm.SeaIce statistics
(PID.TID 0000.0001) // =======================================================
 cg2d: Sum(rhs),rhsMax =  -6.75299816066399E-11  1.49233112994252E+04
(PID.TID 0000.0001)                    cg2d_init_res =    2.74414619716852E+04
(PID.TID 0000.0001)                       cg2d_iters =    16
(PID.TID 0000.0001)                         cg2d_res =    1.12131033085456E-10
(PID.TID 0000.0001) // =======================================================
(PID.TID 0000.0001) // Begin MONITOR dynamic field statistics
(PID.TID 0000.0001) // =======================================================
(PID.TID 0000.0001) %MON time_tsnumber                =                     4
(PID.TID 0000.0001) %MON time_secondsf                =   1.8000000000000E+03
(PID.TID 0000.0001) %MON dynstat_eta_max              =   2.5069097486588E+03
(PID.TID 0000.0001) %MON dynstat_eta_min              =  -2.3444242803900E+03
(PID.TID 0000.0001) %MON dynstat_eta_mean             =   3.9599582655550E-15
(PID.TID 0000.0001) %MON dynstat_eta_sd               =   2.4936992730901E+02
(PID.TID 0000.0001) %MON dynstat_eta_del2             =   4.5057961887662E+01
(PID.TID 0000.0001) %MON dynstat_uvel_max             =   7.1224761089585E+00
(PID.TID 0000.0001) %MON dynstat_uvel_min             =  -7.0654469765215E+00
(PID.TID 0000.0001) %MON dynstat_uvel_mean            =  -3.4311374602807E-03
(PID.TID 0000.0001) %MON dynstat_uvel_sd              =   6.2636234567097E-01
(PID.TID 0000.0001) %MON dynstat_uvel_del2            =   2.7369610742332E-02
(PID.TID 0000.0001) %MON dynstat_vvel_max             =   7.5150484988167E+00
(PID.TID 0000.0001) %MON dynstat_vvel_min             =  -8.7187950930292E+00
(PID.TID 0000.0001) %MON dynstat_vvel_mean            =   4.6580488419342E-03
(PID.TID 0000.0001) %MON dynstat_vvel_sd              =   5.7920992880701E-01
(PID.TID 0000.0001) %MON dynstat_vvel_del2            =   2.6779218180208E-02
(PID.TID 0000.0001) %MON dynstat_wvel_max             =   5.7913524821079E-02
(PID.TID 0000.0001) %MON dynstat_wvel_min             =  -6.0295369758333E-01
(PID.TID 0000.0001) %MON dynstat_wvel_mean            =  -2.5887431984585E-03
(PID.TID 0000.0001) %MON dynstat_wvel_sd              =   1.9703090097215E-02
(PID.TID 0000.0001) %MON dynstat_wvel_del2            =   1.5736930254017E-03
(PID.TID 0000.0001) %MON dynstat_theta_max            =   4.3752943939424E+02
(PID.TID 0000.0001) %MON dynstat_theta_min            =   2.8859309274984E+02
(PID.TID 0000.0001) %MON dynstat_theta_mean           =   3.3171662133821E+02
(PID.TID 0000.0001) %MON dynstat_theta_sd             =   4.7417182944953E+01
(PID.TID 0000.0001) %MON dynstat_theta_del2           =   6.6628478670868E-03
(PID.TID 0000.0001) %MON dynstat_salt_max             =   1.6281646393985E+00
(PID.TID 0000.0001) %MON dynstat_salt_min             =  -1.6185146259320E-03
(PID.TID 0000.0001) %MON dynstat_salt_mean            =   1.5772126282735E-02
(PID.TID 0000.0001) %MON dynstat_salt_sd              =   6.8295324428363E-02
(PID.TID 0000.0001) %MON dynstat_salt_del2            =   2.7492763611304E-03
(PID.TID 0000.0001) %MON advcfl_uvel_max              =   1.0097230804873E-02
(PID.TID 0000.0001) %MON advcfl_vvel_max              =   1.2401169865332E-02
(PID.TID 0000.0001) %MON advcfl_wvel_max              =   9.8665150513635E-03
(PID.TID 0000.0001) %MON advcfl_W_hf_max              =   2.4509619354951E-02
(PID.TID 0000.0001) %MON pe_b_mean                    =  -5.7498587760884E-01
(PID.TID 0000.0001) %MON ke_max                       =   2.9082581842814E+01
(PID.TID 0000.0001) %MON ke_mean                      =   3.6177885436815E-01
(PID.TID 0000.0001) %MON ke_vol                       =   4.9523908919847E+19
(PID.TID 0000.0001) %MON vort_r_min                   =  -2.3041449258121E-05
(PID.TID 0000.0001) %MON vort_r_max                   =   1.2750076606301E-05
(PID.TID 0000.0001) %MON vort_a_mean                  =   6.7242814765318E-08
(PID.TID 0000.0001) %MON vort_a_sd                    =   8.3939785002184E-05
(PID.TID 0000.0001) %MON vort_p_mean                  =   6.8939448728009E-08
(PID.TID 0000.0001) %MON vort_p_sd                    =   9.1687382061795E-05
(PID.TID 0000.0001) %MON surfExpan_theta_mean         =   2.4997651327750E-01
(PID.TID 0000.0001) %MON surfExpan_salt_mean          =  -5.3276185937846E-06
(PID.TID 0000.0001) %MON surfExpan_Heat_mean          =  -2.0422926485303E+01
(PID.TID 0000.0001) %MON En_Budget_T2PE_mean          =   3.8942284645343E+01
(PID.TID 0000.0001) // =======================================================
(PID.TID 0000.0001) // End MONITOR dynamic field statistics
(PID.TID 0000.0001) // =======================================================
(PID.TID 0000.0001) // =======================================================
(PID.TID 0000.0001) // Begin MONITOR Land statistics
(PID.TID 0000.0001) // =======================================================
(PID.TID 0000.0001) %MON land_time_sec                =   1.8000000000000E+03
(PID.TID 0000.0001) %MON land_SnwH_ave_G              =   1.5324495077115E-01
(PID.TID 0000.0001) %MON land_SnwH_ave_S              =   5.5905997275217E-01
(PID.TID 0000.0001) %MON land_SnwH_ave_T              =   0.0000000000000E+00
(PID.TID 0000.0001) %MON land_SnwH_ave_N              =   1.2393350157849E-01
(PID.TID 0000.0001) %MON land_SnwH_max_S              =   9.9999802230281E-01
(PID.TID 0000.0001) %MON land_SnwH_max_T              =   0.0000000000000E+00
(PID.TID 0000.0001) %MON land_SnwH_max_N              =   9.9999972369936E-01
(PID.TID 0000.0001) %MON land_TotEnerg_G              =  -6.2755335785365E+21
(PID.TID 0000.0001) %MON land_TotEnerg_S              =  -4.9946903545469E+21
(PID.TID 0000.0001) %MON land_TotEnerg_T              =   7.3299482510173E+21
(PID.TID 0000.0001) %MON land_TotEnerg_N              =  -8.6107914750068E+21
(PID.TID 0000.0001) %MON land_Tsrf_ave_G              =  -5.7258731262163E+00
(PID.TID 0000.0001) %MON land_Tsrf_ave_S              =  -5.8196522658903E+00
(PID.TID 0000.0001) %MON land_Tsrf_ave_T              =   1.6282163302842E+01
(PID.TID 0000.0001) %MON land_Tsrf_ave_N              =  -2.0391771226759E+01
(PID.TID 0000.0001) %MON land_Tsrf_min_S              =  -3.4693268521236E+01
(PID.TID 0000.0001) %MON land_Tsrf_min_T              =  -7.0446215464112E+00
(PID.TID 0000.0001) %MON land_Tsrf_min_N              =  -5.0887095756294E+01
(PID.TID 0000.0001) %MON land_Tsrf_max_S              =   2.8299077196510E+01
(PID.TID 0000.0001) %MON land_Tsrf_max_T              =   3.1357644684745E+01
(PID.TID 0000.0001) %MON land_Tsrf_max_N              =   1.3560187851739E+01
(PID.TID 0000.0001) %MON land_Tgr1_ave_G              =  -4.3146637665373E+00
(PID.TID 0000.0001) %MON land_Tgr1_ave_S              =  -4.8569762008897E+00
(PID.TID 0000.0001) %MON land_Tgr1_ave_T              =   1.6282163302842E+01
(PID.TID 0000.0001) %MON land_Tgr1_ave_N              =  -1.7892696291806E+01
(PID.TID 0000.0001) %MON land_Tgr1_min_S              =  -3.9035767762797E+01
(PID.TID 0000.0001) %MON land_Tgr1_min_T              =  -7.0446215464112E+00
(PID.TID 0000.0001) %MON land_Tgr1_min_N              =  -5.4965292462712E+01
(PID.TID 0000.0001) %MON land_Tgr1_max_S              =   2.8299077196510E+01
(PID.TID 0000.0001) %MON land_Tgr1_max_T              =   3.1357644684745E+01
(PID.TID 0000.0001) %MON land_Tgr1_max_N              =   1.3560187851739E+01
(PID.TID 0000.0001) %MON land_Tgr2_ave_G              =   4.2071042628001E+00
(PID.TID 0000.0001) %MON land_Tgr2_ave_S              =  -1.8730945736236E+01
(PID.TID 0000.0001) %MON land_Tgr2_ave_T              =   2.2012818085677E+01
(PID.TID 0000.0001) %MON land_Tgr2_ave_N              =  -2.4206411508605E-01
(PID.TID 0000.0001) %MON land_Tgr2_min_S              =  -6.4760559189761E+01
(PID.TID 0000.0001) %MON land_Tgr2_min_T              =  -9.7049909660423E+00
(PID.TID 0000.0001) %MON land_Tgr2_min_N              =  -4.0194583728204E+01
(PID.TID 0000.0001) %MON land_Tgr2_max_S              =   2.3360456186081E+01
(PID.TID 0000.0001) %MON land_Tgr2_max_T              =   3.1359846826230E+01
(PID.TID 0000.0001) %MON land_Tgr2_max_N              =   2.9831342281627E+01
(PID.TID 0000.0001) %MON land_grdW_ave_G              =   4.8698180261211E-01
(PID.TID 0000.0001) %MON land_grdW_ave_S              =   3.0872082528634E-01
(PID.TID 0000.0001) %MON land_grdW_ave_T              =   5.6474430669923E-01
(PID.TID 0000.0001) %MON land_grdW_ave_N              =   4.9288106422208E-01
(PID.TID 0000.0001) %MON land_grdW_min_S              =   2.5981427539378E-02
(PID.TID 0000.0001) %MON land_grdW_min_T              =   0.0000000000000E+00
(PID.TID 0000.0001) %MON land_grdW_min_N              =   0.0000000000000E+00
(PID.TID 0000.0001) // =======================================================
(PID.TID 0000.0001) // End MONITOR Land statistics
(PID.TID 0000.0001) // =======================================================
(PID.TID 0000.0001) // =======================================================
(PID.TID 0000.0001) // Begin MONITOR Therm.SeaIce statistics
(PID.TID 0000.0001) // =======================================================
(PID.TID 0000.0001) %MON thSI_time_sec                =   1.8000000000000E+03
(PID.TID 0000.0001) %MON thSI_Ice_Area_G              =   6.0834857723202E+10
(PID.TID 0000.0001) %MON thSI_Ice_Area_S              =   0.0000000000000E+00
(PID.TID 0000.0001) %MON thSI_Ice_Area_N              =   6.0834857723202E+10
(PID.TID 0000.0001) %MON thSI_IceH_ave_G              =   9.6378980798546E-02
(PID.TID 0000.0001) %MON thSI_IceH_ave_S              =   0.0000000000000E+00
(PID.TID 0000.0001) %MON thSI_IceH_ave_N              =   9.6378980798546E-02
(PID.TID 0000.0001) %MON thSI_IceH_max_S              =   0.0000000000000E+00
(PID.TID 0000.0001) %MON thSI_IceH_max_N              =   1.0897758482377E-01
(PID.TID 0000.0001) %MON thSI_SnwH_ave_G              =   0.0000000000000E+00
(PID.TID 0000.0001) %MON thSI_SnwH_ave_S              =   0.0000000000000E+00
(PID.TID 0000.0001) %MON thSI_SnwH_ave_N              =   0.0000000000000E+00
(PID.TID 0000.0001) %MON thSI_SnwH_max_S              =   0.0000000000000E+00
(PID.TID 0000.0001) %MON thSI_SnwH_max_N              =   0.0000000000000E+00
(PID.TID 0000.0001) %MON thSI_TotEnerg_G              =  -1.7683630463057E+18
(PID.TID 0000.0001) %MON thSI_Tsrf_ave_G              =  -4.7453911219640E+00
(PID.TID 0000.0001) %MON thSI_Tsrf_ave_S              =   0.0000000000000E+00
(PID.TID 0000.0001) %MON thSI_Tsrf_ave_N              =  -4.7453911219640E+00
(PID.TID 0000.0001) %MON thSI_Tsrf_min_S              =   0.0000000000000E+00
(PID.TID 0000.0001) %MON thSI_Tsrf_min_N              =  -4.9622253690944E+00
(PID.TID 0000.0001) %MON thSI_Tsrf_max_S              =   0.0000000000000E+00
(PID.TID 0000.0001) %MON thSI_Tsrf_max_N              =  -3.2222781117329E+00
(PID.TID 0000.0001) %MON thSI_Tic1_ave_G              =  -2.5291658697271E+00
(PID.TID 0000.0001) %MON thSI_Tic1_ave_S              =   0.0000000000000E+00
(PID.TID 0000.0001) %MON thSI_Tic1_ave_N              =  -2.5291658697271E+00
(PID.TID 0000.0001) %MON thSI_Tic1_min_S              =   0.0000000000000E+00
(PID.TID 0000.0001) %MON thSI_Tic1_min_N              =  -3.3371469388559E+00
(PID.TID 0000.0001) %MON thSI_Tic1_max_S              =   0.0000000000000E+00
(PID.TID 0000.0001) %MON thSI_Tic1_max_N              =  -2.4275570302366E+00
(PID.TID 0000.0001) %MON thSI_Tic2_ave_G              =  -1.8237442751670E+00
(PID.TID 0000.0001) %MON thSI_Tic2_ave_S              =   0.0000000000000E+00
(PID.TID 0000.0001) %MON thSI_Tic2_ave_N              =  -1.8237442751670E+00
(PID.TID 0000.0001) %MON thSI_Tic2_min_S              =   0.0000000000000E+00
(PID.TID 0000.0001) %MON thSI_Tic2_min_N              =  -2.2053016549746E+00
(PID.TID 0000.0001) %MON thSI_Tic2_max_S              =   0.0000000000000E+00
(PID.TID 0000.0001) %MON thSI_Tic2_max_N              =  -1.7585383569776E+00
(PID.TID 0000.0001) // =======================================================
(PID.TID 0000.0001) // End MONITOR Therm.SeaIce statistics
(PID.TID 0000.0001) // =======================================================
 cg2d: Sum(rhs),rhsMax =  -1.37788447318599E-10  1.79855096733032E+04
(PID.TID 0000.0001)                    cg2d_init_res =    2.42201223668004E+04
(PID.TID 0000.0001)                       cg2d_iters =    16
(PID.TID 0000.0001)                         cg2d_res =    9.12766031487362E-11
(PID.TID 0000.0001) // =======================================================
(PID.TID 0000.0001) // Begin MONITOR dynamic field statistics
(PID.TID 0000.0001) // =======================================================
(PID.TID 0000.0001) %MON time_tsnumber                =                     5
(PID.TID 0000.0001) %MON time_secondsf                =   2.2500000000000E+03
(PID.TID 0000.0001) %MON dynstat_eta_max              =   3.1711085890265E+03
(PID.TID 0000.0001) %MON dynstat_eta_min              =  -2.7173523278937E+03
(PID.TID 0000.0001) %MON dynstat_eta_mean             =  -1.6693326444337E-15
(PID.TID 0000.0001) %MON dynstat_eta_sd               =   3.0044549298547E+02
(PID.TID 0000.0001) %MON dynstat_eta_del2             =   4.5486800663970E+01
(PID.TID 0000.0001) %MON dynstat_uvel_max             =   7.7271641517916E+00
(PID.TID 0000.0001) %MON dynstat_uvel_min             =  -7.5717254412233E+00
(PID.TID 0000.0001) %MON dynstat_uvel_mean            =  -4.2189612874796E-03
(PID.TID 0000.0001) %MON dynstat_uvel_sd              =   6.8856528884440E-01
(PID.TID 0000.0001) %MON dynstat_uvel_del2            =   2.3196652762634E-02
(PID.TID 0000.0001) %MON dynstat_vvel_max             =   7.5431240016667E+00
(PID.TID 0000.0001) %MON dynstat_vvel_min             =  -8.6012135165899E+00
(PID.TID 0000.0001) %MON dynstat_vvel_mean            =   5.9740133304041E-03
(PID.TID 0000.0001) %MON dynstat_vvel_sd              =   6.4313361321266E-01
(PID.TID 0000.0001) %MON dynstat_vvel_del2            =   2.1403936574720E-02
(PID.TID 0000.0001) %MON dynstat_wvel_max             =   5.0729705164003E-02
(PID.TID 0000.0001) %MON dynstat_wvel_min             =  -5.6094694695269E-01
(PID.TID 0000.0001) %MON dynstat_wvel_mean            =  -2.5150013285663E-03
(PID.TID 0000.0001) %MON dynstat_wvel_sd              =   1.8782690916997E-02
(PID.TID 0000.0001) %MON dynstat_wvel_del2            =   1.4163912934044E-03
(PID.TID 0000.0001) %MON dynstat_theta_max            =   4.3754929689885E+02
(PID.TID 0000.0001) %MON dynstat_theta_min            =   2.8834954283566E+02
(PID.TID 0000.0001) %MON dynstat_theta_mean           =   3.3171612951316E+02
(PID.TID 0000.0001) %MON dynstat_theta_sd             =   4.7417995230105E+01
(PID.TID 0000.0001) %MON dynstat_theta_del2           =   7.6525318439119E-03
(PID.TID 0000.0001) %MON dynstat_salt_max             =   1.9274179023910E+00
(PID.TID 0000.0001) %MON dynstat_salt_min             =  -9.5315644920775E-04
(PID.TID 0000.0001) %MON dynstat_salt_mean            =   1.9593268338733E-02
(PID.TID 0000.0001) %MON dynstat_salt_sd              =   8.4452952431476E-02
(PID.TID 0000.0001) %MON dynstat_salt_del2            =   3.3088513340283E-03
(PID.TID 0000.0001) %MON advcfl_uvel_max              =   1.0843292422233E-02
(PID.TID 0000.0001) %MON advcfl_vvel_max              =   1.2233927822492E-02
(PID.TID 0000.0001) %MON advcfl_wvel_max              =   9.1791318592258E-03
(PID.TID 0000.0001) %MON advcfl_W_hf_max              =   2.2667891296350E-02
(PID.TID 0000.0001) %MON pe_b_mean                    =  -6.8992767860982E-01
(PID.TID 0000.0001) %MON ke_max                       =   3.3074184335420E+01
(PID.TID 0000.0001) %MON ke_mean                      =   4.4128252680008E-01
(PID.TID 0000.0001) %MON ke_vol                       =   4.9523908919847E+19
(PID.TID 0000.0001) %MON vort_r_min                   =  -2.4872667645300E-05
(PID.TID 0000.0001) %MON vort_r_max                   =   1.2307014802651E-05
(PID.TID 0000.0001) %MON vort_a_mean                  =   6.7242814765326E-08
(PID.TID 0000.0001) %MON vort_a_sd                    =   8.3941393309345E-05
(PID.TID 0000.0001) %MON vort_p_mean                  =   6.8939448912218E-08
(PID.TID 0000.0001) %MON vort_p_sd                    =   9.1717567871060E-05
(PID.TID 0000.0001) %MON surfExpan_theta_mean         =   2.4363805873715E-01
(PID.TID 0000.0001) %MON surfExpan_salt_mean          =  -1.4701212644418E-05
(PID.TID 0000.0001) %MON surfExpan_Heat_mean          =  -1.9966566793785E+01
(PID.TID 0000.0001) %MON En_Budget_T2PE_mean          =   3.7982367365725E+01
(PID.TID 0000.0001) // =======================================================
(PID.TID 0000.0001) // End MONITOR dynamic field statistics
(PID.TID 0000.0001) // =======================================================
(PID.TID 0000.0001) // =======================================================
(PID.TID 0000.0001) // Begin MONITOR Land statistics
(PID.TID 0000.0001) // =======================================================
(PID.TID 0000.0001) %MON land_time_sec                =   2.2500000000000E+03
(PID.TID 0000.0001) %MON land_SnwH_ave_G              =   1.5324375290395E-01
(PID.TID 0000.0001) %MON land_SnwH_ave_S              =   5.5905913630225E-01
(PID.TID 0000.0001) %MON land_SnwH_ave_T              =   0.0000000000000E+00
(PID.TID 0000.0001) %MON land_SnwH_ave_N              =   1.2393138656922E-01
(PID.TID 0000.0001) %MON land_SnwH_max_S              =   9.9999750912951E-01
(PID.TID 0000.0001) %MON land_SnwH_max_T              =   0.0000000000000E+00
(PID.TID 0000.0001) %MON land_SnwH_max_N              =   9.9999964347670E-01
(PID.TID 0000.0001) %MON land_TotEnerg_G              =  -6.2835107080871E+21
(PID.TID 0000.0001) %MON land_TotEnerg_S              =  -4.9956323657321E+21
(PID.TID 0000.0001) %MON land_TotEnerg_T              =   7.3239135277648E+21
(PID.TID 0000.0001) %MON land_TotEnerg_N              =  -8.6117918701198E+21
(PID.TID 0000.0001) %MON land_Tsrf_ave_G              =  -6.0030220672249E+00
(PID.TID 0000.0001) %MON land_Tsrf_ave_S              =  -5.9127864822183E+00
(PID.TID 0000.0001) %MON land_Tsrf_ave_T              =   1.5592626447725E+01
(PID.TID 0000.0001) %MON land_Tsrf_ave_N              =  -2.0453232902314E+01
(PID.TID 0000.0001) %MON land_Tsrf_min_S              =  -3.4616218020564E+01
(PID.TID 0000.0001) %MON land_Tsrf_min_T              =  -6.8157570817405E+00
(PID.TID 0000.0001) %MON land_Tsrf_min_N              =  -5.0782262993756E+01
(PID.TID 0000.0001) %MON land_Tsrf_max_S              =   2.7365946890610E+01
(PID.TID 0000.0001) %MON land_Tsrf_max_T              =   3.0179485203477E+01
(PID.TID 0000.0001) %MON land_Tsrf_max_N              =   1.3045667353200E+01
(PID.TID 0000.0001) %MON land_Tgr1_ave_G              =  -4.6277638451203E+00
(PID.TID 0000.0001) %MON land_Tgr1_ave_S              =  -5.1332404353285E+00
(PID.TID 0000.0001) %MON land_Tgr1_ave_T              =   1.5592626447725E+01
(PID.TID 0000.0001) %MON land_Tgr1_ave_N              =  -1.7966372285232E+01
(PID.TID 0000.0001) %MON land_Tgr1_min_S              =  -3.9048015103209E+01
(PID.TID 0000.0001) %MON land_Tgr1_min_T              =  -6.8157570817405E+00
(PID.TID 0000.0001) %MON land_Tgr1_min_N              =  -5.4951149027333E+01
(PID.TID 0000.0001) %MON land_Tgr1_max_S              =   2.7365946890610E+01
(PID.TID 0000.0001) %MON land_Tgr1_max_T              =   3.0179485203477E+01
(PID.TID 0000.0001) %MON land_Tgr1_max_N              =   1.3045667353200E+01
(PID.TID 0000.0001) %MON land_Tgr2_ave_G              =   4.2069704456323E+00
(PID.TID 0000.0001) %MON land_Tgr2_ave_S              =  -1.8730719647737E+01
(PID.TID 0000.0001) %MON land_Tgr2_ave_T              =   2.2012711236151E+01
(PID.TID 0000.0001) %MON land_Tgr2_ave_N              =  -2.4233269165756E-01
(PID.TID 0000.0001) %MON land_Tgr2_min_S              =  -6.4760125424560E+01
(PID.TID 0000.0001) %MON land_Tgr2_min_T              =  -9.7049544593660E+00
(PID.TID 0000.0001) %MON land_Tgr2_min_N              =  -4.0194824137328E+01
(PID.TID 0000.0001) %MON land_Tgr2_max_S              =   2.3360519791274E+01
(PID.TID 0000.0001) %MON land_Tgr2_max_T              =   3.1359538739672E+01
(PID.TID 0000.0001) %MON land_Tgr2_max_N              =   2.9830962854178E+01
(PID.TID 0000.0001) %MON land_grdW_ave_G              =   4.8696573097784E-01
(PID.TID 0000.0001) %MON land_grdW_ave_S              =   3.0870854723176E-01
(PID.TID 0000.0001) %MON land_grdW_ave_T              =   5.6470284842390E-01
(PID.TID 0000.0001) %MON land_grdW_ave_N              =   4.9288071442596E-01
(PID.TID 0000.0001) %MON land_grdW_min_S              =   2.6016783482972E-02
(PID.TID 0000.0001) %MON land_grdW_min_T              =   0.0000000000000E+00
(PID.TID 0000.0001) %MON land_grdW_min_N              =   0.0000000000000E+00
(PID.TID 0000.0001) // =======================================================
(PID.TID 0000.0001) // End MONITOR Land statistics
(PID.TID 0000.0001) // =======================================================
(PID.TID 0000.0001) // =======================================================
(PID.TID 0000.0001) // Begin MONITOR Therm.SeaIce statistics
(PID.TID 0000.0001) // =======================================================
(PID.TID 0000.0001) %MON thSI_time_sec                =   2.2500000000000E+03
(PID.TID 0000.0001) %MON thSI_Ice_Area_G              =   7.4368771766484E+10
(PID.TID 0000.0001) %MON thSI_Ice_Area_S              =   0.0000000000000E+00
(PID.TID 0000.0001) %MON thSI_Ice_Area_N              =   7.4368771766484E+10
(PID.TID 0000.0001) %MON thSI_IceH_ave_G              =   9.8448747720932E-02
(PID.TID 0000.0001) %MON thSI_IceH_ave_S              =   0.0000000000000E+00
(PID.TID 0000.0001) %MON thSI_IceH_ave_N              =   9.8448747720932E-02
(PID.TID 0000.0001) %MON thSI_IceH_max_S              =   0.0000000000000E+00
(PID.TID 0000.0001) %MON thSI_IceH_max_N              =   1.1198459611717E-01
(PID.TID 0000.0001) %MON thSI_SnwH_ave_G              =   0.0000000000000E+00
(PID.TID 0000.0001) %MON thSI_SnwH_ave_S              =   0.0000000000000E+00
(PID.TID 0000.0001) %MON thSI_SnwH_ave_N              =   0.0000000000000E+00
(PID.TID 0000.0001) %MON thSI_SnwH_max_S              =   0.0000000000000E+00
(PID.TID 0000.0001) %MON thSI_SnwH_max_N              =   0.0000000000000E+00
(PID.TID 0000.0001) %MON thSI_TotEnerg_G              =  -2.2134404401576E+18
(PID.TID 0000.0001) %MON thSI_Tsrf_ave_G              =  -5.0506313723206E+00
(PID.TID 0000.0001) %MON thSI_Tsrf_ave_S              =   0.0000000000000E+00
(PID.TID 0000.0001) %MON thSI_Tsrf_ave_N              =  -5.0506313723206E+00
(PID.TID 0000.0001) %MON thSI_Tsrf_min_S              =   0.0000000000000E+00
(PID.TID 0000.0001) %MON thSI_Tsrf_min_N              =  -5.3004662161786E+00
(PID.TID 0000.0001) %MON thSI_Tsrf_max_S              =   0.0000000000000E+00
(PID.TID 0000.0001) %MON thSI_Tsrf_max_N              =  -3.2775752626837E+00
(PID.TID 0000.0001) %MON thSI_Tic1_ave_G              =  -2.8464371019135E+00
(PID.TID 0000.0001) %MON thSI_Tic1_ave_S              =   0.0000000000000E+00
(PID.TID 0000.0001) %MON thSI_Tic1_ave_N              =  -2.8464371019135E+00
(PID.TID 0000.0001) %MON thSI_Tic1_min_S              =   0.0000000000000E+00
(PID.TID 0000.0001) %MON thSI_Tic1_min_N              =  -3.5966514392152E+00
(PID.TID 0000.0001) %MON thSI_Tic1_max_S              =   0.0000000000000E+00
(PID.TID 0000.0001) %MON thSI_Tic1_max_N              =  -2.7423819777021E+00
(PID.TID 0000.0001) %MON thSI_Tic2_ave_G              =  -1.8998512559434E+00
(PID.TID 0000.0001) %MON thSI_Tic2_ave_S              =   0.0000000000000E+00
(PID.TID 0000.0001) %MON thSI_Tic2_ave_N              =  -1.8998512559434E+00
(PID.TID 0000.0001) %MON thSI_Tic2_min_S              =   0.0000000000000E+00
(PID.TID 0000.0001) %MON thSI_Tic2_min_N              =  -2.2992739930492E+00
(PID.TID 0000.0001) %MON thSI_Tic2_max_S              =   0.0000000000000E+00
(PID.TID 0000.0001) %MON thSI_Tic2_max_N              =  -1.8333413800915E+00
(PID.TID 0000.0001) // =======================================================
(PID.TID 0000.0001) // End MONITOR Therm.SeaIce statistics
(PID.TID 0000.0001) // =======================================================
 cg2d: Sum(rhs),rhsMax =   2.66936694970354E-10  2.06443449599745E+04
(PID.TID 0000.0001)                    cg2d_init_res =    2.25035486355321E+04
(PID.TID 0000.0001)                       cg2d_iters =    16
(PID.TID 0000.0001)                         cg2d_res =    8.38470858311198E-11
(PID.TID 0000.0001) // =======================================================
(PID.TID 0000.0001) // Begin MONITOR dynamic field statistics
(PID.TID 0000.0001) // =======================================================
(PID.TID 0000.0001) %MON time_tsnumber                =                     6
(PID.TID 0000.0001) %MON time_secondsf                =   2.7000000000000E+03
(PID.TID 0000.0001) %MON dynstat_eta_max              =   3.6540795524127E+03
(PID.TID 0000.0001) %MON dynstat_eta_min              =  -2.8732816904084E+03
(PID.TID 0000.0001) %MON dynstat_eta_mean             =   4.2172614175166E-15
(PID.TID 0000.0001) %MON dynstat_eta_sd               =   3.4255015274801E+02
(PID.TID 0000.0001) %MON dynstat_eta_del2             =   4.3866384910392E+01
(PID.TID 0000.0001) %MON dynstat_uvel_max             =   7.8601959427465E+00
(PID.TID 0000.0001) %MON dynstat_uvel_min             =  -7.8174808085980E+00
(PID.TID 0000.0001) %MON dynstat_uvel_mean            =  -4.9524309190717E-03
(PID.TID 0000.0001) %MON dynstat_uvel_sd              =   7.3176783508376E-01
(PID.TID 0000.0001) %MON dynstat_uvel_del2            =   2.1861633753650E-02
(PID.TID 0000.0001) %MON dynstat_vvel_max             =   7.4253941387947E+00
(PID.TID 0000.0001) %MON dynstat_vvel_min             =  -8.4840281416383E+00
(PID.TID 0000.0001) %MON dynstat_vvel_mean            =   7.3824179149596E-03
(PID.TID 0000.0001) %MON dynstat_vvel_sd              =   6.9883297097192E-01
(PID.TID 0000.0001) %MON dynstat_vvel_del2            =   2.0418487582774E-02
(PID.TID 0000.0001) %MON dynstat_wvel_max             =   6.4640994455349E-02
(PID.TID 0000.0001) %MON dynstat_wvel_min             =  -4.9949789400965E-01
(PID.TID 0000.0001) %MON dynstat_wvel_mean            =  -2.3533179534031E-03
(PID.TID 0000.0001) %MON dynstat_wvel_sd              =   1.7428475654751E-02
(PID.TID 0000.0001) %MON dynstat_wvel_del2            =   1.3223073148661E-03
(PID.TID 0000.0001) %MON dynstat_theta_max            =   4.3755716372746E+02
(PID.TID 0000.0001) %MON dynstat_theta_min            =   2.8810745460096E+02
(PID.TID 0000.0001) %MON dynstat_theta_mean           =   3.3171545431810E+02
(PID.TID 0000.0001) %MON dynstat_theta_sd             =   4.7419040639952E+01
(PID.TID 0000.0001) %MON dynstat_theta_del2           =   8.4804436994603E-03
(PID.TID 0000.0001) %MON dynstat_salt_max             =   2.1966513983353E+00
(PID.TID 0000.0001) %MON dynstat_salt_min             =  -1.0186234464722E-03
(PID.TID 0000.0001) %MON dynstat_salt_mean            =   2.3374827602660E-02
(PID.TID 0000.0001) %MON dynstat_salt_sd              =   1.0033300405761E-01
(PID.TID 0000.0001) %MON dynstat_salt_del2            =   3.8309539898383E-03
(PID.TID 0000.0001) %MON advcfl_uvel_max              =   1.1195232984984E-02
(PID.TID 0000.0001) %MON advcfl_vvel_max              =   1.2033078883252E-02
(PID.TID 0000.0001) %MON advcfl_wvel_max              =   8.1736019019761E-03
(PID.TID 0000.0001) %MON advcfl_W_hf_max              =   1.9918201373584E-02
(PID.TID 0000.0001) %MON pe_b_mean                    =  -7.8868245959697E-01
(PID.TID 0000.0001) %MON ke_max                       =   3.5161590922037E+01
(PID.TID 0000.0001) %MON ke_mean                      =   5.0894939601144E-01
(PID.TID 0000.0001) %MON ke_vol                       =   4.9523908919847E+19
(PID.TID 0000.0001) %MON vort_r_min                   =  -2.6422276580286E-05
(PID.TID 0000.0001) %MON vort_r_max                   =   1.2343915335723E-05
(PID.TID 0000.0001) %MON vort_a_mean                  =   6.7242814765345E-08
(PID.TID 0000.0001) %MON vort_a_sd                    =   8.3943251066690E-05
(PID.TID 0000.0001) %MON vort_p_mean                  =   6.8939448990573E-08
(PID.TID 0000.0001) %MON vort_p_sd                    =   9.1747992974860E-05
(PID.TID 0000.0001) %MON surfExpan_theta_mean         =   2.2852437316628E-01
(PID.TID 0000.0001) %MON surfExpan_salt_mean          =  -2.7287169188038E-05
(PID.TID 0000.0001) %MON surfExpan_Heat_mean          =  -1.8801015647867E+01
(PID.TID 0000.0001) %MON En_Budget_T2PE_mean          =   3.5669474453947E+01
(PID.TID 0000.0001) // =======================================================
(PID.TID 0000.0001) // End MONITOR dynamic field statistics
(PID.TID 0000.0001) // =======================================================
(PID.TID 0000.0001) // =======================================================
(PID.TID 0000.0001) // Begin MONITOR Land statistics
(PID.TID 0000.0001) // =======================================================
(PID.TID 0000.0001) %MON land_time_sec                =   2.7000000000000E+03
(PID.TID 0000.0001) %MON land_SnwH_ave_G              =   1.5324262649442E-01
(PID.TID 0000.0001) %MON land_SnwH_ave_S              =   5.5905826211878E-01
(PID.TID 0000.0001) %MON land_SnwH_ave_T              =   0.0000000000000E+00
(PID.TID 0000.0001) %MON land_SnwH_ave_N              =   1.2392942615594E-01
(PID.TID 0000.0001) %MON land_SnwH_max_S              =   9.9999698854381E-01
(PID.TID 0000.0001) %MON land_SnwH_max_T              =   0.0000000000000E+00
(PID.TID 0000.0001) %MON land_SnwH_max_N              =   9.9999956679837E-01
(PID.TID 0000.0001) %MON land_TotEnerg_G              =  -6.2906584200882E+21
(PID.TID 0000.0001) %MON land_TotEnerg_S              =  -4.9964629584015E+21
(PID.TID 0000.0001) %MON land_TotEnerg_T              =   7.3185633152271E+21
(PID.TID 0000.0001) %MON land_TotEnerg_N              =  -8.6127587769138E+21
(PID.TID 0000.0001) %MON land_Tsrf_ave_G              =  -6.2567717016601E+00
(PID.TID 0000.0001) %MON land_Tsrf_ave_S              =  -6.0006306280173E+00
(PID.TID 0000.0001) %MON land_Tsrf_ave_T              =   1.4980196127672E+01
(PID.TID 0000.0001) %MON land_Tsrf_ave_N              =  -2.0521284853148E+01
(PID.TID 0000.0001) %MON land_Tsrf_min_S              =  -3.4523342968439E+01
(PID.TID 0000.0001) %MON land_Tsrf_min_T              =  -6.5960254611072E+00
(PID.TID 0000.0001) %MON land_Tsrf_min_N              =  -5.1015658532227E+01
(PID.TID 0000.0001) %MON land_Tsrf_max_S              =   2.6533807447430E+01
(PID.TID 0000.0001) %MON land_Tsrf_max_T              =   2.9117512059867E+01
(PID.TID 0000.0001) %MON land_Tsrf_max_N              =   1.2563940005701E+01
(PID.TID 0000.0001) %MON land_Tgr1_ave_G              =  -4.9077596295205E+00
(PID.TID 0000.0001) %MON land_Tgr1_ave_S              =  -5.3779527544576E+00
(PID.TID 0000.0001) %MON land_Tgr1_ave_T              =   1.4980196127672E+01
(PID.TID 0000.0001) %MON land_Tgr1_ave_N              =  -1.8035823804604E+01
(PID.TID 0000.0001) %MON land_Tgr1_min_S              =  -3.9060137654125E+01
(PID.TID 0000.0001) %MON land_Tgr1_min_T              =  -6.5960254611072E+00
(PID.TID 0000.0001) %MON land_Tgr1_min_N              =  -5.4937256191055E+01
(PID.TID 0000.0001) %MON land_Tgr1_max_S              =   2.6533807447430E+01
(PID.TID 0000.0001) %MON land_Tgr1_max_T              =   2.9117512059867E+01
(PID.TID 0000.0001) %MON land_Tgr1_max_N              =   1.2563940005701E+01
(PID.TID 0000.0001) %MON land_Tgr2_ave_G              =   4.2068320363257E+00
(PID.TID 0000.0001) %MON land_Tgr2_ave_S              =  -1.8730497453612E+01
(PID.TID 0000.0001) %MON land_Tgr2_ave_T              =   2.2012594499803E+01
(PID.TID 0000.0001) %MON land_Tgr2_ave_N              =  -2.4260255108470E-01
(PID.TID 0000.0001) %MON land_Tgr2_min_S              =  -6.4759691887076E+01
(PID.TID 0000.0001) %MON land_Tgr2_min_T              =  -9.7049151765727E+00
(PID.TID 0000.0001) %MON land_Tgr2_min_N              =  -4.0195064276896E+01
(PID.TID 0000.0001) %MON land_Tgr2_max_S              =   2.3360568379138E+01
(PID.TID 0000.0001) %MON land_Tgr2_max_T              =   3.1359217932483E+01
(PID.TID 0000.0001) %MON land_Tgr2_max_N              =   2.9830572769554E+01
(PID.TID 0000.0001) %MON land_grdW_ave_G              =   4.8695061607250E-01
(PID.TID 0000.0001) %MON land_grdW_ave_S              =   3.0869682091826E-01
(PID.TID 0000.0001) %MON land_grdW_ave_T              =   5.6466400421218E-01
(PID.TID 0000.0001) %MON land_grdW_ave_N              =   4.9288034601501E-01
(PID.TID 0000.0001) %MON land_grdW_min_S              =   2.6059758305439E-02
(PID.TID 0000.0001) %MON land_grdW_min_T              =   0.0000000000000E+00
(PID.TID 0000.0001) %MON land_grdW_min_N              =   0.0000000000000E+00
(PID.TID 0000.0001) // =======================================================
(PID.TID 0000.0001) // End MONITOR Land statistics
(PID.TID 0000.0001) // =======================================================
(PID.TID 0000.0001) // =======================================================
(PID.TID 0000.0001) // Begin MONITOR Therm.SeaIce statistics
(PID.TID 0000.0001) // =======================================================
(PID.TID 0000.0001) %MON thSI_time_sec                =   2.7000000000000E+03
(PID.TID 0000.0001) %MON thSI_Ice_Area_G              =   8.7327107881920E+10
(PID.TID 0000.0001) %MON thSI_Ice_Area_S              =   0.0000000000000E+00
(PID.TID 0000.0001) %MON thSI_Ice_Area_N              =   8.7327107881920E+10
(PID.TID 0000.0001) %MON thSI_IceH_ave_G              =   1.0052196988506E-01
(PID.TID 0000.0001) %MON thSI_IceH_ave_S              =   0.0000000000000E+00
(PID.TID 0000.0001) %MON thSI_IceH_ave_N              =   1.0052196988506E-01
(PID.TID 0000.0001) %MON thSI_IceH_max_S              =   0.0000000000000E+00
(PID.TID 0000.0001) %MON thSI_IceH_max_N              =   1.1499945874084E-01
(PID.TID 0000.0001) %MON thSI_SnwH_ave_G              =   0.0000000000000E+00
(PID.TID 0000.0001) %MON thSI_SnwH_ave_S              =   0.0000000000000E+00
(PID.TID 0000.0001) %MON thSI_SnwH_ave_N              =   0.0000000000000E+00
(PID.TID 0000.0001) %MON thSI_SnwH_max_S              =   0.0000000000000E+00
(PID.TID 0000.0001) %MON thSI_SnwH_max_N              =   0.0000000000000E+00
(PID.TID 0000.0001) %MON thSI_TotEnerg_G              =  -2.6595178768498E+18
(PID.TID 0000.0001) %MON thSI_Tsrf_ave_G              =  -5.3464758673019E+00
(PID.TID 0000.0001) %MON thSI_Tsrf_ave_S              =   0.0000000000000E+00
(PID.TID 0000.0001) %MON thSI_Tsrf_ave_N              =  -5.3464758673019E+00
(PID.TID 0000.0001) %MON thSI_Tsrf_min_S              =   0.0000000000000E+00
(PID.TID 0000.0001) %MON thSI_Tsrf_min_N              =  -5.6351112539960E+00
(PID.TID 0000.0001) %MON thSI_Tsrf_max_S              =   0.0000000000000E+00
(PID.TID 0000.0001) %MON thSI_Tsrf_max_N              =  -3.3145895917226E+00
(PID.TID 0000.0001) %MON thSI_Tic1_ave_G              =  -3.1609001988481E+00
(PID.TID 0000.0001) %MON thSI_Tic1_ave_S              =   0.0000000000000E+00
(PID.TID 0000.0001) %MON thSI_Tic1_ave_N              =  -3.1609001988481E+00
(PID.TID 0000.0001) %MON thSI_Tic1_min_S              =   0.0000000000000E+00
(PID.TID 0000.0001) %MON thSI_Tic1_min_N              =  -3.7570974786063E+00
(PID.TID 0000.0001) %MON thSI_Tic1_max_S              =   0.0000000000000E+00
(PID.TID 0000.0001) %MON thSI_Tic1_max_N              =  -2.9064355835710E+00
(PID.TID 0000.0001) %MON thSI_Tic2_ave_G              =  -1.9803599827340E+00
(PID.TID 0000.0001) %MON thSI_Tic2_ave_S              =   0.0000000000000E+00
(PID.TID 0000.0001) %MON thSI_Tic2_ave_N              =  -1.9803599827340E+00
(PID.TID 0000.0001) %MON thSI_Tic2_min_S              =   0.0000000000000E+00
(PID.TID 0000.0001) %MON thSI_Tic2_min_N              =  -2.3582252513050E+00
(PID.TID 0000.0001) %MON thSI_Tic2_max_S              =   0.0000000000000E+00
(PID.TID 0000.0001) %MON thSI_Tic2_max_N              =  -1.9142178752305E+00
(PID.TID 0000.0001) // =======================================================
(PID.TID 0000.0001) // End MONITOR Therm.SeaIce statistics
(PID.TID 0000.0001) // =======================================================
 cg2d: Sum(rhs),rhsMax =  -1.75077730091289E-10  2.21089530889271E+04
(PID.TID 0000.0001)                    cg2d_init_res =    2.13570744009188E+04
(PID.TID 0000.0001)                       cg2d_iters =    16
(PID.TID 0000.0001)                         cg2d_res =    7.64211753423730E-11
(PID.TID 0000.0001) // =======================================================
(PID.TID 0000.0001) // Begin MONITOR dynamic field statistics
(PID.TID 0000.0001) // =======================================================
(PID.TID 0000.0001) %MON time_tsnumber                =                     7
(PID.TID 0000.0001) %MON time_secondsf                =   3.1500000000000E+03
(PID.TID 0000.0001) %MON dynstat_eta_max              =   3.9354246161183E+03
(PID.TID 0000.0001) %MON dynstat_eta_min              =  -2.8397598997359E+03
(PID.TID 0000.0001) %MON dynstat_eta_mean             =  -3.9160284591226E-15
(PID.TID 0000.0001) %MON dynstat_eta_sd               =   3.7780659700372E+02
(PID.TID 0000.0001) %MON dynstat_eta_del2             =   4.1769427424818E+01
(PID.TID 0000.0001) %MON dynstat_uvel_max             =   7.6482269772611E+00
(PID.TID 0000.0001) %MON dynstat_uvel_min             =  -7.9888887207951E+00
(PID.TID 0000.0001) %MON dynstat_uvel_mean            =  -5.6368803358815E-03
(PID.TID 0000.0001) %MON dynstat_uvel_sd              =   7.6029408723592E-01
(PID.TID 0000.0001) %MON dynstat_uvel_del2            =   2.1099030090713E-02
(PID.TID 0000.0001) %MON dynstat_vvel_max             =   7.3574458816673E+00
(PID.TID 0000.0001) %MON dynstat_vvel_min             =  -8.6761442966750E+00
(PID.TID 0000.0001) %MON dynstat_vvel_mean            =   8.8803516254950E-03
(PID.TID 0000.0001) %MON dynstat_vvel_sd              =   7.4746736723824E-01
(PID.TID 0000.0001) %MON dynstat_vvel_del2            =   2.0346414804234E-02
(PID.TID 0000.0001) %MON dynstat_wvel_max             =   7.1116273904577E-02
(PID.TID 0000.0001) %MON dynstat_wvel_min             =  -4.3378395993361E-01
(PID.TID 0000.0001) %MON dynstat_wvel_mean            =  -2.1625762065365E-03
(PID.TID 0000.0001) %MON dynstat_wvel_sd              =   1.6132274469185E-02
(PID.TID 0000.0001) %MON dynstat_wvel_del2            =   1.2862521613313E-03
(PID.TID 0000.0001) %MON dynstat_theta_max            =   4.3755509045059E+02
(PID.TID 0000.0001) %MON dynstat_theta_min            =   2.8786564411008E+02
(PID.TID 0000.0001) %MON dynstat_theta_mean           =   3.3171460707597E+02
(PID.TID 0000.0001) %MON dynstat_theta_sd             =   4.7420262047346E+01
(PID.TID 0000.0001) %MON dynstat_theta_del2           =   9.2513321170537E-03
(PID.TID 0000.0001) %MON dynstat_salt_max             =   2.4396001494046E+00
(PID.TID 0000.0001) %MON dynstat_salt_min             =  -1.1550096329328E-03
(PID.TID 0000.0001) %MON dynstat_salt_mean            =   2.7120517762434E-02
(PID.TID 0000.0001) %MON dynstat_salt_sd              =   1.1597734900964E-01
(PID.TID 0000.0001) %MON dynstat_salt_del2            =   4.3248002462112E-03
(PID.TID 0000.0001) %MON advcfl_uvel_max              =   1.1362988234581E-02
(PID.TID 0000.0001) %MON advcfl_vvel_max              =   1.2305561342021E-02
(PID.TID 0000.0001) %MON advcfl_wvel_max              =   7.0982829807318E-03
(PID.TID 0000.0001) %MON advcfl_W_hf_max              =   1.8533998901941E-02
(PID.TID 0000.0001) %MON pe_b_mean                    =  -8.7227364792271E-01
(PID.TID 0000.0001) %MON ke_max                       =   3.5729133903055E+01
(PID.TID 0000.0001) %MON ke_mean                      =   5.6508506653169E-01
(PID.TID 0000.0001) %MON ke_vol                       =   4.9523908919847E+19
(PID.TID 0000.0001) %MON vort_r_min                   =  -2.7172586660902E-05
(PID.TID 0000.0001) %MON vort_r_max                   =   1.5560437147000E-05
(PID.TID 0000.0001) %MON vort_a_mean                  =   6.7242814765274E-08
(PID.TID 0000.0001) %MON vort_a_sd                    =   8.3945296919257E-05
(PID.TID 0000.0001) %MON vort_p_mean                  =   6.8939449051077E-08
(PID.TID 0000.0001) %MON vort_p_sd                    =   9.1776823534090E-05
(PID.TID 0000.0001) %MON surfExpan_theta_mean         =   2.1035744463851E-01
(PID.TID 0000.0001) %MON surfExpan_salt_mean          =  -4.2486342941430E-05
(PID.TID 0000.0001) %MON surfExpan_Heat_mean          =  -1.7376648952131E+01
(PID.TID 0000.0001) %MON En_Budget_T2PE_mean          =   3.2879817539786E+01
(PID.TID 0000.0001) // =======================================================
(PID.TID 0000.0001) // End MONITOR dynamic field statistics
(PID.TID 0000.0001) // =======================================================
(PID.TID 0000.0001) // =======================================================
(PID.TID 0000.0001) // Begin MONITOR Land statistics
(PID.TID 0000.0001) // =======================================================
(PID.TID 0000.0001) %MON land_time_sec                =   3.1500000000000E+03
(PID.TID 0000.0001) %MON land_SnwH_ave_G              =   1.5324152734379E-01
(PID.TID 0000.0001) %MON land_SnwH_ave_S              =   5.5905735778070E-01
(PID.TID 0000.0001) %MON land_SnwH_ave_T              =   0.0000000000000E+00
(PID.TID 0000.0001) %MON land_SnwH_ave_N              =   1.2392752982885E-01
(PID.TID 0000.0001) %MON land_SnwH_max_S              =   9.9999645860852E-01
(PID.TID 0000.0001) %MON land_SnwH_max_T              =   0.0000000000000E+00
(PID.TID 0000.0001) %MON land_SnwH_max_N              =   9.9999949528239E-01
(PID.TID 0000.0001) %MON land_TotEnerg_G              =  -6.2970936329799E+21
(PID.TID 0000.0001) %MON land_TotEnerg_S              =  -4.9971974009685E+21
(PID.TID 0000.0001) %MON land_TotEnerg_T              =   7.3137986835693E+21
(PID.TID 0000.0001) %MON land_TotEnerg_N              =  -8.6136949155806E+21
(PID.TID 0000.0001) %MON land_Tsrf_ave_G              =  -6.4888876268827E+00
(PID.TID 0000.0001) %MON land_Tsrf_ave_S              =  -6.0908324994653E+00
(PID.TID 0000.0001) %MON land_Tsrf_ave_T              =   1.4434110725701E+01
(PID.TID 0000.0001) %MON land_Tsrf_ave_N              =  -2.0589777249830E+01
(PID.TID 0000.0001) %MON land_Tsrf_min_S              =  -3.4413045417679E+01
(PID.TID 0000.0001) %MON land_Tsrf_min_T              =  -6.3849503294363E+00
(PID.TID 0000.0001) %MON land_Tsrf_min_N              =  -5.1386197268742E+01
(PID.TID 0000.0001) %MON land_Tsrf_max_S              =   2.5790886032643E+01
(PID.TID 0000.0001) %MON land_Tsrf_max_T              =   2.8158964338772E+01
(PID.TID 0000.0001) %MON land_Tsrf_max_N              =   1.2186303313665E+01
(PID.TID 0000.0001) %MON land_Tgr1_ave_G              =  -5.1593517815541E+00
(PID.TID 0000.0001) %MON land_Tgr1_ave_S              =  -5.5952827039627E+00
(PID.TID 0000.0001) %MON land_Tgr1_ave_T              =   1.4434110725701E+01
(PID.TID 0000.0001) %MON land_Tgr1_ave_N              =  -1.8101876474965E+01
(PID.TID 0000.0001) %MON land_Tgr1_min_S              =  -3.9072120929936E+01
(PID.TID 0000.0001) %MON land_Tgr1_min_T              =  -6.3849503294363E+00
(PID.TID 0000.0001) %MON land_Tgr1_min_N              =  -5.4923747078715E+01
(PID.TID 0000.0001) %MON land_Tgr1_max_S              =   2.5790886032643E+01
(PID.TID 0000.0001) %MON land_Tgr1_max_T              =   2.8158964338772E+01
(PID.TID 0000.0001) %MON land_Tgr1_max_N              =   1.2186303313665E+01
(PID.TID 0000.0001) %MON land_Tgr2_ave_G              =   4.2066895211618E+00
(PID.TID 0000.0001) %MON land_Tgr2_ave_S              =  -1.8730278718137E+01
(PID.TID 0000.0001) %MON land_Tgr2_ave_T              =   2.2012469014756E+01
(PID.TID 0000.0001) %MON land_Tgr2_ave_N              =  -2.4287362596607E-01
(PID.TID 0000.0001) %MON land_Tgr2_min_S              =  -6.4759258575150E+01
(PID.TID 0000.0001) %MON land_Tgr2_min_T              =  -9.7048732271175E+00
(PID.TID 0000.0001) %MON land_Tgr2_min_N              =  -4.0195304155386E+01
(PID.TID 0000.0001) %MON land_Tgr2_max_S              =   2.3360603601990E+01
(PID.TID 0000.0001) %MON land_Tgr2_max_T              =   3.1358885584463E+01
(PID.TID 0000.0001) %MON land_Tgr2_max_N              =   2.9830172645294E+01
(PID.TID 0000.0001) %MON land_grdW_ave_G              =   4.8693635132541E-01
(PID.TID 0000.0001) %MON land_grdW_ave_S              =   3.0868557041564E-01
(PID.TID 0000.0001) %MON land_grdW_ave_T              =   5.6462745511266E-01
(PID.TID 0000.0001) %MON land_grdW_ave_N              =   4.9287998430057E-01
(PID.TID 0000.0001) %MON land_grdW_min_S              =   2.6109329152630E-02
(PID.TID 0000.0001) %MON land_grdW_min_T              =   0.0000000000000E+00
(PID.TID 0000.0001) %MON land_grdW_min_N              =   0.0000000000000E+00
(PID.TID 0000.0001) // =======================================================
(PID.TID 0000.0001) // End MONITOR Land statistics
(PID.TID 0000.0001) // =======================================================
(PID.TID 0000.0001) // =======================================================
(PID.TID 0000.0001) // Begin MONITOR Therm.SeaIce statistics
(PID.TID 0000.0001) // =======================================================
(PID.TID 0000.0001) %MON thSI_time_sec                =   3.1500000000000E+03
(PID.TID 0000.0001) %MON thSI_Ice_Area_G              =   9.9749068075887E+10
(PID.TID 0000.0001) %MON thSI_Ice_Area_S              =   0.0000000000000E+00
(PID.TID 0000.0001) %MON thSI_Ice_Area_N              =   9.9749068075887E+10
(PID.TID 0000.0001) %MON thSI_IceH_ave_G              =   1.0259818872061E-01
(PID.TID 0000.0001) %MON thSI_IceH_ave_S              =   0.0000000000000E+00
(PID.TID 0000.0001) %MON thSI_IceH_ave_N              =   1.0259818872061E-01
(PID.TID 0000.0001) %MON thSI_IceH_max_S              =   0.0000000000000E+00
(PID.TID 0000.0001) %MON thSI_IceH_max_N              =   1.1802193205079E-01
(PID.TID 0000.0001) %MON thSI_SnwH_ave_G              =   0.0000000000000E+00
(PID.TID 0000.0001) %MON thSI_SnwH_ave_S              =   0.0000000000000E+00
(PID.TID 0000.0001) %MON thSI_SnwH_ave_N              =   0.0000000000000E+00
(PID.TID 0000.0001) %MON thSI_SnwH_max_S              =   0.0000000000000E+00
(PID.TID 0000.0001) %MON thSI_SnwH_max_N              =   0.0000000000000E+00
(PID.TID 0000.0001) %MON thSI_TotEnerg_G              =  -3.1065140947116E+18
(PID.TID 0000.0001) %MON thSI_Tsrf_ave_G              =  -5.6301514980598E+00
(PID.TID 0000.0001) %MON thSI_Tsrf_ave_S              =   0.0000000000000E+00
(PID.TID 0000.0001) %MON thSI_Tsrf_ave_N              =  -5.6301514980598E+00
(PID.TID 0000.0001) %MON thSI_Tsrf_min_S              =   0.0000000000000E+00
(PID.TID 0000.0001) %MON thSI_Tsrf_min_N              =  -5.9584331244005E+00
(PID.TID 0000.0001) %MON thSI_Tsrf_max_S              =   0.0000000000000E+00
(PID.TID 0000.0001) %MON thSI_Tsrf_max_N              =  -3.3456713752983E+00
(PID.TID 0000.0001) %MON thSI_Tic1_ave_G              =  -3.4659499982416E+00
(PID.TID 0000.0001) %MON thSI_Tic1_ave_S              =   0.0000000000000E+00
(PID.TID 0000.0001) %MON thSI_Tic1_ave_N              =  -3.4659499982416E+00
(PID.TID 0000.0001) %MON thSI_Tic1_min_S              =   0.0000000000000E+00
(PID.TID 0000.0001) %MON thSI_Tic1_min_N              =  -3.8578721561191E+00
(PID.TID 0000.0001) %MON thSI_Tic1_max_S              =   0.0000000000000E+00
(PID.TID 0000.0001) %MON thSI_Tic1_max_N              =  -2.9303183098258E+00
(PID.TID 0000.0001) %MON thSI_Tic2_ave_G              =  -2.0624927924192E+00
(PID.TID 0000.0001) %MON thSI_Tic2_ave_S              =   0.0000000000000E+00
(PID.TID 0000.0001) %MON thSI_Tic2_ave_N              =  -2.0624927924192E+00
(PID.TID 0000.0001) %MON thSI_Tic2_min_S              =   0.0000000000000E+00
(PID.TID 0000.0001) %MON thSI_Tic2_min_N              =  -2.3952955064254E+00
(PID.TID 0000.0001) %MON thSI_Tic2_max_S              =   0.0000000000000E+00
(PID.TID 0000.0001) %MON thSI_Tic2_max_N              =  -1.9980138714462E+00
(PID.TID 0000.0001) // =======================================================
(PID.TID 0000.0001) // End MONITOR Therm.SeaIce statistics
(PID.TID 0000.0001) // =======================================================
 cg2d: Sum(rhs),rhsMax =   1.19598553283140E-10  2.24900403043602E+04
(PID.TID 0000.0001)                    cg2d_init_res =    2.04168319281910E+04
(PID.TID 0000.0001)                       cg2d_iters =    16
(PID.TID 0000.0001)                         cg2d_res =    7.63520131662411E-11
(PID.TID 0000.0001) // =======================================================
(PID.TID 0000.0001) // Begin MONITOR dynamic field statistics
(PID.TID 0000.0001) // =======================================================
(PID.TID 0000.0001) %MON time_tsnumber                =                     8
(PID.TID 0000.0001) %MON time_secondsf                =   3.6000000000000E+03
(PID.TID 0000.0001) %MON dynstat_eta_max              =   4.0365275826315E+03
(PID.TID 0000.0001) %MON dynstat_eta_min              =  -2.6638406200100E+03
(PID.TID 0000.0001) %MON dynstat_eta_mean             =  -6.1627242738115E-15
(PID.TID 0000.0001) %MON dynstat_eta_sd               =   4.0813397690801E+02
(PID.TID 0000.0001) %MON dynstat_eta_del2             =   3.9962285434047E+01
(PID.TID 0000.0001) %MON dynstat_uvel_max             =   7.2842502910678E+00
(PID.TID 0000.0001) %MON dynstat_uvel_min             =  -8.0386806515017E+00
(PID.TID 0000.0001) %MON dynstat_uvel_mean            =  -6.2833190221864E-03
(PID.TID 0000.0001) %MON dynstat_uvel_sd              =   7.7750228151915E-01
(PID.TID 0000.0001) %MON dynstat_uvel_del2            =   2.0360026630400E-02
(PID.TID 0000.0001) %MON dynstat_vvel_max             =   7.9155995096985E+00
(PID.TID 0000.0001) %MON dynstat_vvel_min             =  -8.4836729506727E+00
(PID.TID 0000.0001) %MON dynstat_vvel_mean            =   1.0454019190997E-02
(PID.TID 0000.0001) %MON dynstat_vvel_sd              =   7.8802748419236E-01
(PID.TID 0000.0001) %MON dynstat_vvel_del2            =   2.0508349551332E-02
(PID.TID 0000.0001) %MON dynstat_wvel_max             =   1.0982682442759E-01
(PID.TID 0000.0001) %MON dynstat_wvel_min             =  -3.7087586532548E-01
(PID.TID 0000.0001) %MON dynstat_wvel_mean            =  -1.9723087402889E-03
(PID.TID 0000.0001) %MON dynstat_wvel_sd              =   1.5069469103762E-02
(PID.TID 0000.0001) %MON dynstat_wvel_del2            =   1.2906359994628E-03
(PID.TID 0000.0001) %MON dynstat_theta_max            =   4.3755369281225E+02
(PID.TID 0000.0001) %MON dynstat_theta_min            =   2.8762342819065E+02
(PID.TID 0000.0001) %MON dynstat_theta_mean           =   3.3171360522328E+02
(PID.TID 0000.0001) %MON dynstat_theta_sd             =   4.7421620141764E+01
(PID.TID 0000.0001) %MON dynstat_theta_del2           =   1.0080110018616E-02
(PID.TID 0000.0001) %MON dynstat_salt_max             =   2.6593773752516E+00
(PID.TID 0000.0001) %MON dynstat_salt_min             =  -1.4288537769135E-03
(PID.TID 0000.0001) %MON dynstat_salt_mean            =   3.0833494292639E-02
(PID.TID 0000.0001) %MON dynstat_salt_sd              =   1.3141258460565E-01
(PID.TID 0000.0001) %MON dynstat_salt_del2            =   4.7917522943680E-03
(PID.TID 0000.0001) %MON advcfl_uvel_max              =   1.1433809739620E-02
(PID.TID 0000.0001) %MON advcfl_vvel_max              =   1.2032575108295E-02
(PID.TID 0000.0001) %MON advcfl_wvel_max              =   6.0688777962351E-03
(PID.TID 0000.0001) %MON advcfl_W_hf_max              =   1.8135930489941E-02
(PID.TID 0000.0001) %MON pe_b_mean                    =  -9.4083254119915E-01
(PID.TID 0000.0001) %MON ke_max                       =   3.7653373909941E+01
(PID.TID 0000.0001) %MON ke_mean                      =   6.0921501417215E-01
(PID.TID 0000.0001) %MON ke_vol                       =   4.9523908919847E+19
(PID.TID 0000.0001) %MON vort_r_min                   =  -2.7295509742081E-05
(PID.TID 0000.0001) %MON vort_r_max                   =   1.7960715426197E-05
(PID.TID 0000.0001) %MON vort_a_mean                  =   6.7242814765388E-08
(PID.TID 0000.0001) %MON vort_a_sd                    =   8.3947485211526E-05
(PID.TID 0000.0001) %MON vort_p_mean                  =   6.8939449220190E-08
(PID.TID 0000.0001) %MON vort_p_sd                    =   9.1802977981370E-05
(PID.TID 0000.0001) %MON surfExpan_theta_mean         =   1.9202406877649E-01
(PID.TID 0000.0001) %MON surfExpan_salt_mean          =  -6.0098739339642E-05
(PID.TID 0000.0001) %MON surfExpan_Heat_mean          =  -1.5926542357196E+01
(PID.TID 0000.0001) %MON En_Budget_T2PE_mean          =   3.0060075230424E+01
(PID.TID 0000.0001) // =======================================================
(PID.TID 0000.0001) // End MONITOR dynamic field statistics
(PID.TID 0000.0001) // =======================================================
(PID.TID 0000.0001) // =======================================================
(PID.TID 0000.0001) // Begin MONITOR Land statistics
(PID.TID 0000.0001) // =======================================================
(PID.TID 0000.0001) %MON land_time_sec                =   3.6000000000000E+03
(PID.TID 0000.0001) %MON land_SnwH_ave_G              =   1.5324044635652E-01
(PID.TID 0000.0001) %MON land_SnwH_ave_S              =   5.5905643127772E-01
(PID.TID 0000.0001) %MON land_SnwH_ave_T              =   0.0000000000000E+00
(PID.TID 0000.0001) %MON land_SnwH_ave_N              =   1.2392567687631E-01
(PID.TID 0000.0001) %MON land_SnwH_max_S              =   9.9999591808496E-01
(PID.TID 0000.0001) %MON land_SnwH_max_T              =   0.0000000000000E+00
(PID.TID 0000.0001) %MON land_SnwH_max_N              =   9.9999942775323E-01
(PID.TID 0000.0001) %MON land_TotEnerg_G              =  -6.3029113176685E+21
(PID.TID 0000.0001) %MON land_TotEnerg_S              =  -4.9978483617486E+21
(PID.TID 0000.0001) %MON land_TotEnerg_T              =   7.3095396480875E+21
(PID.TID 0000.0001) %MON land_TotEnerg_N              =  -8.6146026040073E+21
(PID.TID 0000.0001) %MON land_Tsrf_ave_G              =  -6.7003532743489E+00
(PID.TID 0000.0001) %MON land_Tsrf_ave_S              =  -6.1878753421635E+00
(PID.TID 0000.0001) %MON land_Tsrf_ave_T              =   1.3945540361418E+01
(PID.TID 0000.0001) %MON land_Tsrf_ave_N              =  -2.0653318577594E+01
(PID.TID 0000.0001) %MON land_Tsrf_min_S              =  -3.4292001714217E+01
(PID.TID 0000.0001) %MON land_Tsrf_min_T              =  -6.1817949795989E+00
(PID.TID 0000.0001) %MON land_Tsrf_min_N              =  -5.1697239867245E+01
(PID.TID 0000.0001) %MON land_Tsrf_max_S              =   2.5126702242596E+01
(PID.TID 0000.0001) %MON land_Tsrf_max_T              =   2.7293281849254E+01
(PID.TID 0000.0001) %MON land_Tsrf_max_N              =   1.1877236904024E+01
(PID.TID 0000.0001) %MON land_Tgr1_ave_G              =  -5.3860839153775E+00
(PID.TID 0000.0001) %MON land_Tgr1_ave_S              =  -5.7887201151158E+00
(PID.TID 0000.0001) %MON land_Tgr1_ave_T              =   1.3945540361418E+01
(PID.TID 0000.0001) %MON land_Tgr1_ave_N              =  -1.8164561344185E+01
(PID.TID 0000.0001) %MON land_Tgr1_min_S              =  -3.9083949879020E+01
(PID.TID 0000.0001) %MON land_Tgr1_min_T              =  -6.1817949795989E+00
(PID.TID 0000.0001) %MON land_Tgr1_min_N              =  -5.4910563130376E+01
(PID.TID 0000.0001) %MON land_Tgr1_max_S              =   2.5126702242596E+01
(PID.TID 0000.0001) %MON land_Tgr1_max_T              =   2.7293281849254E+01
(PID.TID 0000.0001) %MON land_Tgr1_max_N              =   1.1877236904024E+01
(PID.TID 0000.0001) %MON land_Tgr2_ave_G              =   4.2065433230508E+00
(PID.TID 0000.0001) %MON land_Tgr2_ave_S              =  -1.8730063060310E+01
(PID.TID 0000.0001) %MON land_Tgr2_ave_T              =   2.2012335760249E+01
(PID.TID 0000.0001) %MON land_Tgr2_ave_N              =  -2.4314585129690E-01
(PID.TID 0000.0001) %MON land_Tgr2_min_S              =  -6.4758825486453E+01
(PID.TID 0000.0001) %MON land_Tgr2_min_T              =  -9.7048287111682E+00
(PID.TID 0000.0001) %MON land_Tgr2_min_N              =  -4.0195543780521E+01
(PID.TID 0000.0001) %MON land_Tgr2_max_S              =   2.3360626907212E+01
(PID.TID 0000.0001) %MON land_Tgr2_max_T              =   3.1358543039086E+01
(PID.TID 0000.0001) %MON land_Tgr2_max_N              =   2.9829762999249E+01
(PID.TID 0000.0001) %MON land_grdW_ave_G              =   4.8692283620032E-01
(PID.TID 0000.0001) %MON land_grdW_ave_S              =   3.0867473171638E-01
(PID.TID 0000.0001) %MON land_grdW_ave_T              =   5.6459292901982E-01
(PID.TID 0000.0001) %MON land_grdW_ave_N              =   4.9287963146559E-01
(PID.TID 0000.0001) %MON land_grdW_min_S              =   2.6164622262445E-02
(PID.TID 0000.0001) %MON land_grdW_min_T              =   0.0000000000000E+00
(PID.TID 0000.0001) %MON land_grdW_min_N              =   0.0000000000000E+00
(PID.TID 0000.0001) // =======================================================
(PID.TID 0000.0001) // End MONITOR Land statistics
(PID.TID 0000.0001) // =======================================================
(PID.TID 0000.0001) // =======================================================
(PID.TID 0000.0001) // Begin MONITOR Therm.SeaIce statistics
(PID.TID 0000.0001) // =======================================================
(PID.TID 0000.0001) %MON thSI_time_sec                =   3.6000000000000E+03
(PID.TID 0000.0001) %MON thSI_Ice_Area_G              =   1.1167018861461E+11
(PID.TID 0000.0001) %MON thSI_Ice_Area_S              =   0.0000000000000E+00
(PID.TID 0000.0001) %MON thSI_Ice_Area_N              =   1.1167018861461E+11
(PID.TID 0000.0001) %MON thSI_IceH_ave_G              =   1.0467698349348E-01
(PID.TID 0000.0001) %MON thSI_IceH_ave_S              =   0.0000000000000E+00
(PID.TID 0000.0001) %MON thSI_IceH_ave_N              =   1.0467698349348E-01
(PID.TID 0000.0001) %MON thSI_IceH_max_S              =   0.0000000000000E+00
(PID.TID 0000.0001) %MON thSI_IceH_max_N              =   1.2105155791038E-01
(PID.TID 0000.0001) %MON thSI_SnwH_ave_G              =   0.0000000000000E+00
(PID.TID 0000.0001) %MON thSI_SnwH_ave_S              =   0.0000000000000E+00
(PID.TID 0000.0001) %MON thSI_SnwH_ave_N              =   0.0000000000000E+00
(PID.TID 0000.0001) %MON thSI_SnwH_max_S              =   0.0000000000000E+00
(PID.TID 0000.0001) %MON thSI_SnwH_max_N              =   0.0000000000000E+00
(PID.TID 0000.0001) %MON thSI_TotEnerg_G              =  -3.5543568578685E+18
(PID.TID 0000.0001) %MON thSI_Tsrf_ave_G              =  -5.8993248763785E+00
(PID.TID 0000.0001) %MON thSI_Tsrf_ave_S              =   0.0000000000000E+00
(PID.TID 0000.0001) %MON thSI_Tsrf_ave_N              =  -5.8993248763785E+00
(PID.TID 0000.0001) %MON thSI_Tsrf_min_S              =   0.0000000000000E+00
(PID.TID 0000.0001) %MON thSI_Tsrf_min_N              =  -6.2662077671056E+00
(PID.TID 0000.0001) %MON thSI_Tsrf_max_S              =   0.0000000000000E+00
(PID.TID 0000.0001) %MON thSI_Tsrf_max_N              =  -3.3744469165674E+00
(PID.TID 0000.0001) %MON thSI_Tic1_ave_G              =  -3.7567998668406E+00
(PID.TID 0000.0001) %MON thSI_Tic1_ave_S              =   0.0000000000000E+00
(PID.TID 0000.0001) %MON thSI_Tic1_ave_N              =  -3.7567998668406E+00
(PID.TID 0000.0001) %MON thSI_Tic1_min_S              =   0.0000000000000E+00
(PID.TID 0000.0001) %MON thSI_Tic1_min_N              =  -3.9239490648364E+00
(PID.TID 0000.0001) %MON thSI_Tic1_max_S              =   0.0000000000000E+00
(PID.TID 0000.0001) %MON thSI_Tic1_max_N              =  -2.9520441595104E+00
(PID.TID 0000.0001) %MON thSI_Tic2_ave_G              =  -2.1440856780779E+00
(PID.TID 0000.0001) %MON thSI_Tic2_ave_S              =   0.0000000000000E+00
(PID.TID 0000.0001) %MON thSI_Tic2_ave_N              =  -2.1440856780779E+00
(PID.TID 0000.0001) %MON thSI_Tic2_min_S              =   0.0000000000000E+00
(PID.TID 0000.0001) %MON thSI_Tic2_min_N              =  -2.4193933121577E+00
(PID.TID 0000.0001) %MON thSI_Tic2_max_S              =   0.0000000000000E+00
(PID.TID 0000.0001) %MON thSI_Tic2_max_N              =  -2.0822305211460E+00
(PID.TID 0000.0001) // =======================================================
(PID.TID 0000.0001) // End MONITOR Therm.SeaIce statistics
(PID.TID 0000.0001) // =======================================================
 cg2d: Sum(rhs),rhsMax =  -1.91448634723201E-10  2.20987617748741E+04
(PID.TID 0000.0001)                    cg2d_init_res =    1.96082165988414E+04
(PID.TID 0000.0001)                       cg2d_iters =    16
(PID.TID 0000.0001)                         cg2d_res =    7.89576786369087E-11
(PID.TID 0000.0001) // =======================================================
(PID.TID 0000.0001) // Begin MONITOR dynamic field statistics
(PID.TID 0000.0001) // =======================================================
(PID.TID 0000.0001) %MON time_tsnumber                =                     9
(PID.TID 0000.0001) %MON time_secondsf                =   4.0500000000000E+03
(PID.TID 0000.0001) %MON dynstat_eta_max              =   4.0104667071310E+03
(PID.TID 0000.0001) %MON dynstat_eta_min              =  -2.5308181726924E+03
(PID.TID 0000.0001) %MON dynstat_eta_mean             =   1.0066201359668E-14
(PID.TID 0000.0001) %MON dynstat_eta_sd               =   4.3495268792080E+02
(PID.TID 0000.0001) %MON dynstat_eta_del2             =   3.8777941685637E+01
(PID.TID 0000.0001) %MON dynstat_uvel_max             =   6.7846528441657E+00
(PID.TID 0000.0001) %MON dynstat_uvel_min             =  -7.7608307904788E+00
(PID.TID 0000.0001) %MON dynstat_uvel_mean            =  -6.9022527332012E-03
(PID.TID 0000.0001) %MON dynstat_uvel_sd              =   7.8622826831239E-01
(PID.TID 0000.0001) %MON dynstat_uvel_del2            =   2.0086287660513E-02
(PID.TID 0000.0001) %MON dynstat_vvel_max             =   8.3417417482177E+00
(PID.TID 0000.0001) %MON dynstat_vvel_min             =  -8.4377864269982E+00
(PID.TID 0000.0001) %MON dynstat_vvel_mean            =   1.2084467543390E-02
(PID.TID 0000.0001) %MON dynstat_vvel_sd              =   8.1917925830199E-01
(PID.TID 0000.0001) %MON dynstat_vvel_del2            =   2.0727939338546E-02
(PID.TID 0000.0001) %MON dynstat_wvel_max             =   1.4147777118264E-01
(PID.TID 0000.0001) %MON dynstat_wvel_min             =  -3.4698900004800E-01
(PID.TID 0000.0001) %MON dynstat_wvel_mean            =  -1.7925738089749E-03
(PID.TID 0000.0001) %MON dynstat_wvel_sd              =   1.4199439849839E-02
(PID.TID 0000.0001) %MON dynstat_wvel_del2            =   1.3173109526821E-03
(PID.TID 0000.0001) %MON dynstat_theta_max            =   4.3757200607899E+02
(PID.TID 0000.0001) %MON dynstat_theta_min            =   2.8738066200857E+02
(PID.TID 0000.0001) %MON dynstat_theta_mean           =   3.3171246975339E+02
(PID.TID 0000.0001) %MON dynstat_theta_sd             =   4.7423088195852E+01
(PID.TID 0000.0001) %MON dynstat_theta_del2           =   1.1000545629305E-02
(PID.TID 0000.0001) %MON dynstat_salt_max             =   2.8586366425191E+00
(PID.TID 0000.0001) %MON dynstat_salt_min             =  -1.7158378920765E-03
(PID.TID 0000.0001) %MON dynstat_salt_mean            =   3.4516183296100E-02
(PID.TID 0000.0001) %MON dynstat_salt_sd              =   1.4666338725168E-01
(PID.TID 0000.0001) %MON dynstat_salt_del2            =   5.2360626138211E-03
(PID.TID 0000.0001) %MON advcfl_uvel_max              =   1.1038610255421E-02
(PID.TID 0000.0001) %MON advcfl_vvel_max              =   1.1953552331711E-02
(PID.TID 0000.0001) %MON advcfl_wvel_max              =   5.6780018189673E-03
(PID.TID 0000.0001) %MON advcfl_W_hf_max              =   1.7584011010302E-02
(PID.TID 0000.0001) %MON pe_b_mean                    =  -9.9442333242328E-01
(PID.TID 0000.0001) %MON ke_max                       =   3.7653985793682E+01
(PID.TID 0000.0001) %MON ke_mean                      =   6.4090670139381E-01
(PID.TID 0000.0001) %MON ke_vol                       =   4.9523908919847E+19
(PID.TID 0000.0001) %MON vort_r_min                   =  -2.6920237744158E-05
(PID.TID 0000.0001) %MON vort_r_max                   =   1.9425118046834E-05
(PID.TID 0000.0001) %MON vort_a_mean                  =   6.7242814765378E-08
(PID.TID 0000.0001) %MON vort_a_sd                    =   8.3949784577405E-05
(PID.TID 0000.0001) %MON vort_p_mean                  =   6.8939449595755E-08
(PID.TID 0000.0001) %MON vort_p_sd                    =   9.1826042880197E-05
(PID.TID 0000.0001) %MON surfExpan_theta_mean         =   1.7451344988378E-01
(PID.TID 0000.0001) %MON surfExpan_salt_mean          =  -8.0214062425814E-05
(PID.TID 0000.0001) %MON surfExpan_Heat_mean          =  -1.4536383529077E+01
(PID.TID 0000.0001) %MON En_Budget_T2PE_mean          =   2.7368145009230E+01
(PID.TID 0000.0001) // =======================================================
(PID.TID 0000.0001) // End MONITOR dynamic field statistics
(PID.TID 0000.0001) // =======================================================
(PID.TID 0000.0001) // =======================================================
(PID.TID 0000.0001) // Begin MONITOR Land statistics
(PID.TID 0000.0001) // =======================================================
(PID.TID 0000.0001) %MON land_time_sec                =   4.0500000000000E+03
(PID.TID 0000.0001) %MON land_SnwH_ave_G              =   1.5323938350104E-01
(PID.TID 0000.0001) %MON land_SnwH_ave_S              =   5.5905549074647E-01
(PID.TID 0000.0001) %MON land_SnwH_ave_T              =   0.0000000000000E+00
(PID.TID 0000.0001) %MON land_SnwH_ave_N              =   1.2392386459596E-01
(PID.TID 0000.0001) %MON land_SnwH_max_S              =   9.9999536768642E-01
(PID.TID 0000.0001) %MON land_SnwH_max_T              =   0.0000000000000E+00
(PID.TID 0000.0001) %MON land_SnwH_max_N              =   9.9999936229122E-01
(PID.TID 0000.0001) %MON land_TotEnerg_G              =  -6.3081859861848E+21
(PID.TID 0000.0001) %MON land_TotEnerg_S              =  -4.9984259616501E+21
(PID.TID 0000.0001) %MON land_TotEnerg_T              =   7.3057237620082E+21
(PID.TID 0000.0001) %MON land_TotEnerg_N              =  -8.6154837865429E+21
(PID.TID 0000.0001) %MON land_Tsrf_ave_G              =  -6.8930729022405E+00
(PID.TID 0000.0001) %MON land_Tsrf_ave_S              =  -6.2948518877694E+00
(PID.TID 0000.0001) %MON land_Tsrf_ave_T              =   1.3507515633034E+01
(PID.TID 0000.0001) %MON land_Tsrf_ave_N              =  -2.0710045207129E+01
(PID.TID 0000.0001) %MON land_Tsrf_min_S              =  -3.4176803644336E+01
(PID.TID 0000.0001) %MON land_Tsrf_min_T              =  -5.9857476294955E+00
(PID.TID 0000.0001) %MON land_Tsrf_min_N              =  -5.1868129985118E+01
(PID.TID 0000.0001) %MON land_Tsrf_max_S              =   2.4532860384746E+01
(PID.TID 0000.0001) %MON land_Tsrf_max_T              =   2.6510948265147E+01
(PID.TID 0000.0001) %MON land_Tsrf_max_N              =   1.1588654316279E+01
(PID.TID 0000.0001) %MON land_Tgr1_ave_G              =  -5.5909898169655E+00
(PID.TID 0000.0001) %MON land_Tgr1_ave_S              =  -5.9620633840196E+00
(PID.TID 0000.0001) %MON land_Tgr1_ave_T              =   1.3507515633034E+01
(PID.TID 0000.0001) %MON land_Tgr1_ave_N              =  -1.8224036074874E+01
(PID.TID 0000.0001) %MON land_Tgr1_min_S              =  -3.9095612772658E+01
(PID.TID 0000.0001) %MON land_Tgr1_min_T              =  -5.9857476294955E+00
(PID.TID 0000.0001) %MON land_Tgr1_min_N              =  -5.4897567347392E+01
(PID.TID 0000.0001) %MON land_Tgr1_max_S              =   2.4532860384746E+01
(PID.TID 0000.0001) %MON land_Tgr1_max_T              =   2.6510948265147E+01
(PID.TID 0000.0001) %MON land_Tgr1_max_N              =   1.1588654316279E+01
(PID.TID 0000.0001) %MON land_Tgr2_ave_G              =   4.2063938119740E+00
(PID.TID 0000.0001) %MON land_Tgr2_ave_S              =  -1.8729850159366E+01
(PID.TID 0000.0001) %MON land_Tgr2_ave_T              =   2.2012195587489E+01
(PID.TID 0000.0001) %MON land_Tgr2_ave_N              =  -2.4341916247789E-01
(PID.TID 0000.0001) %MON land_Tgr2_min_S              =  -6.4758392618754E+01
(PID.TID 0000.0001) %MON land_Tgr2_min_T              =  -9.7047817186392E+00
(PID.TID 0000.0001) %MON land_Tgr2_min_N              =  -4.0195783157221E+01
(PID.TID 0000.0001) %MON land_Tgr2_max_S              =   2.3360639560483E+01
(PID.TID 0000.0001) %MON land_Tgr2_max_T              =   3.1358191353868E+01
(PID.TID 0000.0001) %MON land_Tgr2_max_N              =   2.9829344254960E+01
(PID.TID 0000.0001) %MON land_grdW_ave_G              =   4.8690999105357E-01
(PID.TID 0000.0001) %MON land_grdW_ave_S              =   3.0866425668018E-01
(PID.TID 0000.0001) %MON land_grdW_ave_T              =   5.6456021574989E-01
(PID.TID 0000.0001) %MON land_grdW_ave_N              =   4.9287928481776E-01
(PID.TID 0000.0001) %MON land_grdW_min_S              =   2.6224883377147E-02
(PID.TID 0000.0001) %MON land_grdW_min_T              =   0.0000000000000E+00
(PID.TID 0000.0001) %MON land_grdW_min_N              =   0.0000000000000E+00
(PID.TID 0000.0001) // =======================================================
(PID.TID 0000.0001) // End MONITOR Land statistics
(PID.TID 0000.0001) // =======================================================
(PID.TID 0000.0001) // =======================================================
(PID.TID 0000.0001) // Begin MONITOR Therm.SeaIce statistics
(PID.TID 0000.0001) // =======================================================
(PID.TID 0000.0001) %MON thSI_time_sec                =   4.0500000000000E+03
(PID.TID 0000.0001) %MON thSI_Ice_Area_G              =   1.2309628901645E+11
(PID.TID 0000.0001) %MON thSI_Ice_Area_S              =   0.0000000000000E+00
(PID.TID 0000.0001) %MON thSI_Ice_Area_N              =   1.2309628901645E+11
(PID.TID 0000.0001) %MON thSI_IceH_ave_G              =   1.0676479828106E-01
(PID.TID 0000.0001) %MON thSI_IceH_ave_S              =   0.0000000000000E+00
(PID.TID 0000.0001) %MON thSI_IceH_ave_N              =   1.0676479828106E-01
(PID.TID 0000.0001) %MON thSI_IceH_max_S              =   0.0000000000000E+00
(PID.TID 0000.0001) %MON thSI_IceH_max_N              =   1.2408300533643E-01
(PID.TID 0000.0001) %MON thSI_SnwH_ave_G              =   0.0000000000000E+00
(PID.TID 0000.0001) %MON thSI_SnwH_ave_S              =   0.0000000000000E+00
(PID.TID 0000.0001) %MON thSI_SnwH_ave_N              =   0.0000000000000E+00
(PID.TID 0000.0001) %MON thSI_SnwH_max_S              =   0.0000000000000E+00
(PID.TID 0000.0001) %MON thSI_SnwH_max_N              =   0.0000000000000E+00
(PID.TID 0000.0001) %MON thSI_TotEnerg_G              =  -4.0023798038227E+18
(PID.TID 0000.0001) %MON thSI_Tsrf_ave_G              =  -6.1528455896391E+00
(PID.TID 0000.0001) %MON thSI_Tsrf_ave_S              =   0.0000000000000E+00
(PID.TID 0000.0001) %MON thSI_Tsrf_ave_N              =  -6.1528455896391E+00
(PID.TID 0000.0001) %MON thSI_Tsrf_min_S              =   0.0000000000000E+00
(PID.TID 0000.0001) %MON thSI_Tsrf_min_N              =  -6.5563508802090E+00
(PID.TID 0000.0001) %MON thSI_Tsrf_max_S              =   0.0000000000000E+00
(PID.TID 0000.0001) %MON thSI_Tsrf_max_N              =  -3.4020612173011E+00
(PID.TID 0000.0001) %MON thSI_Tic1_ave_G              =  -4.0305745542982E+00
(PID.TID 0000.0001) %MON thSI_Tic1_ave_S              =   0.0000000000000E+00
(PID.TID 0000.0001) %MON thSI_Tic1_ave_N              =  -4.0305745542982E+00
(PID.TID 0000.0001) %MON thSI_Tic1_min_S              =   0.0000000000000E+00
(PID.TID 0000.0001) %MON thSI_Tic1_min_N              =  -4.1094255444359E+00
(PID.TID 0000.0001) %MON thSI_Tic1_max_S              =   0.0000000000000E+00
(PID.TID 0000.0001) %MON thSI_Tic1_max_N              =  -2.9727649181467E+00
(PID.TID 0000.0001) %MON thSI_Tic2_ave_G              =  -2.2235425005609E+00
(PID.TID 0000.0001) %MON thSI_Tic2_ave_S              =   0.0000000000000E+00
(PID.TID 0000.0001) %MON thSI_Tic2_ave_N              =  -2.2235425005609E+00
(PID.TID 0000.0001) %MON thSI_Tic2_min_S              =   0.0000000000000E+00
(PID.TID 0000.0001) %MON thSI_Tic2_min_N              =  -2.4359374149156E+00
(PID.TID 0000.0001) %MON thSI_Tic2_max_S              =   0.0000000000000E+00
(PID.TID 0000.0001) %MON thSI_Tic2_max_N              =  -2.1130492907588E+00
(PID.TID 0000.0001) // =======================================================
(PID.TID 0000.0001) // End MONITOR Therm.SeaIce statistics
(PID.TID 0000.0001) // =======================================================
 cg2d: Sum(rhs),rhsMax =  -1.24600774142891E-10  2.12760325725835E+04
(PID.TID 0000.0001)                    cg2d_init_res =    1.88105103510800E+04
(PID.TID 0000.0001)                       cg2d_iters =    16
(PID.TID 0000.0001)                         cg2d_res =    8.15718492733753E-11
(PID.TID 0000.0001) // =======================================================
(PID.TID 0000.0001) // Begin MONITOR dynamic field statistics
(PID.TID 0000.0001) // =======================================================
(PID.TID 0000.0001) %MON time_tsnumber                =                    10
(PID.TID 0000.0001) %MON time_secondsf                =   4.5000000000000E+03
(PID.TID 0000.0001) %MON dynstat_eta_max              =   3.9166105399285E+03
(PID.TID 0000.0001) %MON dynstat_eta_min              =  -2.2942770799704E+03
(PID.TID 0000.0001) %MON dynstat_eta_mean             =   6.2505838866764E-15
(PID.TID 0000.0001) %MON dynstat_eta_sd               =   4.5913959984760E+02
(PID.TID 0000.0001) %MON dynstat_eta_del2             =   3.8102640991006E+01
(PID.TID 0000.0001) %MON dynstat_uvel_max             =   6.7832329179885E+00
(PID.TID 0000.0001) %MON dynstat_uvel_min             =  -7.2501701180454E+00
(PID.TID 0000.0001) %MON dynstat_uvel_mean            =  -7.4986516865238E-03
(PID.TID 0000.0001) %MON dynstat_uvel_sd              =   7.8901297500909E-01
(PID.TID 0000.0001) %MON dynstat_uvel_del2            =   2.0022624766588E-02
(PID.TID 0000.0001) %MON dynstat_vvel_max             =   8.5737330020757E+00
(PID.TID 0000.0001) %MON dynstat_vvel_min             =  -8.3899936702893E+00
(PID.TID 0000.0001) %MON dynstat_vvel_mean            =   1.3752086340864E-02
(PID.TID 0000.0001) %MON dynstat_vvel_sd              =   8.4021501790956E-01
(PID.TID 0000.0001) %MON dynstat_vvel_del2            =   2.0823733465445E-02
(PID.TID 0000.0001) %MON dynstat_wvel_max             =   1.6038387726556E-01
(PID.TID 0000.0001) %MON dynstat_wvel_min             =  -3.3666334054038E-01
(PID.TID 0000.0001) %MON dynstat_wvel_mean            =  -1.6233136760522E-03
(PID.TID 0000.0001) %MON dynstat_wvel_sd              =   1.3399189960773E-02
(PID.TID 0000.0001) %MON dynstat_wvel_del2            =   1.3329260994513E-03
(PID.TID 0000.0001) %MON dynstat_theta_max            =   4.3759291596470E+02
(PID.TID 0000.0001) %MON dynstat_theta_min            =   2.8713764269413E+02
(PID.TID 0000.0001) %MON dynstat_theta_mean           =   3.3171122173708E+02
(PID.TID 0000.0001) %MON dynstat_theta_sd             =   4.7424647439702E+01
(PID.TID 0000.0001) %MON dynstat_theta_del2           =   1.1986994332613E-02
(PID.TID 0000.0001) %MON dynstat_salt_max             =   3.0396882117555E+00
(PID.TID 0000.0001) %MON dynstat_salt_min             =  -1.8833156355756E-03
(PID.TID 0000.0001) %MON dynstat_salt_mean            =   3.8170526010691E-02
(PID.TID 0000.0001) %MON dynstat_salt_sd              =   1.6175016571701E-01
(PID.TID 0000.0001) %MON dynstat_salt_del2            =   5.6645642789421E-03
(PID.TID 0000.0001) %MON advcfl_uvel_max              =   1.0312272536181E-02
(PID.TID 0000.0001) %MON advcfl_vvel_max              =   1.2054709830878E-02
(PID.TID 0000.0001) %MON advcfl_wvel_max              =   5.5090364815699E-03
(PID.TID 0000.0001) %MON advcfl_W_hf_max              =   1.6859884744097E-02
(PID.TID 0000.0001) %MON pe_b_mean                    =  -1.0337208693880E+00
(PID.TID 0000.0001) %MON ke_max                       =   3.6090183828183E+01
(PID.TID 0000.0001) %MON ke_mean                      =   6.6046349489074E-01
(PID.TID 0000.0001) %MON ke_vol                       =   4.9523908919847E+19
(PID.TID 0000.0001) %MON vort_r_min                   =  -2.9127173460299E-05
(PID.TID 0000.0001) %MON vort_r_max                   =   1.9986057313082E-05
(PID.TID 0000.0001) %MON vort_a_mean                  =   6.7242814765380E-08
(PID.TID 0000.0001) %MON vort_a_sd                    =   8.3952171752007E-05
(PID.TID 0000.0001) %MON vort_p_mean                  =   6.8939450229543E-08
(PID.TID 0000.0001) %MON vort_p_sd                    =   9.1846029991741E-05
(PID.TID 0000.0001) %MON surfExpan_theta_mean         =   1.5783485904550E-01
(PID.TID 0000.0001) %MON surfExpan_salt_mean          =  -1.0296016881304E-04
(PID.TID 0000.0001) %MON surfExpan_Heat_mean          =  -1.3212242394996E+01
(PID.TID 0000.0001) %MON En_Budget_T2PE_mean          =   2.4809586246720E+01
(PID.TID 0000.0001) // =======================================================
(PID.TID 0000.0001) // End MONITOR dynamic field statistics
(PID.TID 0000.0001) // =======================================================
(PID.TID 0000.0001) // =======================================================
(PID.TID 0000.0001) // Begin MONITOR Land statistics
(PID.TID 0000.0001) // =======================================================
(PID.TID 0000.0001) %MON land_time_sec                =   4.5000000000000E+03
(PID.TID 0000.0001) %MON land_SnwH_ave_G              =   1.5323833872699E-01
(PID.TID 0000.0001) %MON land_SnwH_ave_S              =   5.5905454419567E-01
(PID.TID 0000.0001) %MON land_SnwH_ave_T              =   0.0000000000000E+00
(PID.TID 0000.0001) %MON land_SnwH_ave_N              =   1.2392209028950E-01
(PID.TID 0000.0001) %MON land_SnwH_max_S              =   9.9999481059575E-01
(PID.TID 0000.0001) %MON land_SnwH_max_T              =   0.0000000000000E+00
(PID.TID 0000.0001) %MON land_SnwH_max_N              =   9.9999929752786E-01
(PID.TID 0000.0001) %MON land_TotEnerg_G              =  -6.3129782824895E+21
(PID.TID 0000.0001) %MON land_TotEnerg_S              =  -4.9989391240829E+21
(PID.TID 0000.0001) %MON land_TotEnerg_T              =   7.3023011587758E+21
(PID.TID 0000.0001) %MON land_TotEnerg_N              =  -8.6163403171824E+21
(PID.TID 0000.0001) %MON land_Tsrf_ave_G              =  -7.0691356245097E+00
(PID.TID 0000.0001) %MON land_Tsrf_ave_S              =  -6.4113752721894E+00
(PID.TID 0000.0001) %MON land_Tsrf_ave_T              =   1.3114552650757E+01
(PID.TID 0000.0001) %MON land_Tsrf_ave_N              =  -2.0760582513112E+01
(PID.TID 0000.0001) %MON land_Tsrf_min_S              =  -3.4087176680562E+01
(PID.TID 0000.0001) %MON land_Tsrf_min_T              =  -5.7964677114398E+00
(PID.TID 0000.0001) %MON land_Tsrf_min_N              =  -5.1928076732103E+01
(PID.TID 0000.0001) %MON land_Tsrf_max_S              =   2.4001725559576E+01
(PID.TID 0000.0001) %MON land_Tsrf_max_T              =   2.5803554366920E+01
(PID.TID 0000.0001) %MON land_Tsrf_max_N              =   1.1317522723333E+01
(PID.TID 0000.0001) %MON land_Tgr1_ave_G              =  -5.7761536430246E+00
(PID.TID 0000.0001) %MON land_Tgr1_ave_S              =  -6.1169927967208E+00
(PID.TID 0000.0001) %MON land_Tgr1_ave_T              =   1.3114552650757E+01
(PID.TID 0000.0001) %MON land_Tgr1_ave_N              =  -1.8280245595152E+01
(PID.TID 0000.0001) %MON land_Tgr1_min_S              =  -3.9107108232173E+01
(PID.TID 0000.0001) %MON land_Tgr1_min_T              =  -5.7964677114398E+00
(PID.TID 0000.0001) %MON land_Tgr1_min_N              =  -5.4884651396332E+01
(PID.TID 0000.0001) %MON land_Tgr1_max_S              =   2.4001725559576E+01
(PID.TID 0000.0001) %MON land_Tgr1_max_T              =   2.5803554366920E+01
(PID.TID 0000.0001) %MON land_Tgr1_max_N              =   1.1317522723333E+01
(PID.TID 0000.0001) %MON land_Tgr2_ave_G              =   4.2062413200672E+00
(PID.TID 0000.0001) %MON land_Tgr2_ave_S              =  -1.8729639721994E+01
(PID.TID 0000.0001) %MON land_Tgr2_ave_T              =   2.2012049243707E+01
(PID.TID 0000.0001) %MON land_Tgr2_ave_N              =  -2.4369349196835E-01
(PID.TID 0000.0001) %MON land_Tgr2_min_S              =  -6.4757959970241E+01
(PID.TID 0000.0001) %MON land_Tgr2_min_T              =  -9.7047323350979E+00
(PID.TID 0000.0001) %MON land_Tgr2_min_N              =  -4.0196022287691E+01
(PID.TID 0000.0001) %MON land_Tgr2_max_S              =   2.3360642686951E+01
(PID.TID 0000.0001) %MON land_Tgr2_max_T              =   3.1357831369508E+01
(PID.TID 0000.0001) %MON land_Tgr2_max_N              =   2.9828916770138E+01
(PID.TID 0000.0001) %MON land_grdW_ave_G              =   4.8689775316644E-01
(PID.TID 0000.0001) %MON land_grdW_ave_S              =   3.0865410057602E-01
(PID.TID 0000.0001) %MON land_grdW_ave_T              =   5.6452915447090E-01
(PID.TID 0000.0001) %MON land_grdW_ave_N              =   4.9287894132042E-01
(PID.TID 0000.0001) %MON land_grdW_min_S              =   2.6289459026524E-02
(PID.TID 0000.0001) %MON land_grdW_min_T              =   0.0000000000000E+00
(PID.TID 0000.0001) %MON land_grdW_min_N              =   0.0000000000000E+00
(PID.TID 0000.0001) // =======================================================
(PID.TID 0000.0001) // End MONITOR Land statistics
(PID.TID 0000.0001) // =======================================================
(PID.TID 0000.0001) // =======================================================
(PID.TID 0000.0001) // Begin MONITOR Therm.SeaIce statistics
(PID.TID 0000.0001) // =======================================================
(PID.TID 0000.0001) %MON thSI_time_sec                =   4.5000000000000E+03
(PID.TID 0000.0001) %MON thSI_Ice_Area_G              =   1.3408487945835E+11
(PID.TID 0000.0001) %MON thSI_Ice_Area_S              =   0.0000000000000E+00
(PID.TID 0000.0001) %MON thSI_Ice_Area_N              =   1.3408487945835E+11
(PID.TID 0000.0001) %MON thSI_IceH_ave_G              =   1.0885269461595E-01
(PID.TID 0000.0001) %MON thSI_IceH_ave_S              =   0.0000000000000E+00
(PID.TID 0000.0001) %MON thSI_IceH_ave_N              =   1.0885269461595E-01
(PID.TID 0000.0001) %MON thSI_IceH_max_S              =   0.0000000000000E+00
(PID.TID 0000.0001) %MON thSI_IceH_max_N              =   1.2712037587547E-01
(PID.TID 0000.0001) %MON thSI_SnwH_ave_G              =   0.0000000000000E+00
(PID.TID 0000.0001) %MON thSI_SnwH_ave_S              =   0.0000000000000E+00
(PID.TID 0000.0001) %MON thSI_SnwH_ave_N              =   0.0000000000000E+00
(PID.TID 0000.0001) %MON thSI_SnwH_max_S              =   0.0000000000000E+00
(PID.TID 0000.0001) %MON thSI_SnwH_max_N              =   0.0000000000000E+00
(PID.TID 0000.0001) %MON thSI_TotEnerg_G              =  -4.4511263534830E+18
(PID.TID 0000.0001) %MON thSI_Tsrf_ave_G              =  -6.3897349462236E+00
(PID.TID 0000.0001) %MON thSI_Tsrf_ave_S              =   0.0000000000000E+00
(PID.TID 0000.0001) %MON thSI_Tsrf_ave_N              =  -6.3897349462236E+00
(PID.TID 0000.0001) %MON thSI_Tsrf_min_S              =   0.0000000000000E+00
(PID.TID 0000.0001) %MON thSI_Tsrf_min_N              =  -6.8281779429235E+00
(PID.TID 0000.0001) %MON thSI_Tsrf_max_S              =   0.0000000000000E+00
(PID.TID 0000.0001) %MON thSI_Tsrf_max_N              =  -3.4287270561214E+00
(PID.TID 0000.0001) %MON thSI_Tic1_ave_G              =  -4.2859059155648E+00
(PID.TID 0000.0001) %MON thSI_Tic1_ave_S              =   0.0000000000000E+00
(PID.TID 0000.0001) %MON thSI_Tic1_ave_N              =  -4.2859059155648E+00
(PID.TID 0000.0001) %MON thSI_Tic1_min_S              =   0.0000000000000E+00
(PID.TID 0000.0001) %MON thSI_Tic1_min_N              =  -4.3782369322369E+00
(PID.TID 0000.0001) %MON thSI_Tic1_max_S              =   0.0000000000000E+00
(PID.TID 0000.0001) %MON thSI_Tic1_max_N              =  -2.9927299708835E+00
(PID.TID 0000.0001) %MON thSI_Tic2_ave_G              =  -2.2997713205177E+00
(PID.TID 0000.0001) %MON thSI_Tic2_ave_S              =   0.0000000000000E+00
(PID.TID 0000.0001) %MON thSI_Tic2_ave_N              =  -2.2997713205177E+00
(PID.TID 0000.0001) %MON thSI_Tic2_min_S              =   0.0000000000000E+00
(PID.TID 0000.0001) %MON thSI_Tic2_min_N              =  -2.4480890310773E+00
(PID.TID 0000.0001) %MON thSI_Tic2_max_S              =   0.0000000000000E+00
(PID.TID 0000.0001) %MON thSI_Tic2_max_N              =  -2.1196675639546E+00
(PID.TID 0000.0001) // =======================================================
(PID.TID 0000.0001) // End MONITOR Therm.SeaIce statistics
(PID.TID 0000.0001) // =======================================================
 cg2d: Sum(rhs),rhsMax =   3.71073838323355E-10  2.03646791832497E+04
(PID.TID 0000.0001)                    cg2d_init_res =    1.78976382040108E+04
(PID.TID 0000.0001)                       cg2d_iters =    16
(PID.TID 0000.0001)                         cg2d_res =    8.53267011895015E-11
(PID.TID 0000.0001) // =======================================================
(PID.TID 0000.0001) // Begin MONITOR dynamic field statistics
(PID.TID 0000.0001) // =======================================================
(PID.TID 0000.0001) %MON time_tsnumber                =                    11
(PID.TID 0000.0001) %MON time_secondsf                =   4.9500000000000E+03
(PID.TID 0000.0001) %MON dynstat_eta_max              =   3.8564571972088E+03
(PID.TID 0000.0001) %MON dynstat_eta_min              =  -2.0306568748624E+03
(PID.TID 0000.0001) %MON dynstat_eta_mean             =   1.8174388489774E-14
(PID.TID 0000.0001) %MON dynstat_eta_sd               =   4.8107792787254E+02
(PID.TID 0000.0001) %MON dynstat_eta_del2             =   3.7824183269423E+01
(PID.TID 0000.0001) %MON dynstat_uvel_max             =   6.7152215954800E+00
(PID.TID 0000.0001) %MON dynstat_uvel_min             =  -6.6378156601727E+00
(PID.TID 0000.0001) %MON dynstat_uvel_mean            =  -8.0685497521198E-03
(PID.TID 0000.0001) %MON dynstat_uvel_sd              =   7.8823048881943E-01
(PID.TID 0000.0001) %MON dynstat_uvel_del2            =   1.9966208892674E-02
(PID.TID 0000.0001) %MON dynstat_vvel_max             =   8.5050171953393E+00
(PID.TID 0000.0001) %MON dynstat_vvel_min             =  -8.1351514196193E+00
(PID.TID 0000.0001) %MON dynstat_vvel_mean            =   1.5438710719560E-02
(PID.TID 0000.0001) %MON dynstat_vvel_sd              =   8.5145994293403E-01
(PID.TID 0000.0001) %MON dynstat_vvel_del2            =   2.0651875256865E-02
(PID.TID 0000.0001) %MON dynstat_wvel_max             =   1.7183294783189E-01
(PID.TID 0000.0001) %MON dynstat_wvel_min             =  -3.2137929880703E-01
(PID.TID 0000.0001) %MON dynstat_wvel_mean            =  -1.4608206005762E-03
(PID.TID 0000.0001) %MON dynstat_wvel_sd              =   1.2568324703307E-02
(PID.TID 0000.0001) %MON dynstat_wvel_del2            =   1.3316285420483E-03
(PID.TID 0000.0001) %MON dynstat_theta_max            =   4.3764977462198E+02
(PID.TID 0000.0001) %MON dynstat_theta_min            =   2.8689488908049E+02
(PID.TID 0000.0001) %MON dynstat_theta_mean           =   3.3170987971112E+02
(PID.TID 0000.0001) %MON dynstat_theta_sd             =   4.7426284223002E+01
(PID.TID 0000.0001) %MON dynstat_theta_del2           =   1.3018752398808E-02
(PID.TID 0000.0001) %MON dynstat_salt_max             =   3.2045510763105E+00
(PID.TID 0000.0001) %MON dynstat_salt_min             =  -2.2327618256352E-03
(PID.TID 0000.0001) %MON dynstat_salt_mean            =   4.1798042721305E-02
(PID.TID 0000.0001) %MON dynstat_salt_sd              =   1.7647559235166E-01
(PID.TID 0000.0001) %MON dynstat_salt_del2            =   6.0784672080300E-03
(PID.TID 0000.0001) %MON advcfl_uvel_max              =   9.5451924097519E-03
(PID.TID 0000.0001) %MON advcfl_vvel_max              =   1.1958095076161E-02
(PID.TID 0000.0001) %MON advcfl_wvel_max              =   5.2589339804787E-03
(PID.TID 0000.0001) %MON advcfl_W_hf_max              =   1.5933265271069E-02
(PID.TID 0000.0001) %MON pe_b_mean                    =  -1.0604423120987E+00
(PID.TID 0000.0001) %MON ke_max                       =   3.7025730818372E+01
(PID.TID 0000.0001) %MON ke_mean                      =   6.6933379372894E-01
(PID.TID 0000.0001) %MON ke_vol                       =   4.9523908919847E+19
(PID.TID 0000.0001) %MON vort_r_min                   =  -3.1222965161329E-05
(PID.TID 0000.0001) %MON vort_r_max                   =   1.9764752125328E-05
(PID.TID 0000.0001) %MON vort_a_mean                  =   6.7242814765306E-08
(PID.TID 0000.0001) %MON vort_a_sd                    =   8.3954627539824E-05
(PID.TID 0000.0001) %MON vort_p_mean                  =   6.8939451133222E-08
(PID.TID 0000.0001) %MON vort_p_sd                    =   9.1863115488084E-05
(PID.TID 0000.0001) %MON surfExpan_theta_mean         =   1.4165748739546E-01
(PID.TID 0000.0001) %MON surfExpan_salt_mean          =  -1.2840018938647E-04
(PID.TID 0000.0001) %MON surfExpan_Heat_mean          =  -1.1929021286549E+01
(PID.TID 0000.0001) %MON En_Budget_T2PE_mean          =   2.2333682814646E+01
(PID.TID 0000.0001) // =======================================================
(PID.TID 0000.0001) // End MONITOR dynamic field statistics
(PID.TID 0000.0001) // =======================================================
(PID.TID 0000.0001) // =======================================================
(PID.TID 0000.0001) // Begin MONITOR Land statistics
(PID.TID 0000.0001) // =======================================================
(PID.TID 0000.0001) %MON land_time_sec                =   4.9500000000000E+03
(PID.TID 0000.0001) %MON land_SnwH_ave_G              =   1.5323731180967E-01
(PID.TID 0000.0001) %MON land_SnwH_ave_S              =   5.5905359901982E-01
(PID.TID 0000.0001) %MON land_SnwH_ave_T              =   0.0000000000000E+00
(PID.TID 0000.0001) %MON land_SnwH_ave_N              =   1.2392035111056E-01
(PID.TID 0000.0001) %MON land_SnwH_max_S              =   9.9999425139927E-01
(PID.TID 0000.0001) %MON land_SnwH_max_T              =   0.0000000000000E+00
(PID.TID 0000.0001) %MON land_SnwH_max_N              =   9.9999923289053E-01
(PID.TID 0000.0001) %MON land_TotEnerg_G              =  -6.3173378220912E+21
(PID.TID 0000.0001) %MON land_TotEnerg_S              =  -4.9993953526211E+21
(PID.TID 0000.0001) %MON land_TotEnerg_T              =   7.2992311961954E+21
(PID.TID 0000.0001) %MON land_TotEnerg_N              =  -8.6171736656655E+21
(PID.TID 0000.0001) %MON land_Tsrf_ave_G              =  -7.2310258243772E+00
(PID.TID 0000.0001) %MON land_Tsrf_ave_S              =  -6.5358983966207E+00
(PID.TID 0000.0001) %MON land_Tsrf_ave_T              =   1.2761690746128E+01
(PID.TID 0000.0001) %MON land_Tsrf_ave_N              =  -2.0807069076512E+01
(PID.TID 0000.0001) %MON land_Tsrf_min_S              =  -3.4033871102466E+01
(PID.TID 0000.0001) %MON land_Tsrf_min_T              =  -5.6136283928749E+00
(PID.TID 0000.0001) %MON land_Tsrf_min_N              =  -5.1940639533701E+01
(PID.TID 0000.0001) %MON land_Tsrf_max_S              =   2.3526615046373E+01
(PID.TID 0000.0001) %MON land_Tsrf_max_T              =   2.5163656748473E+01
(PID.TID 0000.0001) %MON land_Tsrf_max_N              =   1.1057055531084E+01
(PID.TID 0000.0001) %MON land_Tgr1_ave_G              =  -5.9438432155599E+00
(PID.TID 0000.0001) %MON land_Tgr1_ave_S              =  -6.2554718344957E+00
(PID.TID 0000.0001) %MON land_Tgr1_ave_T              =   1.2761690746128E+01
(PID.TID 0000.0001) %MON land_Tgr1_ave_N              =  -1.8333758249633E+01
(PID.TID 0000.0001) %MON land_Tgr1_min_S              =  -3.9118451693888E+01
(PID.TID 0000.0001) %MON land_Tgr1_min_T              =  -5.6136283928749E+00
(PID.TID 0000.0001) %MON land_Tgr1_min_N              =  -5.4871769008743E+01
(PID.TID 0000.0001) %MON land_Tgr1_max_S              =   2.3526615046373E+01
(PID.TID 0000.0001) %MON land_Tgr1_max_T              =   2.5163656748473E+01
(PID.TID 0000.0001) %MON land_Tgr1_max_N              =   1.1057055531084E+01
(PID.TID 0000.0001) %MON land_Tgr2_ave_G              =   4.2060861360065E+00
(PID.TID 0000.0001) %MON land_Tgr2_ave_S              =  -1.8729431485477E+01
(PID.TID 0000.0001) %MON land_Tgr2_ave_T              =   2.2011897382020E+01
(PID.TID 0000.0001) %MON land_Tgr2_ave_N              =  -2.4396878603374E-01
(PID.TID 0000.0001) %MON land_Tgr2_min_S              =  -6.4757527539692E+01
(PID.TID 0000.0001) %MON land_Tgr2_min_T              =  -9.7046806419796E+00
(PID.TID 0000.0001) %MON land_Tgr2_min_N              =  -4.0196261172597E+01
(PID.TID 0000.0001) %MON land_Tgr2_max_S              =   2.3360637283420E+01
(PID.TID 0000.0001) %MON land_Tgr2_max_T              =   3.1357463812024E+01
(PID.TID 0000.0001) %MON land_Tgr2_max_N              =   2.9828480850178E+01
(PID.TID 0000.0001) %MON land_grdW_ave_G              =   4.8688607372505E-01
(PID.TID 0000.0001) %MON land_grdW_ave_S              =   3.0864422722227E-01
(PID.TID 0000.0001) %MON land_grdW_ave_T              =   5.6449961940760E-01
(PID.TID 0000.0001) %MON land_grdW_ave_N              =   4.9287859945438E-01
(PID.TID 0000.0001) %MON land_grdW_min_S              =   2.6357780527671E-02
(PID.TID 0000.0001) %MON land_grdW_min_T              =   0.0000000000000E+00
(PID.TID 0000.0001) %MON land_grdW_min_N              =   0.0000000000000E+00
(PID.TID 0000.0001) // =======================================================
(PID.TID 0000.0001) // End MONITOR Land statistics
(PID.TID 0000.0001) // =======================================================
(PID.TID 0000.0001) // =======================================================
(PID.TID 0000.0001) // Begin MONITOR Therm.SeaIce statistics
(PID.TID 0000.0001) // =======================================================
(PID.TID 0000.0001) %MON thSI_time_sec                =   4.9500000000000E+03
(PID.TID 0000.0001) %MON thSI_Ice_Area_G              =   1.4466272569010E+11
(PID.TID 0000.0001) %MON thSI_Ice_Area_S              =   0.0000000000000E+00
(PID.TID 0000.0001) %MON thSI_Ice_Area_N              =   1.4466272569010E+11
(PID.TID 0000.0001) %MON thSI_IceH_ave_G              =   1.1094066478777E-01
(PID.TID 0000.0001) %MON thSI_IceH_ave_S              =   0.0000000000000E+00
(PID.TID 0000.0001) %MON thSI_IceH_ave_N              =   1.1094066478777E-01
(PID.TID 0000.0001) %MON thSI_IceH_max_S              =   0.0000000000000E+00
(PID.TID 0000.0001) %MON thSI_IceH_max_N              =   1.3016300625695E-01
(PID.TID 0000.0001) %MON thSI_SnwH_ave_G              =   0.0000000000000E+00
(PID.TID 0000.0001) %MON thSI_SnwH_ave_S              =   0.0000000000000E+00
(PID.TID 0000.0001) %MON thSI_SnwH_ave_N              =   0.0000000000000E+00
(PID.TID 0000.0001) %MON thSI_SnwH_max_S              =   0.0000000000000E+00
(PID.TID 0000.0001) %MON thSI_SnwH_max_N              =   0.0000000000000E+00
(PID.TID 0000.0001) %MON thSI_TotEnerg_G              =  -4.9005456317340E+18
(PID.TID 0000.0001) %MON thSI_Tsrf_ave_G              =  -6.6101017278507E+00
(PID.TID 0000.0001) %MON thSI_Tsrf_ave_S              =   0.0000000000000E+00
(PID.TID 0000.0001) %MON thSI_Tsrf_ave_N              =  -6.6101017278507E+00
(PID.TID 0000.0001) %MON thSI_Tsrf_min_S              =   0.0000000000000E+00
(PID.TID 0000.0001) %MON thSI_Tsrf_min_N              =  -7.0818528766345E+00
(PID.TID 0000.0001) %MON thSI_Tsrf_max_S              =   0.0000000000000E+00
(PID.TID 0000.0001) %MON thSI_Tsrf_max_N              =  -3.4548400726943E+00
(PID.TID 0000.0001) %MON thSI_Tic1_ave_G              =  -4.5225669176637E+00
(PID.TID 0000.0001) %MON thSI_Tic1_ave_S              =   0.0000000000000E+00
(PID.TID 0000.0001) %MON thSI_Tic1_ave_N              =  -4.5225669176637E+00
(PID.TID 0000.0001) %MON thSI_Tic1_min_S              =   0.0000000000000E+00
(PID.TID 0000.0001) %MON thSI_Tic1_min_N              =  -4.6275506927587E+00
(PID.TID 0000.0001) %MON thSI_Tic1_max_S              =   0.0000000000000E+00
(PID.TID 0000.0001) %MON thSI_Tic1_max_N              =  -3.0122560246381E+00
(PID.TID 0000.0001) %MON thSI_Tic2_ave_G              =  -2.3720533999740E+00
(PID.TID 0000.0001) %MON thSI_Tic2_ave_S              =   0.0000000000000E+00
(PID.TID 0000.0001) %MON thSI_Tic2_ave_N              =  -2.3720533999740E+00
(PID.TID 0000.0001) %MON thSI_Tic2_min_S              =   0.0000000000000E+00
(PID.TID 0000.0001) %MON thSI_Tic2_min_N              =  -2.4576581747684E+00
(PID.TID 0000.0001) %MON thSI_Tic2_max_S              =   0.0000000000000E+00
(PID.TID 0000.0001) %MON thSI_Tic2_max_N              =  -2.1261282653854E+00
(PID.TID 0000.0001) // =======================================================
(PID.TID 0000.0001) // End MONITOR Therm.SeaIce statistics
(PID.TID 0000.0001) // =======================================================
 cg2d: Sum(rhs),rhsMax =   1.16415321826935E-10  2.18455115510468E+04
(PID.TID 0000.0001)                    cg2d_init_res =    1.68430761126989E+04
(PID.TID 0000.0001)                       cg2d_iters =    16
(PID.TID 0000.0001)                         cg2d_res =    9.07172722112351E-11
(PID.TID 0000.0001) // =======================================================
(PID.TID 0000.0001) // Begin MONITOR dynamic field statistics
(PID.TID 0000.0001) // =======================================================
(PID.TID 0000.0001) %MON time_tsnumber                =                    12
(PID.TID 0000.0001) %MON time_secondsf                =   5.4000000000000E+03
(PID.TID 0000.0001) %MON dynstat_eta_max              =   4.1634357062497E+03
(PID.TID 0000.0001) %MON dynstat_eta_min              =  -1.8281170721966E+03
(PID.TID 0000.0001) %MON dynstat_eta_mean             =  -7.4806184667854E-15
(PID.TID 0000.0001) %MON dynstat_eta_sd               =   5.0078011505973E+02
(PID.TID 0000.0001) %MON dynstat_eta_del2             =   3.7766433069412E+01
(PID.TID 0000.0001) %MON dynstat_uvel_max             =   6.4427395292260E+00
(PID.TID 0000.0001) %MON dynstat_uvel_min             =  -6.1497576114420E+00
(PID.TID 0000.0001) %MON dynstat_uvel_mean            =  -8.5971025673657E-03
(PID.TID 0000.0001) %MON dynstat_uvel_sd              =   7.8606576525035E-01
(PID.TID 0000.0001) %MON dynstat_uvel_del2            =   1.9862262530321E-02
(PID.TID 0000.0001) %MON dynstat_vvel_max             =   8.1719880534150E+00
(PID.TID 0000.0001) %MON dynstat_vvel_min             =  -8.0080163457707E+00
(PID.TID 0000.0001) %MON dynstat_vvel_mean            =   1.7127421490867E-02
(PID.TID 0000.0001) %MON dynstat_vvel_sd              =   8.5425673910611E-01
(PID.TID 0000.0001) %MON dynstat_vvel_del2            =   2.0380487180071E-02
(PID.TID 0000.0001) %MON dynstat_wvel_max             =   1.6311527835493E-01
(PID.TID 0000.0001) %MON dynstat_wvel_min             =  -3.0035332922304E-01
(PID.TID 0000.0001) %MON dynstat_wvel_mean            =  -1.3011876706616E-03
(PID.TID 0000.0001) %MON dynstat_wvel_sd              =   1.1672775385196E-02
(PID.TID 0000.0001) %MON dynstat_wvel_del2            =   1.3169887607219E-03
(PID.TID 0000.0001) %MON dynstat_theta_max            =   4.3770049421089E+02
(PID.TID 0000.0001) %MON dynstat_theta_min            =   2.8665296953773E+02
(PID.TID 0000.0001) %MON dynstat_theta_mean           =   3.3170845877060E+02
(PID.TID 0000.0001) %MON dynstat_theta_sd             =   4.7427986427661E+01
(PID.TID 0000.0001) %MON dynstat_theta_del2           =   1.4077170231843E-02
(PID.TID 0000.0001) %MON dynstat_salt_max             =   3.3549971999774E+00
(PID.TID 0000.0001) %MON dynstat_salt_min             =  -1.9522713359324E-03
(PID.TID 0000.0001) %MON dynstat_salt_mean            =   4.5400301727450E-02
(PID.TID 0000.0001) %MON dynstat_salt_sd              =   1.9077928772453E-01
(PID.TID 0000.0001) %MON dynstat_salt_del2            =   6.4770642717179E-03
(PID.TID 0000.0001) %MON advcfl_uvel_max              =   9.0434836961134E-03
(PID.TID 0000.0001) %MON advcfl_vvel_max              =   1.1489854501122E-02
(PID.TID 0000.0001) %MON advcfl_wvel_max              =   4.9148726600135E-03
(PID.TID 0000.0001) %MON advcfl_W_hf_max              =   1.4774417659088E-02
(PID.TID 0000.0001) %MON pe_b_mean                    =  -1.0773214232549E+00
(PID.TID 0000.0001) %MON ke_max                       =   3.6800968040024E+01
(PID.TID 0000.0001) %MON ke_mean                      =   6.7004157495856E-01
(PID.TID 0000.0001) %MON ke_vol                       =   4.9523908919847E+19
(PID.TID 0000.0001) %MON vort_r_min                   =  -3.1915050508142E-05
(PID.TID 0000.0001) %MON vort_r_max                   =   1.8910069184402E-05
(PID.TID 0000.0001) %MON vort_a_mean                  =   6.7242814765308E-08
(PID.TID 0000.0001) %MON vort_a_sd                    =   8.3957136173717E-05
(PID.TID 0000.0001) %MON vort_p_mean                  =   6.8939452288884E-08
(PID.TID 0000.0001) %MON vort_p_sd                    =   9.1877452610578E-05
(PID.TID 0000.0001) %MON surfExpan_theta_mean         =   1.2564834543153E-01
(PID.TID 0000.0001) %MON surfExpan_salt_mean          =  -1.5658093489906E-04
(PID.TID 0000.0001) %MON surfExpan_Heat_mean          =  -1.0657800145637E+01
(PID.TID 0000.0001) %MON En_Budget_T2PE_mean          =   1.9885807037981E+01
(PID.TID 0000.0001) // =======================================================
(PID.TID 0000.0001) // End MONITOR dynamic field statistics
(PID.TID 0000.0001) // =======================================================
(PID.TID 0000.0001) // =======================================================
(PID.TID 0000.0001) // Begin MONITOR Land statistics
(PID.TID 0000.0001) // =======================================================
(PID.TID 0000.0001) %MON land_time_sec                =   5.4000000000000E+03
(PID.TID 0000.0001) %MON land_SnwH_ave_G              =   1.5323630239310E-01
(PID.TID 0000.0001) %MON land_SnwH_ave_S              =   5.5905266135565E-01
(PID.TID 0000.0001) %MON land_SnwH_ave_T              =   0.0000000000000E+00
(PID.TID 0000.0001) %MON land_SnwH_ave_N              =   1.2391864435925E-01
(PID.TID 0000.0001) %MON land_SnwH_max_S              =   9.9999369384268E-01
(PID.TID 0000.0001) %MON land_SnwH_max_T              =   0.0000000000000E+00
(PID.TID 0000.0001) %MON land_SnwH_max_N              =   9.9999916831314E-01
(PID.TID 0000.0001) %MON land_TotEnerg_G              =  -6.3213081116483E+21
(PID.TID 0000.0001) %MON land_TotEnerg_S              =  -4.9998010557574E+21
(PID.TID 0000.0001) %MON land_TotEnerg_T              =   7.2964779523241E+21
(PID.TID 0000.0001) %MON land_TotEnerg_N              =  -8.6179850082150E+21
(PID.TID 0000.0001) %MON land_Tsrf_ave_G              =  -7.3803663514479E+00
(PID.TID 0000.0001) %MON land_Tsrf_ave_S              =  -6.6651592909660E+00
(PID.TID 0000.0001) %MON land_Tsrf_ave_T              =   1.2444899560882E+01
(PID.TID 0000.0001) %MON land_Tsrf_ave_N              =  -2.0851104689202E+01
(PID.TID 0000.0001) %MON land_Tsrf_min_S              =  -3.4010623849243E+01
(PID.TID 0000.0001) %MON land_Tsrf_min_T              =  -5.4369175974185E+00
(PID.TID 0000.0001) %MON land_Tsrf_min_N              =  -5.1948273311990E+01
(PID.TID 0000.0001) %MON land_Tsrf_max_S              =   2.3101645726162E+01
(PID.TID 0000.0001) %MON land_Tsrf_max_T              =   2.4584653755993E+01
(PID.TID 0000.0001) %MON land_Tsrf_max_N              =   1.0807273448830E+01
(PID.TID 0000.0001) %MON land_Tgr1_ave_G              =  -6.0959596129207E+00
(PID.TID 0000.0001) %MON land_Tgr1_ave_S              =  -6.3793213076714E+00
(PID.TID 0000.0001) %MON land_Tgr1_ave_T              =   1.2444899560882E+01
(PID.TID 0000.0001) %MON land_Tgr1_ave_N              =  -1.8385079284620E+01
(PID.TID 0000.0001) %MON land_Tgr1_min_S              =  -3.9129675906665E+01
(PID.TID 0000.0001) %MON land_Tgr1_min_T              =  -5.4369175974185E+00
(PID.TID 0000.0001) %MON land_Tgr1_min_N              =  -5.4858915330120E+01
(PID.TID 0000.0001) %MON land_Tgr1_max_S              =   2.3101645726162E+01
(PID.TID 0000.0001) %MON land_Tgr1_max_T              =   2.4584653755993E+01
(PID.TID 0000.0001) %MON land_Tgr1_max_N              =   1.0807273448830E+01
(PID.TID 0000.0001) %MON land_Tgr2_ave_G              =   4.2059285150921E+00
(PID.TID 0000.0001) %MON land_Tgr2_ave_S              =  -1.8729225216202E+01
(PID.TID 0000.0001) %MON land_Tgr2_ave_T              =   2.2011740585097E+01
(PID.TID 0000.0001) %MON land_Tgr2_ave_N              =  -2.4424500094573E-01
(PID.TID 0000.0001) %MON land_Tgr2_min_S              =  -6.4757095326376E+01
(PID.TID 0000.0001) %MON land_Tgr2_min_T              =  -9.7046267167737E+00
(PID.TID 0000.0001) %MON land_Tgr2_min_N              =  -4.0196499812173E+01
(PID.TID 0000.0001) %MON land_Tgr2_max_S              =   2.3360624235376E+01
(PID.TID 0000.0001) %MON land_Tgr2_max_T              =   3.1357089311954E+01
(PID.TID 0000.0001) %MON land_Tgr2_max_N              =   2.9828036777191E+01
(PID.TID 0000.0001) %MON land_grdW_ave_G              =   4.8687490715201E-01
(PID.TID 0000.0001) %MON land_grdW_ave_S              =   3.0863460653564E-01
(PID.TID 0000.0001) %MON land_grdW_ave_T              =   5.6447149050796E-01
(PID.TID 0000.0001) %MON land_grdW_ave_N              =   4.9287825834806E-01
(PID.TID 0000.0001) %MON land_grdW_min_S              =   2.6429350453644E-02
(PID.TID 0000.0001) %MON land_grdW_min_T              =   0.0000000000000E+00
(PID.TID 0000.0001) %MON land_grdW_min_N              =   0.0000000000000E+00
(PID.TID 0000.0001) // =======================================================
(PID.TID 0000.0001) // End MONITOR Land statistics
(PID.TID 0000.0001) // =======================================================
(PID.TID 0000.0001) // =======================================================
(PID.TID 0000.0001) // Begin MONITOR Therm.SeaIce statistics
(PID.TID 0000.0001) // =======================================================
(PID.TID 0000.0001) %MON thSI_time_sec                =   5.4000000000000E+03
(PID.TID 0000.0001) %MON thSI_Ice_Area_G              =   1.5485434348702E+11
(PID.TID 0000.0001) %MON thSI_Ice_Area_S              =   0.0000000000000E+00
(PID.TID 0000.0001) %MON thSI_Ice_Area_N              =   1.5485434348702E+11
(PID.TID 0000.0001) %MON thSI_IceH_ave_G              =   1.1302856329742E-01
(PID.TID 0000.0001) %MON thSI_IceH_ave_S              =   0.0000000000000E+00
(PID.TID 0000.0001) %MON thSI_IceH_ave_N              =   1.1302856329742E-01
(PID.TID 0000.0001) %MON thSI_IceH_max_S              =   0.0000000000000E+00
(PID.TID 0000.0001) %MON thSI_IceH_max_N              =   1.3321024982184E-01
(PID.TID 0000.0001) %MON thSI_SnwH_ave_G              =   0.0000000000000E+00
(PID.TID 0000.0001) %MON thSI_SnwH_ave_S              =   0.0000000000000E+00
(PID.TID 0000.0001) %MON thSI_SnwH_ave_N              =   0.0000000000000E+00
(PID.TID 0000.0001) %MON thSI_SnwH_max_S              =   0.0000000000000E+00
(PID.TID 0000.0001) %MON thSI_SnwH_max_N              =   0.0000000000000E+00
(PID.TID 0000.0001) %MON thSI_TotEnerg_G              =  -5.3505914960339E+18
(PID.TID 0000.0001) %MON thSI_Tsrf_ave_G              =  -6.8144327581013E+00
(PID.TID 0000.0001) %MON thSI_Tsrf_ave_S              =   0.0000000000000E+00
(PID.TID 0000.0001) %MON thSI_Tsrf_ave_N              =  -6.8144327581013E+00
(PID.TID 0000.0001) %MON thSI_Tsrf_min_S              =   0.0000000000000E+00
(PID.TID 0000.0001) %MON thSI_Tsrf_min_N              =  -7.3179184514540E+00
(PID.TID 0000.0001) %MON thSI_Tsrf_max_S              =   0.0000000000000E+00
(PID.TID 0000.0001) %MON thSI_Tsrf_max_N              =  -3.4804913690408E+00
(PID.TID 0000.0001) %MON thSI_Tic1_ave_G              =  -4.7410412553455E+00
(PID.TID 0000.0001) %MON thSI_Tic1_ave_S              =   0.0000000000000E+00
(PID.TID 0000.0001) %MON thSI_Tic1_ave_N              =  -4.7410412553455E+00
(PID.TID 0000.0001) %MON thSI_Tic1_min_S              =   0.0000000000000E+00
(PID.TID 0000.0001) %MON thSI_Tic1_min_N              =  -4.8575572209390E+00
(PID.TID 0000.0001) %MON thSI_Tic1_max_S              =   0.0000000000000E+00
(PID.TID 0000.0001) %MON thSI_Tic1_max_N              =  -3.0314255264128E+00
(PID.TID 0000.0001) %MON thSI_Tic2_ave_G              =  -2.4400103356496E+00
(PID.TID 0000.0001) %MON thSI_Tic2_ave_S              =   0.0000000000000E+00
(PID.TID 0000.0001) %MON thSI_Tic2_ave_N              =  -2.4400103356496E+00
(PID.TID 0000.0001) %MON thSI_Tic2_min_S              =   0.0000000000000E+00
(PID.TID 0000.0001) %MON thSI_Tic2_min_N              =  -2.5226905480137E+00
(PID.TID 0000.0001) %MON thSI_Tic2_max_S              =   0.0000000000000E+00
(PID.TID 0000.0001) %MON thSI_Tic2_max_N              =  -2.1324683600622E+00
(PID.TID 0000.0001) // =======================================================
(PID.TID 0000.0001) // End MONITOR Therm.SeaIce statistics
(PID.TID 0000.0001) // =======================================================
 cg2d: Sum(rhs),rhsMax =   5.42058842256665E-10  2.37762987690238E+04
(PID.TID 0000.0001)                    cg2d_init_res =    1.57252101894631E+04
(PID.TID 0000.0001)                       cg2d_iters =    16
(PID.TID 0000.0001)                         cg2d_res =    9.41855684020316E-11
(PID.TID 0000.0001) // =======================================================
(PID.TID 0000.0001) // Begin MONITOR dynamic field statistics
(PID.TID 0000.0001) // =======================================================
(PID.TID 0000.0001) %MON time_tsnumber                =                    13
(PID.TID 0000.0001) %MON time_secondsf                =   5.8500000000000E+03
(PID.TID 0000.0001) %MON dynstat_eta_max              =   4.5141308023259E+03
(PID.TID 0000.0001) %MON dynstat_eta_min              =  -1.6390901681181E+03
(PID.TID 0000.0001) %MON dynstat_eta_mean             =  -4.7193163481733E-15
(PID.TID 0000.0001) %MON dynstat_eta_sd               =   5.1805242077872E+02
(PID.TID 0000.0001) %MON dynstat_eta_del2             =   3.7770952948125E+01
(PID.TID 0000.0001) %MON dynstat_uvel_max             =   6.0837499948376E+00
(PID.TID 0000.0001) %MON dynstat_uvel_min             =  -5.6363791688322E+00
(PID.TID 0000.0001) %MON dynstat_uvel_mean            =  -9.0579319226922E-03
(PID.TID 0000.0001) %MON dynstat_uvel_sd              =   7.8436482709727E-01
(PID.TID 0000.0001) %MON dynstat_uvel_del2            =   1.9756448513205E-02
(PID.TID 0000.0001) %MON dynstat_vvel_max             =   7.6536521090782E+00
(PID.TID 0000.0001) %MON dynstat_vvel_min             =  -7.7772885346622E+00
(PID.TID 0000.0001) %MON dynstat_vvel_mean            =   1.8800871313118E-02
(PID.TID 0000.0001) %MON dynstat_vvel_sd              =   8.5064982105424E-01
(PID.TID 0000.0001) %MON dynstat_vvel_del2            =   2.0048336242979E-02
(PID.TID 0000.0001) %MON dynstat_wvel_max             =   1.6592424778035E-01
(PID.TID 0000.0001) %MON dynstat_wvel_min             =  -2.7327010078558E-01
(PID.TID 0000.0001) %MON dynstat_wvel_mean            =  -1.1416282523215E-03
(PID.TID 0000.0001) %MON dynstat_wvel_sd              =   1.0742368833061E-02
(PID.TID 0000.0001) %MON dynstat_wvel_del2            =   1.2967576179837E-03
(PID.TID 0000.0001) %MON dynstat_theta_max            =   4.3770987271459E+02
(PID.TID 0000.0001) %MON dynstat_theta_min            =   2.8641238282654E+02
(PID.TID 0000.0001) %MON dynstat_theta_mean           =   3.3170697066614E+02
(PID.TID 0000.0001) %MON dynstat_theta_sd             =   4.7429743211715E+01
(PID.TID 0000.0001) %MON dynstat_theta_del2           =   1.5124639594174E-02
(PID.TID 0000.0001) %MON dynstat_salt_max             =   3.4925793164725E+00
(PID.TID 0000.0001) %MON dynstat_salt_min             =  -2.2440270777139E-03
(PID.TID 0000.0001) %MON dynstat_salt_mean            =   4.8979203445508E-02
(PID.TID 0000.0001) %MON dynstat_salt_sd              =   2.0477819270917E-01
(PID.TID 0000.0001) %MON dynstat_salt_del2            =   6.8568943689322E-03
(PID.TID 0000.0001) %MON advcfl_uvel_max              =   8.5407386419401E-03
(PID.TID 0000.0001) %MON advcfl_vvel_max              =   1.1156543585945E-02
(PID.TID 0000.0001) %MON advcfl_wvel_max              =   4.4716925583095E-03
(PID.TID 0000.0001) %MON advcfl_W_hf_max              =   1.5158151089624E-02
(PID.TID 0000.0001) %MON pe_b_mean                    =  -1.0876479676671E+00
(PID.TID 0000.0001) %MON ke_max                       =   3.5396987612888E+01
(PID.TID 0000.0001) %MON ke_mean                      =   6.6568925357496E-01
(PID.TID 0000.0001) %MON ke_vol                       =   4.9523908919847E+19
(PID.TID 0000.0001) %MON vort_r_min                   =  -3.1256130012041E-05
(PID.TID 0000.0001) %MON vort_r_max                   =   1.7555443084705E-05
(PID.TID 0000.0001) %MON vort_a_mean                  =   6.7242814765311E-08
(PID.TID 0000.0001) %MON vort_a_sd                    =   8.3959686206916E-05
(PID.TID 0000.0001) %MON vort_p_mean                  =   6.8939453654237E-08
(PID.TID 0000.0001) %MON vort_p_sd                    =   9.1889083612553E-05
(PID.TID 0000.0001) %MON surfExpan_theta_mean         =   1.0959354350634E-01
(PID.TID 0000.0001) %MON surfExpan_salt_mean          =  -1.8768350750061E-04
(PID.TID 0000.0001) %MON surfExpan_Heat_mean          =  -9.3775018850794E+00
(PID.TID 0000.0001) %MON En_Budget_T2PE_mean          =   1.7428014861408E+01
(PID.TID 0000.0001) // =======================================================
(PID.TID 0000.0001) // End MONITOR dynamic field statistics
(PID.TID 0000.0001) // =======================================================
(PID.TID 0000.0001) // =======================================================
(PID.TID 0000.0001) // Begin MONITOR Land statistics
(PID.TID 0000.0001) // =======================================================
(PID.TID 0000.0001) %MON land_time_sec                =   5.8500000000000E+03
(PID.TID 0000.0001) %MON land_SnwH_ave_G              =   1.5323530485800E-01
(PID.TID 0000.0001) %MON land_SnwH_ave_S              =   5.5905173547064E-01
(PID.TID 0000.0001) %MON land_SnwH_ave_T              =   0.0000000000000E+00
(PID.TID 0000.0001) %MON land_SnwH_ave_N              =   1.2391695745669E-01
(PID.TID 0000.0001) %MON land_SnwH_max_S              =   9.9999313898507E-01
(PID.TID 0000.0001) %MON land_SnwH_max_T              =   0.0000000000000E+00
(PID.TID 0000.0001) %MON land_SnwH_max_N              =   9.9999910388449E-01
(PID.TID 0000.0001) %MON land_TotEnerg_G              =  -6.3249330701424E+21
(PID.TID 0000.0001) %MON land_TotEnerg_S              =  -5.0001618434351E+21
(PID.TID 0000.0001) %MON land_TotEnerg_T              =   7.2940042363398E+21
(PID.TID 0000.0001) %MON land_TotEnerg_N              =  -8.6187754630470E+21
(PID.TID 0000.0001) %MON land_Tsrf_ave_G              =  -7.5177986269126E+00
(PID.TID 0000.0001) %MON land_Tsrf_ave_S              =  -6.7942155339233E+00
(PID.TID 0000.0001) %MON land_Tsrf_ave_T              =   1.2160052962568E+01
(PID.TID 0000.0001) %MON land_Tsrf_ave_N              =  -2.0892815149158E+01
(PID.TID 0000.0001) %MON land_Tsrf_min_S              =  -3.3997364303015E+01
(PID.TID 0000.0001) %MON land_Tsrf_min_T              =  -5.2660378981469E+00
(PID.TID 0000.0001) %MON land_Tsrf_min_N              =  -5.1963545402048E+01
(PID.TID 0000.0001) %MON land_Tsrf_max_S              =   2.2721624804756E+01
(PID.TID 0000.0001) %MON land_Tsrf_max_T              =   2.4060675167375E+01
(PID.TID 0000.0001) %MON land_Tsrf_max_N              =   1.0568151233625E+01
(PID.TID 0000.0001) %MON land_Tgr1_ave_G              =  -6.2339639331817E+00
(PID.TID 0000.0001) %MON land_Tgr1_ave_S              =  -6.4901444457935E+00
(PID.TID 0000.0001) %MON land_Tgr1_ave_T              =   1.2160052962568E+01
(PID.TID 0000.0001) %MON land_Tgr1_ave_N              =  -1.8433844060023E+01
(PID.TID 0000.0001) %MON land_Tgr1_min_S              =  -3.9140823967678E+01
(PID.TID 0000.0001) %MON land_Tgr1_min_T              =  -5.2660378981469E+00
(PID.TID 0000.0001) %MON land_Tgr1_min_N              =  -5.4846097750663E+01
(PID.TID 0000.0001) %MON land_Tgr1_max_S              =   2.2721624804756E+01
(PID.TID 0000.0001) %MON land_Tgr1_max_T              =   2.4060675167375E+01
(PID.TID 0000.0001) %MON land_Tgr1_max_N              =   1.0568151233625E+01
(PID.TID 0000.0001) %MON land_Tgr2_ave_G              =   4.2057686902920E+00
(PID.TID 0000.0001) %MON land_Tgr2_ave_S              =  -1.8729020706282E+01
(PID.TID 0000.0001) %MON land_Tgr2_ave_T              =   2.2011579366499E+01
(PID.TID 0000.0001) %MON land_Tgr2_ave_N              =  -2.4452208297171E-01
(PID.TID 0000.0001) %MON land_Tgr2_min_S              =  -6.4756663329727E+01
(PID.TID 0000.0001) %MON land_Tgr2_min_T              =  -9.7045706332095E+00
(PID.TID 0000.0001) %MON land_Tgr2_min_N              =  -4.0196738206865E+01
(PID.TID 0000.0001) %MON land_Tgr2_max_S              =   2.3360604331076E+01
(PID.TID 0000.0001) %MON land_Tgr2_max_T              =   3.1356708421599E+01
(PID.TID 0000.0001) %MON land_Tgr2_max_N              =   2.9827584842332E+01
(PID.TID 0000.0001) %MON land_grdW_ave_G              =   4.8686419968527E-01
(PID.TID 0000.0001) %MON land_grdW_ave_S              =   3.0862521200914E-01
(PID.TID 0000.0001) %MON land_grdW_ave_T              =   5.6444461594282E-01
(PID.TID 0000.0001) %MON land_grdW_ave_N              =   4.9287792088435E-01
(PID.TID 0000.0001) %MON land_grdW_min_S              =   2.6503731249941E-02
(PID.TID 0000.0001) %MON land_grdW_min_T              =   0.0000000000000E+00
(PID.TID 0000.0001) %MON land_grdW_min_N              =   0.0000000000000E+00
(PID.TID 0000.0001) // =======================================================
(PID.TID 0000.0001) // End MONITOR Land statistics
(PID.TID 0000.0001) // =======================================================
(PID.TID 0000.0001) // =======================================================
(PID.TID 0000.0001) // Begin MONITOR Therm.SeaIce statistics
(PID.TID 0000.0001) // =======================================================
(PID.TID 0000.0001) %MON thSI_time_sec                =   5.8500000000000E+03
(PID.TID 0000.0001) %MON thSI_Ice_Area_G              =   1.6468223946754E+11
(PID.TID 0000.0001) %MON thSI_Ice_Area_S              =   0.0000000000000E+00
(PID.TID 0000.0001) %MON thSI_Ice_Area_N              =   1.6468223946754E+11
(PID.TID 0000.0001) %MON thSI_IceH_ave_G              =   1.1511617426064E-01
(PID.TID 0000.0001) %MON thSI_IceH_ave_S              =   0.0000000000000E+00
(PID.TID 0000.0001) %MON thSI_IceH_ave_N              =   1.1511617426064E-01
(PID.TID 0000.0001) %MON thSI_IceH_max_S              =   0.0000000000000E+00
(PID.TID 0000.0001) %MON thSI_IceH_max_N              =   1.3626149570497E-01
(PID.TID 0000.0001) %MON thSI_SnwH_ave_G              =   0.0000000000000E+00
(PID.TID 0000.0001) %MON thSI_SnwH_ave_S              =   0.0000000000000E+00
(PID.TID 0000.0001) %MON thSI_SnwH_ave_N              =   0.0000000000000E+00
(PID.TID 0000.0001) %MON thSI_SnwH_max_S              =   0.0000000000000E+00
(PID.TID 0000.0001) %MON thSI_SnwH_max_N              =   0.0000000000000E+00
(PID.TID 0000.0001) %MON thSI_TotEnerg_G              =  -5.8012216954518E+18
(PID.TID 0000.0001) %MON thSI_Tsrf_ave_G              =  -7.0035001900248E+00
(PID.TID 0000.0001) %MON thSI_Tsrf_ave_S              =   0.0000000000000E+00
(PID.TID 0000.0001) %MON thSI_Tsrf_ave_N              =  -7.0035001900248E+00
(PID.TID 0000.0001) %MON thSI_Tsrf_min_S              =   0.0000000000000E+00
(PID.TID 0000.0001) %MON thSI_Tsrf_min_N              =  -7.5371292853768E+00
(PID.TID 0000.0001) %MON thSI_Tsrf_max_S              =   0.0000000000000E+00
(PID.TID 0000.0001) %MON thSI_Tsrf_max_N              =  -3.5056909739273E+00
(PID.TID 0000.0001) %MON thSI_Tic1_ave_G              =  -4.9422376992261E+00
(PID.TID 0000.0001) %MON thSI_Tic1_ave_S              =   0.0000000000000E+00
(PID.TID 0000.0001) %MON thSI_Tic1_ave_N              =  -4.9422376992261E+00
(PID.TID 0000.0001) %MON thSI_Tic1_min_S              =   0.0000000000000E+00
(PID.TID 0000.0001) %MON thSI_Tic1_min_N              =  -5.0689970315937E+00
(PID.TID 0000.0001) %MON thSI_Tic1_max_S              =   0.0000000000000E+00
(PID.TID 0000.0001) %MON thSI_Tic1_max_N              =  -3.0502553114921E+00
(PID.TID 0000.0001) %MON thSI_Tic2_ave_G              =  -2.5034976137181E+00
(PID.TID 0000.0001) %MON thSI_Tic2_ave_S              =   0.0000000000000E+00
(PID.TID 0000.0001) %MON thSI_Tic2_ave_N              =  -2.5034976137181E+00
(PID.TID 0000.0001) %MON thSI_Tic2_min_S              =   0.0000000000000E+00
(PID.TID 0000.0001) %MON thSI_Tic2_min_N              =  -2.5932914690213E+00
(PID.TID 0000.0001) %MON thSI_Tic2_max_S              =   0.0000000000000E+00
(PID.TID 0000.0001) %MON thSI_Tic2_max_N              =  -2.1386950895533E+00
(PID.TID 0000.0001) // =======================================================
(PID.TID 0000.0001) // End MONITOR Therm.SeaIce statistics
(PID.TID 0000.0001) // =======================================================
 cg2d: Sum(rhs),rhsMax =   3.27418092638254E-11  2.50372171304327E+04
(PID.TID 0000.0001)                    cg2d_init_res =    1.46699732073178E+04
(PID.TID 0000.0001)                       cg2d_iters =    16
(PID.TID 0000.0001)                         cg2d_res =    9.10327989676285E-11
(PID.TID 0000.0001) // =======================================================
(PID.TID 0000.0001) // Begin MONITOR dynamic field statistics
(PID.TID 0000.0001) // =======================================================
(PID.TID 0000.0001) %MON time_tsnumber                =                    14
(PID.TID 0000.0001) %MON time_secondsf                =   6.3000000000000E+03
(PID.TID 0000.0001) %MON dynstat_eta_max              =   4.7470885128780E+03
(PID.TID 0000.0001) %MON dynstat_eta_min              =  -1.5195150760118E+03
(PID.TID 0000.0001) %MON dynstat_eta_mean             =  -1.8776854406562E-14
(PID.TID 0000.0001) %MON dynstat_eta_sd               =   5.3264951458641E+02
(PID.TID 0000.0001) %MON dynstat_eta_del2             =   3.7764700835721E+01
(PID.TID 0000.0001) %MON dynstat_uvel_max             =   5.7390008880467E+00
(PID.TID 0000.0001) %MON dynstat_uvel_min             =  -6.0004131179904E+00
(PID.TID 0000.0001) %MON dynstat_uvel_mean            =  -9.4130218419808E-03
(PID.TID 0000.0001) %MON dynstat_uvel_sd              =   7.8445264431559E-01
(PID.TID 0000.0001) %MON dynstat_uvel_del2            =   1.9703243075652E-02
(PID.TID 0000.0001) %MON dynstat_vvel_max             =   7.1742865477907E+00
(PID.TID 0000.0001) %MON dynstat_vvel_min             =  -7.3792497009559E+00
(PID.TID 0000.0001) %MON dynstat_vvel_mean            =   2.0438754797091E-02
(PID.TID 0000.0001) %MON dynstat_vvel_sd              =   8.4294704825122E-01
(PID.TID 0000.0001) %MON dynstat_vvel_del2            =   1.9872882708266E-02
(PID.TID 0000.0001) %MON dynstat_wvel_max             =   1.6947035606946E-01
(PID.TID 0000.0001) %MON dynstat_wvel_min             =  -2.4047844079271E-01
(PID.TID 0000.0001) %MON dynstat_wvel_mean            =  -9.8067464278261E-04
(PID.TID 0000.0001) %MON dynstat_wvel_sd              =   9.8511605477469E-03
(PID.TID 0000.0001) %MON dynstat_wvel_del2            =   1.2819943046977E-03
(PID.TID 0000.0001) %MON dynstat_theta_max            =   4.3779914235275E+02
(PID.TID 0000.0001) %MON dynstat_theta_min            =   2.8617350758056E+02
(PID.TID 0000.0001) %MON dynstat_theta_mean           =   3.3170542388198E+02
(PID.TID 0000.0001) %MON dynstat_theta_sd             =   4.7431546284468E+01
(PID.TID 0000.0001) %MON dynstat_theta_del2           =   1.6106488088117E-02
(PID.TID 0000.0001) %MON dynstat_salt_max             =   3.6186629873520E+00
(PID.TID 0000.0001) %MON dynstat_salt_min             =  -2.5530756625932E-03
(PID.TID 0000.0001) %MON dynstat_salt_mean            =   5.2536485898291E-02
(PID.TID 0000.0001) %MON dynstat_salt_sd              =   2.1852573053770E-01
(PID.TID 0000.0001) %MON dynstat_salt_del2            =   7.2285992158836E-03
(PID.TID 0000.0001) %MON advcfl_uvel_max              =   8.4241088258670E-03
(PID.TID 0000.0001) %MON advcfl_vvel_max              =   1.0585555692497E-02
(PID.TID 0000.0001) %MON advcfl_wvel_max              =   4.3578091560718E-03
(PID.TID 0000.0001) %MON advcfl_W_hf_max              =   1.5466663506119E-02
(PID.TID 0000.0001) %MON pe_b_mean                    =  -1.0946346183520E+00
(PID.TID 0000.0001) %MON ke_max                       =   3.3038257947761E+01
(PID.TID 0000.0001) %MON ke_mean                      =   6.5930625660706E-01
(PID.TID 0000.0001) %MON ke_vol                       =   4.9523908919847E+19
(PID.TID 0000.0001) %MON vort_r_min                   =  -2.9451230507963E-05
(PID.TID 0000.0001) %MON vort_r_max                   =   1.6341852139508E-05
(PID.TID 0000.0001) %MON vort_a_mean                  =   6.7242814765251E-08
(PID.TID 0000.0001) %MON vort_a_sd                    =   8.3962270854324E-05
(PID.TID 0000.0001) %MON vort_p_mean                  =   6.8939455166018E-08
(PID.TID 0000.0001) %MON vort_p_sd                    =   9.1897932898439E-05
(PID.TID 0000.0001) %MON surfExpan_theta_mean         =   9.3406757666738E-02
(PID.TID 0000.0001) %MON surfExpan_salt_mean          =  -2.2210756814637E-04
(PID.TID 0000.0001) %MON surfExpan_Heat_mean          =  -8.0775966965090E+00
(PID.TID 0000.0001) %MON En_Budget_T2PE_mean          =   1.4942365648532E+01
(PID.TID 0000.0001) // =======================================================
(PID.TID 0000.0001) // End MONITOR dynamic field statistics
(PID.TID 0000.0001) // =======================================================
(PID.TID 0000.0001) // =======================================================
(PID.TID 0000.0001) // Begin MONITOR Land statistics
(PID.TID 0000.0001) // =======================================================
(PID.TID 0000.0001) %MON land_time_sec                =   6.3000000000000E+03
(PID.TID 0000.0001) %MON land_SnwH_ave_G              =   1.5323431294225E-01
(PID.TID 0000.0001) %MON land_SnwH_ave_S              =   5.5905082348521E-01
(PID.TID 0000.0001) %MON land_SnwH_ave_T              =   0.0000000000000E+00
(PID.TID 0000.0001) %MON land_SnwH_ave_N              =   1.2391527723986E-01
(PID.TID 0000.0001) %MON land_SnwH_max_S              =   9.9999258513657E-01
(PID.TID 0000.0001) %MON land_SnwH_max_T              =   0.0000000000000E+00
(PID.TID 0000.0001) %MON land_SnwH_max_N              =   9.9999903965887E-01
(PID.TID 0000.0001) %MON land_TotEnerg_G              =  -6.3282521718299E+21
(PID.TID 0000.0001) %MON land_TotEnerg_S              =  -5.0004824774391E+21
(PID.TID 0000.0001) %MON land_TotEnerg_T              =   7.2917762532581E+21
(PID.TID 0000.0001) %MON land_TotEnerg_N              =  -8.6195459476488E+21
(PID.TID 0000.0001) %MON land_Tsrf_ave_G              =  -7.6436978538293E+00
(PID.TID 0000.0001) %MON land_Tsrf_ave_S              =  -6.9173305395813E+00
(PID.TID 0000.0001) %MON land_Tsrf_ave_T              =   1.1903542069157E+01
(PID.TID 0000.0001) %MON land_Tsrf_ave_N              =  -2.0932398930825E+01
(PID.TID 0000.0001) %MON land_Tsrf_min_S              =  -3.3973366573080E+01
(PID.TID 0000.0001) %MON land_Tsrf_min_T              =  -5.1007074393267E+00
(PID.TID 0000.0001) %MON land_Tsrf_min_N              =  -5.1983141938996E+01
(PID.TID 0000.0001) %MON land_Tsrf_max_S              =   2.2381943954979E+01
(PID.TID 0000.0001) %MON land_Tsrf_max_T              =   2.3586494194193E+01
(PID.TID 0000.0001) %MON land_Tsrf_max_N              =   1.0339623244986E+01
(PID.TID 0000.0001) %MON land_Tgr1_ave_G              =  -6.3594510491782E+00
(PID.TID 0000.0001) %MON land_Tgr1_ave_S              =  -6.5893181581153E+00
(PID.TID 0000.0001) %MON land_Tgr1_ave_T              =   1.1903542069157E+01
(PID.TID 0000.0001) %MON land_Tgr1_ave_N              =  -1.8480373258627E+01
(PID.TID 0000.0001) %MON land_Tgr1_min_S              =  -3.9151938798604E+01
(PID.TID 0000.0001) %MON land_Tgr1_min_T              =  -5.1007074393267E+00
(PID.TID 0000.0001) %MON land_Tgr1_min_N              =  -5.4833320421769E+01
(PID.TID 0000.0001) %MON land_Tgr1_max_S              =   2.2381943954979E+01
(PID.TID 0000.0001) %MON land_Tgr1_max_T              =   2.3586494194193E+01
(PID.TID 0000.0001) %MON land_Tgr1_max_N              =   1.0339623244986E+01
(PID.TID 0000.0001) %MON land_Tgr2_ave_G              =   4.2056068669694E+00
(PID.TID 0000.0001) %MON land_Tgr2_ave_S              =  -1.8728817770307E+01
(PID.TID 0000.0001) %MON land_Tgr2_ave_T              =   2.2011414181208E+01
(PID.TID 0000.0001) %MON land_Tgr2_ave_N              =  -2.4479998696389E-01
(PID.TID 0000.0001) %MON land_Tgr2_min_S              =  -6.4756231549003E+01
(PID.TID 0000.0001) %MON land_Tgr2_min_T              =  -9.7045124614528E+00
(PID.TID 0000.0001) %MON land_Tgr2_min_N              =  -4.0196976357416E+01
(PID.TID 0000.0001) %MON land_Tgr2_max_S              =   2.3360578273626E+01
(PID.TID 0000.0001) %MON land_Tgr2_max_T              =   3.1356321628607E+01
(PID.TID 0000.0001) %MON land_Tgr2_max_N              =   2.9827125332105E+01
(PID.TID 0000.0001) %MON land_grdW_ave_G              =   4.8685390024333E-01
(PID.TID 0000.0001) %MON land_grdW_ave_S              =   3.0861602253717E-01
(PID.TID 0000.0001) %MON land_grdW_ave_T              =   5.6441884865676E-01
(PID.TID 0000.0001) %MON land_grdW_ave_N              =   4.9287759034632E-01
(PID.TID 0000.0001) %MON land_grdW_min_S              =   2.6580535820146E-02
(PID.TID 0000.0001) %MON land_grdW_min_T              =   0.0000000000000E+00
(PID.TID 0000.0001) %MON land_grdW_min_N              =   0.0000000000000E+00
(PID.TID 0000.0001) // =======================================================
(PID.TID 0000.0001) // End MONITOR Land statistics
(PID.TID 0000.0001) // =======================================================
(PID.TID 0000.0001) // =======================================================
(PID.TID 0000.0001) // Begin MONITOR Therm.SeaIce statistics
(PID.TID 0000.0001) // =======================================================
(PID.TID 0000.0001) %MON thSI_time_sec                =   6.3000000000000E+03
(PID.TID 0000.0001) %MON thSI_Ice_Area_G              =   1.7416712099591E+11
(PID.TID 0000.0001) %MON thSI_Ice_Area_S              =   0.0000000000000E+00
(PID.TID 0000.0001) %MON thSI_Ice_Area_N              =   1.7416712099591E+11
(PID.TID 0000.0001) %MON thSI_IceH_ave_G              =   1.1720325131672E-01
(PID.TID 0000.0001) %MON thSI_IceH_ave_S              =   0.0000000000000E+00
(PID.TID 0000.0001) %MON thSI_IceH_ave_N              =   1.1720325131672E-01
(PID.TID 0000.0001) %MON thSI_IceH_max_S              =   0.0000000000000E+00
(PID.TID 0000.0001) %MON thSI_IceH_max_N              =   1.3931617927827E-01
(PID.TID 0000.0001) %MON thSI_SnwH_ave_G              =   0.0000000000000E+00
(PID.TID 0000.0001) %MON thSI_SnwH_ave_S              =   0.0000000000000E+00
(PID.TID 0000.0001) %MON thSI_SnwH_ave_N              =   0.0000000000000E+00
(PID.TID 0000.0001) %MON thSI_SnwH_max_S              =   0.0000000000000E+00
(PID.TID 0000.0001) %MON thSI_SnwH_max_N              =   0.0000000000000E+00
(PID.TID 0000.0001) %MON thSI_TotEnerg_G              =  -6.2523972883587E+18
(PID.TID 0000.0001) %MON thSI_Tsrf_ave_G              =  -7.1782469549836E+00
(PID.TID 0000.0001) %MON thSI_Tsrf_ave_S              =   0.0000000000000E+00
(PID.TID 0000.0001) %MON thSI_Tsrf_ave_N              =  -7.1782469549836E+00
(PID.TID 0000.0001) %MON thSI_Tsrf_min_S              =   0.0000000000000E+00
(PID.TID 0000.0001) %MON thSI_Tsrf_min_N              =  -7.7403974748070E+00
(PID.TID 0000.0001) %MON thSI_Tsrf_max_S              =   0.0000000000000E+00
(PID.TID 0000.0001) %MON thSI_Tsrf_max_N              =  -3.5303964754702E+00
(PID.TID 0000.0001) %MON thSI_Tic1_ave_G              =  -5.1272872011571E+00
(PID.TID 0000.0001) %MON thSI_Tic1_ave_S              =   0.0000000000000E+00
(PID.TID 0000.0001) %MON thSI_Tic1_ave_N              =  -5.1272872011571E+00
(PID.TID 0000.0001) %MON thSI_Tic1_min_S              =   0.0000000000000E+00
(PID.TID 0000.0001) %MON thSI_Tic1_min_N              =  -5.2629364184658E+00
(PID.TID 0000.0001) %MON thSI_Tic1_max_S              =   0.0000000000000E+00
(PID.TID 0000.0001) %MON thSI_Tic1_max_N              =  -3.0687203280761E+00
(PID.TID 0000.0001) %MON thSI_Tic2_ave_G              =  -2.5625350065187E+00
(PID.TID 0000.0001) %MON thSI_Tic2_ave_S              =   0.0000000000000E+00
(PID.TID 0000.0001) %MON thSI_Tic2_ave_N              =  -2.5625350065187E+00
(PID.TID 0000.0001) %MON thSI_Tic2_min_S              =   0.0000000000000E+00
(PID.TID 0000.0001) %MON thSI_Tic2_min_N              =  -2.6589709201421E+00
(PID.TID 0000.0001) %MON thSI_Tic2_max_S              =   0.0000000000000E+00
(PID.TID 0000.0001) %MON thSI_Tic2_max_N              =  -2.1448011078143E+00
(PID.TID 0000.0001) // =======================================================
(PID.TID 0000.0001) // End MONITOR Therm.SeaIce statistics
(PID.TID 0000.0001) // =======================================================
 cg2d: Sum(rhs),rhsMax =  -4.98403096571565E-10  2.56129116293594E+04
(PID.TID 0000.0001)                    cg2d_init_res =    1.37889272276689E+04
(PID.TID 0000.0001)                       cg2d_iters =    16
(PID.TID 0000.0001)                         cg2d_res =    8.96412707057818E-11
(PID.TID 0000.0001) // =======================================================
(PID.TID 0000.0001) // Begin MONITOR dynamic field statistics
(PID.TID 0000.0001) // =======================================================
(PID.TID 0000.0001) %MON time_tsnumber                =                    15
(PID.TID 0000.0001) %MON time_secondsf                =   6.7500000000000E+03
(PID.TID 0000.0001) %MON dynstat_eta_max              =   4.8610816303875E+03
(PID.TID 0000.0001) %MON dynstat_eta_min              =  -1.3914150851575E+03
(PID.TID 0000.0001) %MON dynstat_eta_mean             =  -7.0287690291943E-15
(PID.TID 0000.0001) %MON dynstat_eta_sd               =   5.4438136582383E+02
(PID.TID 0000.0001) %MON dynstat_eta_del2             =   3.7711677090505E+01
(PID.TID 0000.0001) %MON dynstat_uvel_max             =   5.7890589371503E+00
(PID.TID 0000.0001) %MON dynstat_uvel_min             =  -6.3553434527805E+00
(PID.TID 0000.0001) %MON dynstat_uvel_mean            =  -9.6135504612894E-03
(PID.TID 0000.0001) %MON dynstat_uvel_sd              =   7.8700941633464E-01
(PID.TID 0000.0001) %MON dynstat_uvel_del2            =   1.9774799048064E-02
(PID.TID 0000.0001) %MON dynstat_vvel_max             =   6.5909678311187E+00
(PID.TID 0000.0001) %MON dynstat_vvel_min             =  -6.8315702559121E+00
(PID.TID 0000.0001) %MON dynstat_vvel_mean            =   2.2015818495290E-02
(PID.TID 0000.0001) %MON dynstat_vvel_sd              =   8.3332688575262E-01
(PID.TID 0000.0001) %MON dynstat_vvel_del2            =   1.9835237522406E-02
(PID.TID 0000.0001) %MON dynstat_wvel_max             =   1.6656549087904E-01
(PID.TID 0000.0001) %MON dynstat_wvel_min             =  -2.0306136156546E-01
(PID.TID 0000.0001) %MON dynstat_wvel_mean            =  -8.1798980969119E-04
(PID.TID 0000.0001) %MON dynstat_wvel_sd              =   9.0960437564383E-03
(PID.TID 0000.0001) %MON dynstat_wvel_del2            =   1.2777879044965E-03
(PID.TID 0000.0001) %MON dynstat_theta_max            =   4.3793768155843E+02
(PID.TID 0000.0001) %MON dynstat_theta_min            =   2.8593655703079E+02
(PID.TID 0000.0001) %MON dynstat_theta_mean           =   3.3170382464535E+02
(PID.TID 0000.0001) %MON dynstat_theta_sd             =   4.7433388882443E+01
(PID.TID 0000.0001) %MON dynstat_theta_del2           =   1.7028194575232E-02
(PID.TID 0000.0001) %MON dynstat_salt_max             =   3.7344532755937E+00
(PID.TID 0000.0001) %MON dynstat_salt_min             =  -2.8797443890444E-03
(PID.TID 0000.0001) %MON dynstat_salt_mean            =   5.6073473241183E-02
(PID.TID 0000.0001) %MON dynstat_salt_sd              =   2.3205046662707E-01
(PID.TID 0000.0001) %MON dynstat_salt_del2            =   7.5955399734843E-03
(PID.TID 0000.0001) %MON advcfl_uvel_max              =   8.9590765126822E-03
(PID.TID 0000.0001) %MON advcfl_vvel_max              =   9.8552765642757E-03
(PID.TID 0000.0001) %MON advcfl_wvel_max              =   4.2831126226039E-03
(PID.TID 0000.0001) %MON advcfl_W_hf_max              =   1.5179685713246E-02
(PID.TID 0000.0001) %MON pe_b_mean                    =  -1.1008916726605E+00
(PID.TID 0000.0001) %MON ke_max                       =   3.0093723035927E+01
(PID.TID 0000.0001) %MON ke_mean                      =   6.5332028721136E-01
(PID.TID 0000.0001) %MON ke_vol                       =   4.9523908919847E+19
(PID.TID 0000.0001) %MON vort_r_min                   =  -2.7943527658487E-05
(PID.TID 0000.0001) %MON vort_r_max                   =   1.5914489414819E-05
(PID.TID 0000.0001) %MON vort_a_mean                  =   6.7242814765264E-08
(PID.TID 0000.0001) %MON vort_a_sd                    =   8.3964886899839E-05
(PID.TID 0000.0001) %MON vort_p_mean                  =   6.8939456745590E-08
(PID.TID 0000.0001) %MON vort_p_sd                    =   9.1903848198872E-05
(PID.TID 0000.0001) %MON surfExpan_theta_mean         =   7.7101770989204E-02
(PID.TID 0000.0001) %MON surfExpan_salt_mean          =  -2.6045089042787E-04
(PID.TID 0000.0001) %MON surfExpan_Heat_mean          =  -6.7571032509936E+00
(PID.TID 0000.0001) %MON En_Budget_T2PE_mean          =   1.2427931185625E+01
(PID.TID 0000.0001) // =======================================================
(PID.TID 0000.0001) // End MONITOR dynamic field statistics
(PID.TID 0000.0001) // =======================================================
(PID.TID 0000.0001) // =======================================================
(PID.TID 0000.0001) // Begin MONITOR Land statistics
(PID.TID 0000.0001) // =======================================================
(PID.TID 0000.0001) %MON land_time_sec                =   6.7500000000000E+03
(PID.TID 0000.0001) %MON land_SnwH_ave_G              =   1.5323332639424E-01
(PID.TID 0000.0001) %MON land_SnwH_ave_S              =   5.5904992543180E-01
(PID.TID 0000.0001) %MON land_SnwH_ave_T              =   0.0000000000000E+00
(PID.TID 0000.0001) %MON land_SnwH_ave_N              =   1.2391360319701E-01
(PID.TID 0000.0001) %MON land_SnwH_max_S              =   9.9999202951411E-01
(PID.TID 0000.0001) %MON land_SnwH_max_T              =   0.0000000000000E+00
(PID.TID 0000.0001) %MON land_SnwH_max_N              =   9.9999897564460E-01
(PID.TID 0000.0001) %MON land_TotEnerg_G              =  -6.3312972820242E+21
(PID.TID 0000.0001) %MON land_TotEnerg_S              =  -5.0007668333439E+21
(PID.TID 0000.0001) %MON land_TotEnerg_T              =   7.2897670385604E+21
(PID.TID 0000.0001) %MON land_TotEnerg_N              =  -8.6202974872407E+21
(PID.TID 0000.0001) %MON land_Tsrf_ave_G              =  -7.7576942042521E+00
(PID.TID 0000.0001) %MON land_Tsrf_ave_S              =  -7.0287910622352E+00
(PID.TID 0000.0001) %MON land_Tsrf_ave_T              =   1.1672369452606E+01
(PID.TID 0000.0001) %MON land_Tsrf_ave_N              =  -2.0968971023900E+01
(PID.TID 0000.0001) %MON land_Tsrf_min_S              =  -3.3930571825347E+01
(PID.TID 0000.0001) %MON land_Tsrf_min_T              =  -4.9406609628307E+00
(PID.TID 0000.0001) %MON land_Tsrf_min_N              =  -5.2003701352013E+01
(PID.TID 0000.0001) %MON land_Tsrf_max_S              =   2.2078503030542E+01
(PID.TID 0000.0001) %MON land_Tsrf_max_T              =   2.3157435069034E+01
(PID.TID 0000.0001) %MON land_Tsrf_max_N              =   1.0121943101408E+01
(PID.TID 0000.0001) %MON land_Tgr1_ave_G              =  -6.4733020321323E+00
(PID.TID 0000.0001) %MON land_Tgr1_ave_S              =  -6.6779775452166E+00
(PID.TID 0000.0001) %MON land_Tgr1_ave_T              =   1.1672369452606E+01
(PID.TID 0000.0001) %MON land_Tgr1_ave_N              =  -1.8524052305235E+01
(PID.TID 0000.0001) %MON land_Tgr1_min_S              =  -3.9163054423868E+01
(PID.TID 0000.0001) %MON land_Tgr1_min_T              =  -4.9406609628307E+00
(PID.TID 0000.0001) %MON land_Tgr1_min_N              =  -5.4820584214890E+01
(PID.TID 0000.0001) %MON land_Tgr1_max_S              =   2.2078503030542E+01
(PID.TID 0000.0001) %MON land_Tgr1_max_T              =   2.3157435069034E+01
(PID.TID 0000.0001) %MON land_Tgr1_max_N              =   1.0121943101408E+01
(PID.TID 0000.0001) %MON land_Tgr2_ave_G              =   4.2054432380711E+00
(PID.TID 0000.0001) %MON land_Tgr2_ave_S              =  -1.8728616240963E+01
(PID.TID 0000.0001) %MON land_Tgr2_ave_T              =   2.2011245435889E+01
(PID.TID 0000.0001) %MON land_Tgr2_ave_N              =  -2.4507865437615E-01
(PID.TID 0000.0001) %MON land_Tgr2_min_S              =  -6.4755799983159E+01
(PID.TID 0000.0001) %MON land_Tgr2_min_T              =  -9.7044522683160E+00
(PID.TID 0000.0001) %MON land_Tgr2_min_N              =  -4.0197214264830E+01
(PID.TID 0000.0001) %MON land_Tgr2_max_S              =   2.3360546691086E+01
(PID.TID 0000.0001) %MON land_Tgr2_max_T              =   3.1355929366874E+01
(PID.TID 0000.0001) %MON land_Tgr2_max_N              =   2.9826658521132E+01
(PID.TID 0000.0001) %MON land_grdW_ave_G              =   4.8684396904385E-01
(PID.TID 0000.0001) %MON land_grdW_ave_S              =   3.0860702322970E-01
(PID.TID 0000.0001) %MON land_grdW_ave_T              =   5.6439407839963E-01
(PID.TID 0000.0001) %MON land_grdW_ave_N              =   4.9287726593305E-01
(PID.TID 0000.0001) %MON land_grdW_min_S              =   2.6659419786920E-02
(PID.TID 0000.0001) %MON land_grdW_min_T              =   0.0000000000000E+00
(PID.TID 0000.0001) %MON land_grdW_min_N              =   0.0000000000000E+00
(PID.TID 0000.0001) // =======================================================
(PID.TID 0000.0001) // End MONITOR Land statistics
(PID.TID 0000.0001) // =======================================================
(PID.TID 0000.0001) // =======================================================
(PID.TID 0000.0001) // Begin MONITOR Therm.SeaIce statistics
(PID.TID 0000.0001) // =======================================================
(PID.TID 0000.0001) %MON thSI_time_sec                =   6.7500000000000E+03
(PID.TID 0000.0001) %MON thSI_Ice_Area_G              =   1.8332807941537E+11
(PID.TID 0000.0001) %MON thSI_Ice_Area_S              =   0.0000000000000E+00
(PID.TID 0000.0001) %MON thSI_Ice_Area_N              =   1.8332807941537E+11
(PID.TID 0000.0001) %MON thSI_IceH_ave_G              =   1.1928954160696E-01
(PID.TID 0000.0001) %MON thSI_IceH_ave_S              =   0.0000000000000E+00
(PID.TID 0000.0001) %MON thSI_IceH_ave_N              =   1.1928954160696E-01
(PID.TID 0000.0001) %MON thSI_IceH_max_S              =   0.0000000000000E+00
(PID.TID 0000.0001) %MON thSI_IceH_max_N              =   1.4237378660735E-01
(PID.TID 0000.0001) %MON thSI_SnwH_ave_G              =   0.0000000000000E+00
(PID.TID 0000.0001) %MON thSI_SnwH_ave_S              =   0.0000000000000E+00
(PID.TID 0000.0001) %MON thSI_SnwH_ave_N              =   0.0000000000000E+00
(PID.TID 0000.0001) %MON thSI_SnwH_max_S              =   0.0000000000000E+00
(PID.TID 0000.0001) %MON thSI_SnwH_max_N              =   0.0000000000000E+00
(PID.TID 0000.0001) %MON thSI_TotEnerg_G              =  -6.7040822886588E+18
(PID.TID 0000.0001) %MON thSI_Tsrf_ave_G              =  -7.3397092677163E+00
(PID.TID 0000.0001) %MON thSI_Tsrf_ave_S              =   0.0000000000000E+00
(PID.TID 0000.0001) %MON thSI_Tsrf_ave_N              =  -7.3397092677163E+00
(PID.TID 0000.0001) %MON thSI_Tsrf_min_S              =   0.0000000000000E+00
(PID.TID 0000.0001) %MON thSI_Tsrf_min_N              =  -7.9287772018009E+00
(PID.TID 0000.0001) %MON thSI_Tsrf_max_S              =   0.0000000000000E+00
(PID.TID 0000.0001) %MON thSI_Tsrf_max_N              =  -3.5545489537195E+00
(PID.TID 0000.0001) %MON thSI_Tic1_ave_G              =  -5.2974129581178E+00
(PID.TID 0000.0001) %MON thSI_Tic1_ave_S              =   0.0000000000000E+00
(PID.TID 0000.0001) %MON thSI_Tic1_ave_N              =  -5.2974129581178E+00
(PID.TID 0000.0001) %MON thSI_Tic1_min_S              =   0.0000000000000E+00
(PID.TID 0000.0001) %MON thSI_Tic1_min_N              =  -5.4406128422115E+00
(PID.TID 0000.0001) %MON thSI_Tic1_max_S              =   0.0000000000000E+00
(PID.TID 0000.0001) %MON thSI_Tic1_max_N              =  -3.0867797184209E+00
(PID.TID 0000.0001) %MON thSI_Tic2_ave_G              =  -2.6172522577493E+00
(PID.TID 0000.0001) %MON thSI_Tic2_ave_S              =   0.0000000000000E+00
(PID.TID 0000.0001) %MON thSI_Tic2_ave_N              =  -2.6172522577493E+00
(PID.TID 0000.0001) %MON thSI_Tic2_min_S              =   0.0000000000000E+00
(PID.TID 0000.0001) %MON thSI_Tic2_min_N              =  -2.7198222301479E+00
(PID.TID 0000.0001) %MON thSI_Tic2_max_S              =   0.0000000000000E+00
(PID.TID 0000.0001) %MON thSI_Tic2_max_N              =  -2.1507733715747E+00
(PID.TID 0000.0001) // =======================================================
(PID.TID 0000.0001) // End MONITOR Therm.SeaIce statistics
(PID.TID 0000.0001) // =======================================================
 cg2d: Sum(rhs),rhsMax =  -4.07453626394272E-10  2.57792664525330E+04
(PID.TID 0000.0001)                    cg2d_init_res =    1.31386062120046E+04
(PID.TID 0000.0001)                       cg2d_iters =    16
(PID.TID 0000.0001)                         cg2d_res =    8.68577964813347E-11
(PID.TID 0000.0001) // =======================================================
(PID.TID 0000.0001) // Begin MONITOR dynamic field statistics
(PID.TID 0000.0001) // =======================================================
(PID.TID 0000.0001) %MON time_tsnumber                =                    16
(PID.TID 0000.0001) %MON time_secondsf                =   7.2000000000000E+03
(PID.TID 0000.0001) %MON dynstat_eta_max              =   4.9100420791728E+03
(PID.TID 0000.0001) %MON dynstat_eta_min              =  -1.3020625283508E+03
(PID.TID 0000.0001) %MON dynstat_eta_mean             =   3.9561928535751E-14
(PID.TID 0000.0001) %MON dynstat_eta_sd               =   5.5316350190798E+02
(PID.TID 0000.0001) %MON dynstat_eta_del2             =   3.7582155023079E+01
(PID.TID 0000.0001) %MON dynstat_uvel_max             =   5.8732908049860E+00
(PID.TID 0000.0001) %MON dynstat_uvel_min             =  -6.5208401365050E+00
(PID.TID 0000.0001) %MON dynstat_uvel_mean            =  -9.6015205474056E-03
(PID.TID 0000.0001) %MON dynstat_uvel_sd              =   7.9205716318391E-01
(PID.TID 0000.0001) %MON dynstat_uvel_del2            =   2.0073366403241E-02
(PID.TID 0000.0001) %MON dynstat_vvel_max             =   5.9703612788569E+00
(PID.TID 0000.0001) %MON dynstat_vvel_min             =  -6.3098806126728E+00
(PID.TID 0000.0001) %MON dynstat_vvel_mean            =   2.3501028363125E-02
(PID.TID 0000.0001) %MON dynstat_vvel_sd              =   8.2358337869622E-01
(PID.TID 0000.0001) %MON dynstat_vvel_del2            =   2.0049876965121E-02
(PID.TID 0000.0001) %MON dynstat_wvel_max             =   1.6220338917214E-01
(PID.TID 0000.0001) %MON dynstat_wvel_min             =  -1.6276456473403E-01
(PID.TID 0000.0001) %MON dynstat_wvel_mean            =  -6.5416213886226E-04
(PID.TID 0000.0001) %MON dynstat_wvel_sd              =   8.5723927252834E-03
(PID.TID 0000.0001) %MON dynstat_wvel_del2            =   1.2921390788581E-03
(PID.TID 0000.0001) %MON dynstat_theta_max            =   4.3805825999235E+02
(PID.TID 0000.0001) %MON dynstat_theta_min            =   2.8570160102623E+02
(PID.TID 0000.0001) %MON dynstat_theta_mean           =   3.3170217738738E+02
(PID.TID 0000.0001) %MON dynstat_theta_sd             =   4.7435265384769E+01
(PID.TID 0000.0001) %MON dynstat_theta_del2           =   1.7909477201112E-02
(PID.TID 0000.0001) %MON dynstat_salt_max             =   3.8410127535433E+00
(PID.TID 0000.0001) %MON dynstat_salt_min             =  -3.2244365466147E-03
(PID.TID 0000.0001) %MON dynstat_salt_mean            =   5.9591341042901E-02
(PID.TID 0000.0001) %MON dynstat_salt_sd              =   2.4537039869085E-01
(PID.TID 0000.0001) %MON dynstat_salt_del2            =   7.9602226675020E-03
(PID.TID 0000.0001) %MON advcfl_uvel_max              =   9.1923758556838E-03
(PID.TID 0000.0001) %MON advcfl_vvel_max              =   9.1215404862779E-03
(PID.TID 0000.0001) %MON advcfl_wvel_max              =   4.0670589981982E-03
(PID.TID 0000.0001) %MON advcfl_W_hf_max              =   1.4389663385604E-02
(PID.TID 0000.0001) %MON pe_b_mean                    =  -1.1081541151057E+00
(PID.TID 0000.0001) %MON ke_max                       =   2.6951360622568E+01
(PID.TID 0000.0001) %MON ke_mean                      =   6.4928829336572E-01
(PID.TID 0000.0001) %MON ke_vol                       =   4.9523908919847E+19
(PID.TID 0000.0001) %MON vort_r_min                   =  -2.7109971514416E-05
(PID.TID 0000.0001) %MON vort_r_max                   =   1.4948279687217E-05
(PID.TID 0000.0001) %MON vort_a_mean                  =   6.7242814765454E-08
(PID.TID 0000.0001) %MON vort_a_sd                    =   8.3967532517762E-05
(PID.TID 0000.0001) %MON vort_p_mean                  =   6.8939458308712E-08
(PID.TID 0000.0001) %MON vort_p_sd                    =   9.1906659619957E-05
(PID.TID 0000.0001) %MON surfExpan_theta_mean         =   6.0767633322487E-02
(PID.TID 0000.0001) %MON surfExpan_salt_mean          =  -3.0343004041893E-04
(PID.TID 0000.0001) %MON surfExpan_Heat_mean          =  -5.4228779900982E+00
(PID.TID 0000.0001) %MON En_Budget_T2PE_mean          =   9.8973144161075E+00
(PID.TID 0000.0001) // =======================================================
(PID.TID 0000.0001) // End MONITOR dynamic field statistics
(PID.TID 0000.0001) // =======================================================
(PID.TID 0000.0001) // =======================================================
(PID.TID 0000.0001) // Begin MONITOR Land statistics
(PID.TID 0000.0001) // =======================================================
(PID.TID 0000.0001) %MON land_time_sec                =   7.2000000000000E+03
(PID.TID 0000.0001) %MON land_SnwH_ave_G              =   1.5323234475968E-01
(PID.TID 0000.0001) %MON land_SnwH_ave_S              =   5.5904903965969E-01
(PID.TID 0000.0001) %MON land_SnwH_ave_T              =   0.0000000000000E+00
(PID.TID 0000.0001) %MON land_SnwH_ave_N              =   1.2391193495855E-01
(PID.TID 0000.0001) %MON land_SnwH_max_S              =   9.9999147025312E-01
(PID.TID 0000.0001) %MON land_SnwH_max_T              =   0.0000000000000E+00
(PID.TID 0000.0001) %MON land_SnwH_max_N              =   9.9999891178174E-01
(PID.TID 0000.0001) %MON land_TotEnerg_G              =  -6.3340963476148E+21
(PID.TID 0000.0001) %MON land_TotEnerg_S              =  -5.0010186349304E+21
(PID.TID 0000.0001) %MON land_TotEnerg_T              =   7.2879533765423E+21
(PID.TID 0000.0001) %MON land_TotEnerg_N              =  -8.6210310892267E+21
(PID.TID 0000.0001) %MON land_Tsrf_ave_G              =  -7.8599915628543E+00
(PID.TID 0000.0001) %MON land_Tsrf_ave_S              =  -7.1241801699891E+00
(PID.TID 0000.0001) %MON land_Tsrf_ave_T              =   1.1463504186032E+01
(PID.TID 0000.0001) %MON land_Tsrf_ave_N              =  -2.1002346462150E+01
(PID.TID 0000.0001) %MON land_Tsrf_min_S              =  -3.3876564722654E+01
(PID.TID 0000.0001) %MON land_Tsrf_min_T              =  -4.7856511260316E+00
(PID.TID 0000.0001) %MON land_Tsrf_min_N              =  -5.2018002951765E+01
(PID.TID 0000.0001) %MON land_Tsrf_max_S              =   2.1807646814905E+01
(PID.TID 0000.0001) %MON land_Tsrf_max_T              =   2.2769348955621E+01
(PID.TID 0000.0001) %MON land_Tsrf_max_N              =   9.9148229515387E+00
(PID.TID 0000.0001) %MON land_Tgr1_ave_G              =  -6.5766429584843E+00
(PID.TID 0000.0001) %MON land_Tgr1_ave_S              =  -6.7571943433823E+00
(PID.TID 0000.0001) %MON land_Tgr1_ave_T              =   1.1463504186032E+01
(PID.TID 0000.0001) %MON land_Tgr1_ave_N              =  -1.8564752900798E+01
(PID.TID 0000.0001) %MON land_Tgr1_min_S              =  -3.9174191632142E+01
(PID.TID 0000.0001) %MON land_Tgr1_min_T              =  -4.7856511260316E+00
(PID.TID 0000.0001) %MON land_Tgr1_min_N              =  -5.4807882969301E+01
(PID.TID 0000.0001) %MON land_Tgr1_max_S              =   2.1807646814905E+01
(PID.TID 0000.0001) %MON land_Tgr1_max_T              =   2.2769348955621E+01
(PID.TID 0000.0001) %MON land_Tgr1_max_N              =   9.9148229515387E+00
(PID.TID 0000.0001) %MON land_Tgr2_ave_G              =   4.2052779857648E+00
(PID.TID 0000.0001) %MON land_Tgr2_ave_S              =  -1.8728415968070E+01
(PID.TID 0000.0001) %MON land_Tgr2_ave_T              =   2.2011073509290E+01
(PID.TID 0000.0001) %MON land_Tgr2_ave_N              =  -2.4535802393362E-01
(PID.TID 0000.0001) %MON land_Tgr2_min_S              =  -6.4755368630971E+01
(PID.TID 0000.0001) %MON land_Tgr2_min_T              =  -9.7043901174843E+00
(PID.TID 0000.0001) %MON land_Tgr2_min_N              =  -4.0197451930214E+01
(PID.TID 0000.0001) %MON land_Tgr2_max_S              =   2.3360510145253E+01
(PID.TID 0000.0001) %MON land_Tgr2_max_T              =   3.1355532025311E+01
(PID.TID 0000.0001) %MON land_Tgr2_max_N              =   2.9826184673346E+01
(PID.TID 0000.0001) %MON land_grdW_ave_G              =   4.8683437063090E-01
(PID.TID 0000.0001) %MON land_grdW_ave_S              =   3.0859819644156E-01
(PID.TID 0000.0001) %MON land_grdW_ave_T              =   5.6437020924264E-01
(PID.TID 0000.0001) %MON land_grdW_ave_N              =   4.9287694679288E-01
(PID.TID 0000.0001) %MON land_grdW_min_S              =   2.6740075321566E-02
(PID.TID 0000.0001) %MON land_grdW_min_T              =   0.0000000000000E+00
(PID.TID 0000.0001) %MON land_grdW_min_N              =   0.0000000000000E+00
(PID.TID 0000.0001) // =======================================================
(PID.TID 0000.0001) // End MONITOR Land statistics
(PID.TID 0000.0001) // =======================================================
(PID.TID 0000.0001) // =======================================================
(PID.TID 0000.0001) // Begin MONITOR Therm.SeaIce statistics
(PID.TID 0000.0001) // =======================================================
(PID.TID 0000.0001) %MON thSI_time_sec                =   7.2000000000000E+03
(PID.TID 0000.0001) %MON thSI_Ice_Area_G              =   1.9218275029852E+11
(PID.TID 0000.0001) %MON thSI_Ice_Area_S              =   0.0000000000000E+00
(PID.TID 0000.0001) %MON thSI_Ice_Area_N              =   1.9218275029852E+11
(PID.TID 0000.0001) %MON thSI_IceH_ave_G              =   1.2137480030381E-01
(PID.TID 0000.0001) %MON thSI_IceH_ave_S              =   0.0000000000000E+00
(PID.TID 0000.0001) %MON thSI_IceH_ave_N              =   1.2137480030381E-01
(PID.TID 0000.0001) %MON thSI_IceH_max_S              =   0.0000000000000E+00
(PID.TID 0000.0001) %MON thSI_IceH_max_N              =   1.4543385504513E-01
(PID.TID 0000.0001) %MON thSI_SnwH_ave_G              =   0.0000000000000E+00
(PID.TID 0000.0001) %MON thSI_SnwH_ave_S              =   0.0000000000000E+00
(PID.TID 0000.0001) %MON thSI_SnwH_ave_N              =   0.0000000000000E+00
(PID.TID 0000.0001) %MON thSI_SnwH_max_S              =   0.0000000000000E+00
(PID.TID 0000.0001) %MON thSI_SnwH_max_N              =   0.0000000000000E+00
(PID.TID 0000.0001) %MON thSI_TotEnerg_G              =  -7.1562434907580E+18
(PID.TID 0000.0001) %MON thSI_Tsrf_ave_G              =  -7.4889663792426E+00
(PID.TID 0000.0001) %MON thSI_Tsrf_ave_S              =   0.0000000000000E+00
(PID.TID 0000.0001) %MON thSI_Tsrf_ave_N              =  -7.4889663792426E+00
(PID.TID 0000.0001) %MON thSI_Tsrf_min_S              =   0.0000000000000E+00
(PID.TID 0000.0001) %MON thSI_Tsrf_min_N              =  -8.1034428642180E+00
(PID.TID 0000.0001) %MON thSI_Tsrf_max_S              =   0.0000000000000E+00
(PID.TID 0000.0001) %MON thSI_Tsrf_max_N              =  -3.5781043728099E+00
(PID.TID 0000.0001) %MON thSI_Tic1_ave_G              =  -5.4538515789712E+00
(PID.TID 0000.0001) %MON thSI_Tic1_ave_S              =   0.0000000000000E+00
(PID.TID 0000.0001) %MON thSI_Tic1_ave_N              =  -5.4538515789712E+00
(PID.TID 0000.0001) %MON thSI_Tic1_min_S              =   0.0000000000000E+00
(PID.TID 0000.0001) %MON thSI_Tic1_min_N              =  -5.6033310974841E+00
(PID.TID 0000.0001) %MON thSI_Tic1_max_S              =   0.0000000000000E+00
(PID.TID 0000.0001) %MON thSI_Tic1_max_N              =  -3.1044000964856E+00
(PID.TID 0000.0001) %MON thSI_Tic2_ave_G              =  -2.6678487577093E+00
(PID.TID 0000.0001) %MON thSI_Tic2_ave_S              =   0.0000000000000E+00
(PID.TID 0000.0001) %MON thSI_Tic2_ave_N              =  -2.6678487577093E+00
(PID.TID 0000.0001) %MON thSI_Tic2_min_S              =   0.0000000000000E+00
(PID.TID 0000.0001) %MON thSI_Tic2_min_N              =  -2.7760358178254E+00
(PID.TID 0000.0001) %MON thSI_Tic2_max_S              =   0.0000000000000E+00
(PID.TID 0000.0001) %MON thSI_Tic2_max_N              =  -2.1566008274907E+00
(PID.TID 0000.0001) // =======================================================
(PID.TID 0000.0001) // End MONITOR Therm.SeaIce statistics
(PID.TID 0000.0001) // =======================================================
 cg2d: Sum(rhs),rhsMax =   1.38243194669485E-10  2.57281275037134E+04
(PID.TID 0000.0001)                    cg2d_init_res =    1.27104621521044E+04
(PID.TID 0000.0001)                       cg2d_iters =    16
(PID.TID 0000.0001)                         cg2d_res =    8.51547204324615E-11
(PID.TID 0000.0001) // =======================================================
(PID.TID 0000.0001) // Begin MONITOR dynamic field statistics
(PID.TID 0000.0001) // =======================================================
(PID.TID 0000.0001) %MON time_tsnumber                =                    17
(PID.TID 0000.0001) %MON time_secondsf                =   7.6500000000000E+03
(PID.TID 0000.0001) %MON dynstat_eta_max              =   4.9064340389141E+03
(PID.TID 0000.0001) %MON dynstat_eta_min              =  -1.2206557498627E+03
(PID.TID 0000.0001) %MON dynstat_eta_mean             =   3.6147955007285E-15
(PID.TID 0000.0001) %MON dynstat_eta_sd               =   5.5902267197768E+02
(PID.TID 0000.0001) %MON dynstat_eta_del2             =   3.7442949369943E+01
(PID.TID 0000.0001) %MON dynstat_uvel_max             =   5.9259100692890E+00
(PID.TID 0000.0001) %MON dynstat_uvel_min             =  -6.5013282021439E+00
(PID.TID 0000.0001) %MON dynstat_uvel_mean            =  -9.3123177518348E-03
(PID.TID 0000.0001) %MON dynstat_uvel_sd              =   7.9906789541567E-01
(PID.TID 0000.0001) %MON dynstat_uvel_del2            =   2.0514630244971E-02
(PID.TID 0000.0001) %MON dynstat_vvel_max             =   5.3233196682809E+00
(PID.TID 0000.0001) %MON dynstat_vvel_min             =  -5.8746279001760E+00
(PID.TID 0000.0001) %MON dynstat_vvel_mean            =   2.4858400823104E-02
(PID.TID 0000.0001) %MON dynstat_vvel_sd              =   8.1501525382875E-01
(PID.TID 0000.0001) %MON dynstat_vvel_del2            =   2.0371094704063E-02
(PID.TID 0000.0001) %MON dynstat_wvel_max             =   1.7224750171093E-01
(PID.TID 0000.0001) %MON dynstat_wvel_min             =  -1.2178341491929E-01
(PID.TID 0000.0001) %MON dynstat_wvel_mean            =  -4.9058357632054E-04
(PID.TID 0000.0001) %MON dynstat_wvel_sd              =   8.3415361881931E-03
(PID.TID 0000.0001) %MON dynstat_wvel_del2            =   1.3280057170412E-03
(PID.TID 0000.0001) %MON dynstat_theta_max            =   4.3815780169703E+02
(PID.TID 0000.0001) %MON dynstat_theta_min            =   2.8546859705781E+02
(PID.TID 0000.0001) %MON dynstat_theta_mean           =   3.3170048338058E+02
(PID.TID 0000.0001) %MON dynstat_theta_sd             =   4.7437172527772E+01
(PID.TID 0000.0001) %MON dynstat_theta_del2           =   1.8755856175566E-02
(PID.TID 0000.0001) %MON dynstat_salt_max             =   3.9392888512840E+00
(PID.TID 0000.0001) %MON dynstat_salt_min             =  -3.5875388225683E-03
(PID.TID 0000.0001) %MON dynstat_salt_mean            =   6.3089518833623E-02
(PID.TID 0000.0001) %MON dynstat_salt_sd              =   2.5849686788708E-01
(PID.TID 0000.0001) %MON dynstat_salt_del2            =   8.3167270955751E-03
(PID.TID 0000.0001) %MON advcfl_uvel_max              =   9.1648700388621E-03
(PID.TID 0000.0001) %MON advcfl_vvel_max              =   8.3739742958431E-03
(PID.TID 0000.0001) %MON advcfl_wvel_max              =   3.7439767905662E-03
(PID.TID 0000.0001) %MON advcfl_W_hf_max              =   1.3223210188444E-02
(PID.TID 0000.0001) %MON pe_b_mean                    =  -1.1172606848720E+00
(PID.TID 0000.0001) %MON ke_max                       =   2.5059597665312E+01
(PID.TID 0000.0001) %MON ke_mean                      =   6.4788149107975E-01
(PID.TID 0000.0001) %MON ke_vol                       =   4.9523908919847E+19
(PID.TID 0000.0001) %MON vort_r_min                   =  -2.5800620693952E-05
(PID.TID 0000.0001) %MON vort_r_max                   =   1.3498145830460E-05
(PID.TID 0000.0001) %MON vort_a_mean                  =   6.7242814765301E-08
(PID.TID 0000.0001) %MON vort_a_sd                    =   8.3970204970342E-05
(PID.TID 0000.0001) %MON vort_p_mean                  =   6.8939459778369E-08
(PID.TID 0000.0001) %MON vort_p_sd                    =   9.1906237088882E-05
(PID.TID 0000.0001) %MON surfExpan_theta_mean         =   4.4556141721270E-02
(PID.TID 0000.0001) %MON surfExpan_salt_mean          =  -3.5177885668064E-04
(PID.TID 0000.0001) %MON surfExpan_Heat_mean          =  -4.0883138193053E+00
(PID.TID 0000.0001) %MON En_Budget_T2PE_mean          =   7.3744846826493E+00
(PID.TID 0000.0001) // =======================================================
(PID.TID 0000.0001) // End MONITOR dynamic field statistics
(PID.TID 0000.0001) // =======================================================
(PID.TID 0000.0001) // =======================================================
(PID.TID 0000.0001) // Begin MONITOR Land statistics
(PID.TID 0000.0001) // =======================================================
(PID.TID 0000.0001) %MON land_time_sec                =   7.6500000000000E+03
(PID.TID 0000.0001) %MON land_SnwH_ave_G              =   1.5323136823208E-01
(PID.TID 0000.0001) %MON land_SnwH_ave_S              =   5.5904816338949E-01
(PID.TID 0000.0001) %MON land_SnwH_ave_T              =   0.0000000000000E+00
(PID.TID 0000.0001) %MON land_SnwH_ave_N              =   1.2391027381167E-01
(PID.TID 0000.0001) %MON land_SnwH_max_S              =   9.9999090739094E-01
(PID.TID 0000.0001) %MON land_SnwH_max_T              =   0.0000000000000E+00
(PID.TID 0000.0001) %MON land_SnwH_max_N              =   9.9999884803344E-01
(PID.TID 0000.0001) %MON land_TotEnerg_G              =  -6.3366734400342E+21
(PID.TID 0000.0001) %MON land_TotEnerg_S              =  -5.0012406091568E+21
(PID.TID 0000.0001) %MON land_TotEnerg_T              =   7.2863148312155E+21
(PID.TID 0000.0001) %MON land_TotEnerg_N              =  -8.6217476620929E+21
(PID.TID 0000.0001) %MON land_Tsrf_ave_G              =  -7.9511126872903E+00
(PID.TID 0000.0001) %MON land_Tsrf_ave_S              =  -7.2007283089807E+00
(PID.TID 0000.0001) %MON land_Tsrf_ave_T              =   1.1274733951250E+01
(PID.TID 0000.0001) %MON land_Tsrf_ave_N              =  -2.1032987770191E+01
(PID.TID 0000.0001) %MON land_Tsrf_min_S              =  -3.3826180928012E+01
(PID.TID 0000.0001) %MON land_Tsrf_min_T              =  -4.6354480140712E+00
(PID.TID 0000.0001) %MON land_Tsrf_min_N              =  -5.2028784760606E+01
(PID.TID 0000.0001) %MON land_Tsrf_max_S              =   2.1566099947955E+01
(PID.TID 0000.0001) %MON land_Tsrf_max_T              =   2.2418525578920E+01
(PID.TID 0000.0001) %MON land_Tsrf_max_N              =   9.7179608945481E+00
(PID.TID 0000.0001) %MON land_Tgr1_ave_G              =  -6.6705095601229E+00
(PID.TID 0000.0001) %MON land_Tgr1_ave_S              =  -6.8277888221683E+00
(PID.TID 0000.0001) %MON land_Tgr1_ave_T              =   1.1274733951250E+01
(PID.TID 0000.0001) %MON land_Tgr1_ave_N              =  -1.8602794982145E+01
(PID.TID 0000.0001) %MON land_Tgr1_min_S              =  -3.9185357397837E+01
(PID.TID 0000.0001) %MON land_Tgr1_min_T              =  -4.6354480140712E+00
(PID.TID 0000.0001) %MON land_Tgr1_min_N              =  -5.4795213200369E+01
(PID.TID 0000.0001) %MON land_Tgr1_max_S              =   2.1566099947955E+01
(PID.TID 0000.0001) %MON land_Tgr1_max_T              =   2.2418525578920E+01
(PID.TID 0000.0001) %MON land_Tgr1_max_N              =   9.7179608945481E+00
(PID.TID 0000.0001) %MON land_Tgr2_ave_G              =   4.2051112568412E+00
(PID.TID 0000.0001) %MON land_Tgr2_ave_S              =  -1.8728216815064E+01
(PID.TID 0000.0001) %MON land_Tgr2_ave_T              =   2.2010898691864E+01
(PID.TID 0000.0001) %MON land_Tgr2_ave_N              =  -2.4563804146136E-01
(PID.TID 0000.0001) %MON land_Tgr2_min_S              =  -6.4754937491274E+01
(PID.TID 0000.0001) %MON land_Tgr2_min_T              =  -9.7043260697366E+00
(PID.TID 0000.0001) %MON land_Tgr2_min_N              =  -4.0197689354660E+01
(PID.TID 0000.0001) %MON land_Tgr2_max_S              =   2.3360469139273E+01
(PID.TID 0000.0001) %MON land_Tgr2_max_T              =   3.1355129954867E+01
(PID.TID 0000.0001) %MON land_Tgr2_max_N              =   2.9825704043330E+01
(PID.TID 0000.0001) %MON land_grdW_ave_G              =   4.8682507426649E-01
(PID.TID 0000.0001) %MON land_grdW_ave_S              =   3.0858953492379E-01
(PID.TID 0000.0001) %MON land_grdW_ave_T              =   5.6434715490373E-01
(PID.TID 0000.0001) %MON land_grdW_ave_N              =   4.9287663165884E-01
(PID.TID 0000.0001) %MON land_grdW_min_S              =   2.6822226311865E-02
(PID.TID 0000.0001) %MON land_grdW_min_T              =   0.0000000000000E+00
(PID.TID 0000.0001) %MON land_grdW_min_N              =   0.0000000000000E+00
(PID.TID 0000.0001) // =======================================================
(PID.TID 0000.0001) // End MONITOR Land statistics
(PID.TID 0000.0001) // =======================================================
(PID.TID 0000.0001) // =======================================================
(PID.TID 0000.0001) // Begin MONITOR Therm.SeaIce statistics
(PID.TID 0000.0001) // =======================================================
(PID.TID 0000.0001) %MON thSI_time_sec                =   7.6500000000000E+03
(PID.TID 0000.0001) %MON thSI_Ice_Area_G              =   1.9498372078080E+11
(PID.TID 0000.0001) %MON thSI_Ice_Area_S              =   0.0000000000000E+00
(PID.TID 0000.0001) %MON thSI_Ice_Area_N              =   1.9498372078080E+11
(PID.TID 0000.0001) %MON thSI_IceH_ave_G              =   1.2093883628083E-01
(PID.TID 0000.0001) %MON thSI_IceH_ave_S              =   0.0000000000000E+00
(PID.TID 0000.0001) %MON thSI_IceH_ave_N              =   1.2093883628083E-01
(PID.TID 0000.0001) %MON thSI_IceH_max_S              =   0.0000000000000E+00
(PID.TID 0000.0001) %MON thSI_IceH_max_N              =   1.4577711627820E-01
(PID.TID 0000.0001) %MON thSI_SnwH_ave_G              =   0.0000000000000E+00
(PID.TID 0000.0001) %MON thSI_SnwH_ave_S              =   0.0000000000000E+00
(PID.TID 0000.0001) %MON thSI_SnwH_ave_N              =   0.0000000000000E+00
(PID.TID 0000.0001) %MON thSI_SnwH_max_S              =   0.0000000000000E+00
(PID.TID 0000.0001) %MON thSI_SnwH_max_N              =   0.0000000000000E+00
(PID.TID 0000.0001) %MON thSI_TotEnerg_G              =  -7.2405244116718E+18
(PID.TID 0000.0001) %MON thSI_Tsrf_ave_G              =  -7.5983775842023E+00
(PID.TID 0000.0001) %MON thSI_Tsrf_ave_S              =   0.0000000000000E+00
(PID.TID 0000.0001) %MON thSI_Tsrf_ave_N              =  -7.5983775842023E+00
(PID.TID 0000.0001) %MON thSI_Tsrf_min_S              =   0.0000000000000E+00
(PID.TID 0000.0001) %MON thSI_Tsrf_min_N              =  -8.2656433580534E+00
(PID.TID 0000.0001) %MON thSI_Tsrf_max_S              =   0.0000000000000E+00
(PID.TID 0000.0001) %MON thSI_Tsrf_max_N              =  -3.6010791234340E+00
(PID.TID 0000.0001) %MON thSI_Tic1_ave_G              =  -5.5930290505303E+00
(PID.TID 0000.0001) %MON thSI_Tic1_ave_S              =   0.0000000000000E+00
(PID.TID 0000.0001) %MON thSI_Tic1_ave_N              =  -5.5930290505303E+00
(PID.TID 0000.0001) %MON thSI_Tic1_min_S              =   0.0000000000000E+00
(PID.TID 0000.0001) %MON thSI_Tic1_min_N              =  -5.7524018066277E+00
(PID.TID 0000.0001) %MON thSI_Tic1_max_S              =   0.0000000000000E+00
(PID.TID 0000.0001) %MON thSI_Tic1_max_N              =  -3.1215970877906E+00
(PID.TID 0000.0001) %MON thSI_Tic2_ave_G              =  -2.7138012218279E+00
(PID.TID 0000.0001) %MON thSI_Tic2_ave_S              =   0.0000000000000E+00
(PID.TID 0000.0001) %MON thSI_Tic2_ave_N              =  -2.7138012218279E+00
(PID.TID 0000.0001) %MON thSI_Tic2_min_S              =   0.0000000000000E+00
(PID.TID 0000.0001) %MON thSI_Tic2_min_N              =  -2.8279270399806E+00
(PID.TID 0000.0001) %MON thSI_Tic2_max_S              =   0.0000000000000E+00
(PID.TID 0000.0001) %MON thSI_Tic2_max_N              =  -2.1623180784984E+00
(PID.TID 0000.0001) // =======================================================
(PID.TID 0000.0001) // End MONITOR Therm.SeaIce statistics
(PID.TID 0000.0001) // =======================================================
 cg2d: Sum(rhs),rhsMax =  -1.59343471750617E-09  2.63690916755707E+04
(PID.TID 0000.0001)                    cg2d_init_res =    1.24497592776094E+04
(PID.TID 0000.0001)                       cg2d_iters =    16
(PID.TID 0000.0001)                         cg2d_res =    8.28248894889057E-11
(PID.TID 0000.0001) // =======================================================
(PID.TID 0000.0001) // Begin MONITOR dynamic field statistics
(PID.TID 0000.0001) // =======================================================
(PID.TID 0000.0001) %MON time_tsnumber                =                    18
(PID.TID 0000.0001) %MON time_secondsf                =   8.1000000000000E+03
(PID.TID 0000.0001) %MON dynstat_eta_max              =   4.8384622760705E+03
(PID.TID 0000.0001) %MON dynstat_eta_min              =  -1.1355183605994E+03
(PID.TID 0000.0001) %MON dynstat_eta_mean             =   1.6065757781016E-15
(PID.TID 0000.0001) %MON dynstat_eta_sd               =   5.6207737241038E+02
(PID.TID 0000.0001) %MON dynstat_eta_del2             =   3.7287395725042E+01
(PID.TID 0000.0001) %MON dynstat_uvel_max             =   5.9550512860053E+00
(PID.TID 0000.0001) %MON dynstat_uvel_min             =  -6.3439093396994E+00
(PID.TID 0000.0001) %MON dynstat_uvel_mean            =  -8.6781688083396E-03
(PID.TID 0000.0001) %MON dynstat_uvel_sd              =   8.0716434539276E-01
(PID.TID 0000.0001) %MON dynstat_uvel_del2            =   2.1072152405204E-02
(PID.TID 0000.0001) %MON dynstat_vvel_max             =   4.8020309913317E+00
(PID.TID 0000.0001) %MON dynstat_vvel_min             =  -5.7263816527088E+00
(PID.TID 0000.0001) %MON dynstat_vvel_mean            =   2.6049440198580E-02
(PID.TID 0000.0001) %MON dynstat_vvel_sd              =   8.0841773527428E-01
(PID.TID 0000.0001) %MON dynstat_vvel_del2            =   2.0752256413019E-02
(PID.TID 0000.0001) %MON dynstat_wvel_max             =   1.8096335406975E-01
(PID.TID 0000.0001) %MON dynstat_wvel_min             =  -1.0749444552923E-01
(PID.TID 0000.0001) %MON dynstat_wvel_mean            =  -3.2936212261020E-04
(PID.TID 0000.0001) %MON dynstat_wvel_sd              =   8.4009994067977E-03
(PID.TID 0000.0001) %MON dynstat_wvel_del2            =   1.3746385197263E-03
(PID.TID 0000.0001) %MON dynstat_theta_max            =   4.3823375772581E+02
(PID.TID 0000.0001) %MON dynstat_theta_min            =   2.8523741883045E+02
(PID.TID 0000.0001) %MON dynstat_theta_mean           =   3.3169874643121E+02
(PID.TID 0000.0001) %MON dynstat_theta_sd             =   4.7439104798012E+01
(PID.TID 0000.0001) %MON dynstat_theta_del2           =   1.9588240557220E-02
(PID.TID 0000.0001) %MON dynstat_salt_max             =   4.0301237460955E+00
(PID.TID 0000.0001) %MON dynstat_salt_min             =  -3.9696906901614E-03
(PID.TID 0000.0001) %MON dynstat_salt_mean            =   6.6570670407325E-02
(PID.TID 0000.0001) %MON dynstat_salt_sd              =   2.7145686870471E-01
(PID.TID 0000.0001) %MON dynstat_salt_del2            =   8.6616127790311E-03
(PID.TID 0000.0001) %MON advcfl_uvel_max              =   9.0101630919217E-03
(PID.TID 0000.0001) %MON advcfl_vvel_max              =   8.1626570368031E-03
(PID.TID 0000.0001) %MON advcfl_wvel_max              =   3.3514578675820E-03
(PID.TID 0000.0001) %MON advcfl_W_hf_max              =   1.2595470611243E-02
(PID.TID 0000.0001) %MON pe_b_mean                    =  -1.1283064808910E+00
(PID.TID 0000.0001) %MON ke_max                       =   2.3842925815315E+01
(PID.TID 0000.0001) %MON ke_mean                      =   6.4904361138484E-01
(PID.TID 0000.0001) %MON ke_vol                       =   4.9523908919847E+19
(PID.TID 0000.0001) %MON vort_r_min                   =  -2.4159347145974E-05
(PID.TID 0000.0001) %MON vort_r_max                   =   1.1627676847716E-05
(PID.TID 0000.0001) %MON vort_a_mean                  =   6.7242814765234E-08
(PID.TID 0000.0001) %MON vort_a_sd                    =   8.3972899039290E-05
(PID.TID 0000.0001) %MON vort_p_mean                  =   6.8939461099652E-08
(PID.TID 0000.0001) %MON vort_p_sd                    =   9.1902535653114E-05
(PID.TID 0000.0001) %MON surfExpan_theta_mean         =   2.8675610319395E-02
(PID.TID 0000.0001) %MON surfExpan_salt_mean          =  -4.0617208190991E-04
(PID.TID 0000.0001) %MON surfExpan_Heat_mean          =  -2.7723464136295E+00
(PID.TID 0000.0001) %MON En_Budget_T2PE_mean          =   4.8933530758306E+00
(PID.TID 0000.0001) // =======================================================
(PID.TID 0000.0001) // End MONITOR dynamic field statistics
(PID.TID 0000.0001) // =======================================================
(PID.TID 0000.0001) // =======================================================
(PID.TID 0000.0001) // Begin MONITOR Land statistics
(PID.TID 0000.0001) // =======================================================
(PID.TID 0000.0001) %MON land_time_sec                =   8.1000000000000E+03
(PID.TID 0000.0001) %MON land_SnwH_ave_G              =   1.5323039647334E-01
(PID.TID 0000.0001) %MON land_SnwH_ave_S              =   5.5904729332990E-01
(PID.TID 0000.0001) %MON land_SnwH_ave_T              =   0.0000000000000E+00
(PID.TID 0000.0001) %MON land_SnwH_ave_N              =   1.2390862015043E-01
(PID.TID 0000.0001) %MON land_SnwH_max_S              =   9.9999034247034E-01
(PID.TID 0000.0001) %MON land_SnwH_max_T              =   0.0000000000000E+00
(PID.TID 0000.0001) %MON land_SnwH_max_N              =   9.9999878437714E-01
(PID.TID 0000.0001) %MON land_TotEnerg_G              =  -6.3390520103366E+21
(PID.TID 0000.0001) %MON land_TotEnerg_S              =  -5.0014354476895E+21
(PID.TID 0000.0001) %MON land_TotEnerg_T              =   7.2848314347542E+21
(PID.TID 0000.0001) %MON land_TotEnerg_N              =  -8.6224479974013E+21
(PID.TID 0000.0001) %MON land_Tsrf_ave_G              =  -8.0319062688538E+00
(PID.TID 0000.0001) %MON land_Tsrf_ave_S              =  -7.2578861390948E+00
(PID.TID 0000.0001) %MON land_Tsrf_ave_T              =   1.1104224962509E+01
(PID.TID 0000.0001) %MON land_Tsrf_ave_N              =  -2.1061539335082E+01
(PID.TID 0000.0001) %MON land_Tsrf_min_S              =  -3.3790627127252E+01
(PID.TID 0000.0001) %MON land_Tsrf_min_T              =  -4.4898430365253E+00
(PID.TID 0000.0001) %MON land_Tsrf_min_N              =  -5.2037399790073E+01
(PID.TID 0000.0001) %MON land_Tsrf_max_S              =   2.1350926586501E+01
(PID.TID 0000.0001) %MON land_Tsrf_max_T              =   2.2101096800713E+01
(PID.TID 0000.0001) %MON land_Tsrf_max_N              =   9.5310946992667E+00
(PID.TID 0000.0001) %MON land_Tgr1_ave_G              =  -6.7558701210127E+00
(PID.TID 0000.0001) %MON land_Tgr1_ave_S              =  -6.8905522104077E+00
(PID.TID 0000.0001) %MON land_Tgr1_ave_T              =   1.1104224962509E+01
(PID.TID 0000.0001) %MON land_Tgr1_ave_N              =  -1.8638626312210E+01
(PID.TID 0000.0001) %MON land_Tgr1_min_S              =  -3.9196546584180E+01
(PID.TID 0000.0001) %MON land_Tgr1_min_T              =  -4.4898430365253E+00
(PID.TID 0000.0001) %MON land_Tgr1_min_N              =  -5.4782572746593E+01
(PID.TID 0000.0001) %MON land_Tgr1_max_S              =   2.1350926586501E+01
(PID.TID 0000.0001) %MON land_Tgr1_max_T              =   2.2101096800713E+01
(PID.TID 0000.0001) %MON land_Tgr1_max_N              =   9.5310946992667E+00
(PID.TID 0000.0001) %MON land_Tgr2_ave_G              =   4.2049431933255E+00
(PID.TID 0000.0001) %MON land_Tgr2_ave_S              =  -1.8728018658259E+01
(PID.TID 0000.0001) %MON land_Tgr2_ave_T              =   2.2010721279443E+01
(PID.TID 0000.0001) %MON land_Tgr2_ave_N              =  -2.4591866169344E-01
(PID.TID 0000.0001) %MON land_Tgr2_min_S              =  -6.4754506563148E+01
(PID.TID 0000.0001) %MON land_Tgr2_min_T              =  -9.7042601832138E+00
(PID.TID 0000.0001) %MON land_Tgr2_min_N              =  -4.0197926539125E+01
(PID.TID 0000.0001) %MON land_Tgr2_max_S              =   2.3360424124103E+01
(PID.TID 0000.0001) %MON land_Tgr2_max_T              =   3.1354723474234E+01
(PID.TID 0000.0001) %MON land_Tgr2_max_N              =   2.9825216876792E+01
(PID.TID 0000.0001) %MON land_grdW_ave_G              =   4.8681604748387E-01
(PID.TID 0000.0001) %MON land_grdW_ave_S              =   3.0858102825403E-01
(PID.TID 0000.0001) %MON land_grdW_ave_T              =   5.6432482462095E-01
(PID.TID 0000.0001) %MON land_grdW_ave_N              =   4.9287631984094E-01
(PID.TID 0000.0001) %MON land_grdW_min_S              =   2.6905626188777E-02
(PID.TID 0000.0001) %MON land_grdW_min_T              =   0.0000000000000E+00
(PID.TID 0000.0001) %MON land_grdW_min_N              =   0.0000000000000E+00
(PID.TID 0000.0001) // =======================================================
(PID.TID 0000.0001) // End MONITOR Land statistics
(PID.TID 0000.0001) // =======================================================
(PID.TID 0000.0001) // =======================================================
(PID.TID 0000.0001) // Begin MONITOR Therm.SeaIce statistics
(PID.TID 0000.0001) // =======================================================
(PID.TID 0000.0001) %MON thSI_time_sec                =   8.1000000000000E+03
(PID.TID 0000.0001) %MON thSI_Ice_Area_G              =   1.9772162404880E+11
(PID.TID 0000.0001) %MON thSI_Ice_Area_S              =   0.0000000000000E+00
(PID.TID 0000.0001) %MON thSI_Ice_Area_N              =   1.9772162404880E+11
(PID.TID 0000.0001) %MON thSI_IceH_ave_G              =   1.2056077232233E-01
(PID.TID 0000.0001) %MON thSI_IceH_ave_S              =   0.0000000000000E+00
(PID.TID 0000.0001) %MON thSI_IceH_ave_N              =   1.2056077232233E-01
(PID.TID 0000.0001) %MON thSI_IceH_max_S              =   0.0000000000000E+00
(PID.TID 0000.0001) %MON thSI_IceH_max_N              =   1.4612631388389E-01
(PID.TID 0000.0001) %MON thSI_SnwH_ave_G              =   0.0000000000000E+00
(PID.TID 0000.0001) %MON thSI_SnwH_ave_S              =   0.0000000000000E+00
(PID.TID 0000.0001) %MON thSI_SnwH_ave_N              =   0.0000000000000E+00
(PID.TID 0000.0001) %MON thSI_SnwH_max_S              =   0.0000000000000E+00
(PID.TID 0000.0001) %MON thSI_SnwH_max_N              =   0.0000000000000E+00
(PID.TID 0000.0001) %MON thSI_TotEnerg_G              =  -7.3248592208809E+18
(PID.TID 0000.0001) %MON thSI_Tsrf_ave_G              =  -7.6834676648893E+00
(PID.TID 0000.0001) %MON thSI_Tsrf_ave_S              =   0.0000000000000E+00
(PID.TID 0000.0001) %MON thSI_Tsrf_ave_N              =  -7.6834676648893E+00
(PID.TID 0000.0001) %MON thSI_Tsrf_min_S              =   0.0000000000000E+00
(PID.TID 0000.0001) %MON thSI_Tsrf_min_N              =  -8.3957558441267E+00
(PID.TID 0000.0001) %MON thSI_Tsrf_max_S              =   0.0000000000000E+00
(PID.TID 0000.0001) %MON thSI_Tsrf_max_N              =  -3.6331560174287E+00
(PID.TID 0000.0001) %MON thSI_Tic1_ave_G              =  -5.7375973429695E+00
(PID.TID 0000.0001) %MON thSI_Tic1_ave_S              =   0.0000000000000E+00
(PID.TID 0000.0001) %MON thSI_Tic1_ave_N              =  -5.7375973429695E+00
(PID.TID 0000.0001) %MON thSI_Tic1_min_S              =   0.0000000000000E+00
(PID.TID 0000.0001) %MON thSI_Tic1_min_N              =  -5.9017444975616E+00
(PID.TID 0000.0001) %MON thSI_Tic1_max_S              =   0.0000000000000E+00
(PID.TID 0000.0001) %MON thSI_Tic1_max_N              =  -3.1451591827115E+00
(PID.TID 0000.0001) %MON thSI_Tic2_ave_G              =  -2.7817644996605E+00
(PID.TID 0000.0001) %MON thSI_Tic2_ave_S              =   0.0000000000000E+00
(PID.TID 0000.0001) %MON thSI_Tic2_ave_N              =  -2.7817644996605E+00
(PID.TID 0000.0001) %MON thSI_Tic2_min_S              =   0.0000000000000E+00
(PID.TID 0000.0001) %MON thSI_Tic2_min_N              =  -2.8956665441827E+00
(PID.TID 0000.0001) %MON thSI_Tic2_max_S              =   0.0000000000000E+00
(PID.TID 0000.0001) %MON thSI_Tic2_max_N              =  -2.1694847853184E+00
(PID.TID 0000.0001) // =======================================================
(PID.TID 0000.0001) // End MONITOR Therm.SeaIce statistics
(PID.TID 0000.0001) // =======================================================
 cg2d: Sum(rhs),rhsMax =   1.45519152283669E-10  2.67475501315094E+04
(PID.TID 0000.0001)                    cg2d_init_res =    1.22877625251336E+04
(PID.TID 0000.0001)                       cg2d_iters =    16
(PID.TID 0000.0001)                         cg2d_res =    8.09109569524009E-11
(PID.TID 0000.0001) // =======================================================
(PID.TID 0000.0001) // Begin MONITOR dynamic field statistics
(PID.TID 0000.0001) // =======================================================
(PID.TID 0000.0001) %MON time_tsnumber                =                    19
(PID.TID 0000.0001) %MON time_secondsf                =   8.5500000000000E+03
(PID.TID 0000.0001) %MON dynstat_eta_max              =   4.7626083040373E+03
(PID.TID 0000.0001) %MON dynstat_eta_min              =  -1.0794203900510E+03
(PID.TID 0000.0001) %MON dynstat_eta_mean             =   2.4098636671523E-14
(PID.TID 0000.0001) %MON dynstat_eta_sd               =   5.6251063391931E+02
(PID.TID 0000.0001) %MON dynstat_eta_del2             =   3.7147157807009E+01
(PID.TID 0000.0001) %MON dynstat_uvel_max             =   5.9660946044180E+00
(PID.TID 0000.0001) %MON dynstat_uvel_min             =  -6.3970405558518E+00
(PID.TID 0000.0001) %MON dynstat_uvel_mean            =  -7.6321952499666E-03
(PID.TID 0000.0001) %MON dynstat_uvel_sd              =   8.1535312254775E-01
(PID.TID 0000.0001) %MON dynstat_uvel_del2            =   2.1594968846906E-02
(PID.TID 0000.0001) %MON dynstat_vvel_max             =   4.4159251212247E+00
(PID.TID 0000.0001) %MON dynstat_vvel_min             =  -5.5547341395874E+00
(PID.TID 0000.0001) %MON dynstat_vvel_mean            =   2.7036696673437E-02
(PID.TID 0000.0001) %MON dynstat_vvel_sd              =   8.0413456719986E-01
(PID.TID 0000.0001) %MON dynstat_vvel_del2            =   2.1140785516501E-02
(PID.TID 0000.0001) %MON dynstat_wvel_max             =   2.2462377418606E-01
(PID.TID 0000.0001) %MON dynstat_wvel_min             =  -9.8226144186441E-02
(PID.TID 0000.0001) %MON dynstat_wvel_mean            =  -1.7320068671946E-04
(PID.TID 0000.0001) %MON dynstat_wvel_sd              =   8.6834564180751E-03
(PID.TID 0000.0001) %MON dynstat_wvel_del2            =   1.4342677523706E-03
(PID.TID 0000.0001) %MON dynstat_theta_max            =   4.3828411073978E+02
(PID.TID 0000.0001) %MON dynstat_theta_min            =   2.8500793109047E+02
(PID.TID 0000.0001) %MON dynstat_theta_mean           =   3.3169696768420E+02
(PID.TID 0000.0001) %MON dynstat_theta_sd             =   4.7441058664670E+01
(PID.TID 0000.0001) %MON dynstat_theta_del2           =   2.0415644167083E-02
(PID.TID 0000.0001) %MON dynstat_salt_max             =   4.1142677828374E+00
(PID.TID 0000.0001) %MON dynstat_salt_min             =  -4.3694351337961E-03
(PID.TID 0000.0001) %MON dynstat_salt_mean            =   7.0035730618093E-02
(PID.TID 0000.0001) %MON dynstat_salt_sd              =   2.8426851476281E-01
(PID.TID 0000.0001) %MON dynstat_salt_del2            =   9.0015857163338E-03
(PID.TID 0000.0001) %MON advcfl_uvel_max              =   9.1240927279906E-03
(PID.TID 0000.0001) %MON advcfl_vvel_max              =   7.9128608358492E-03
(PID.TID 0000.0001) %MON advcfl_wvel_max              =   3.6756617594082E-03
(PID.TID 0000.0001) %MON advcfl_W_hf_max              =   1.4300810675077E-02
(PID.TID 0000.0001) %MON pe_b_mean                    =  -1.1408771426988E+00
(PID.TID 0000.0001) %MON ke_max                       =   2.2422632556933E+01
(PID.TID 0000.0001) %MON ke_mean                      =   6.5222975822356E-01
(PID.TID 0000.0001) %MON ke_vol                       =   4.9523908919847E+19
(PID.TID 0000.0001) %MON vort_r_min                   =  -2.3127660357328E-05
(PID.TID 0000.0001) %MON vort_r_max                   =   9.4018868952393E-06
(PID.TID 0000.0001) %MON vort_a_mean                  =   6.7242814765360E-08
(PID.TID 0000.0001) %MON vort_a_sd                    =   8.3975606591354E-05
(PID.TID 0000.0001) %MON vort_p_mean                  =   6.8939462247884E-08
(PID.TID 0000.0001) %MON vort_p_sd                    =   9.1895624329593E-05
(PID.TID 0000.0001) %MON surfExpan_theta_mean         =   1.3382934778266E-02
(PID.TID 0000.0001) %MON surfExpan_salt_mean          =  -4.6712380712649E-04
(PID.TID 0000.0001) %MON surfExpan_Heat_mean          =  -1.4983304727329E+00
(PID.TID 0000.0001) %MON En_Budget_T2PE_mean          =   2.4960501831975E+00
(PID.TID 0000.0001) // =======================================================
(PID.TID 0000.0001) // End MONITOR dynamic field statistics
(PID.TID 0000.0001) // =======================================================
(PID.TID 0000.0001) // =======================================================
(PID.TID 0000.0001) // Begin MONITOR Land statistics
(PID.TID 0000.0001) // =======================================================
(PID.TID 0000.0001) %MON land_time_sec                =   8.5500000000000E+03
(PID.TID 0000.0001) %MON land_SnwH_ave_G              =   1.5322942780158E-01
(PID.TID 0000.0001) %MON land_SnwH_ave_S              =   5.5904642622543E-01
(PID.TID 0000.0001) %MON land_SnwH_ave_T              =   0.0000000000000E+00
(PID.TID 0000.0001) %MON land_SnwH_ave_N              =   1.2390697168035E-01
(PID.TID 0000.0001) %MON land_SnwH_max_S              =   9.9998977742049E-01
(PID.TID 0000.0001) %MON land_SnwH_max_T              =   0.0000000000000E+00
(PID.TID 0000.0001) %MON land_SnwH_max_N              =   9.9999872079945E-01
(PID.TID 0000.0001) %MON land_TotEnerg_G              =  -6.3412526362027E+21
(PID.TID 0000.0001) %MON land_TotEnerg_S              =  -5.0016059659255E+21
(PID.TID 0000.0001) %MON land_TotEnerg_T              =   7.2834861016413E+21
(PID.TID 0000.0001) %MON land_TotEnerg_N              =  -8.6231327719185E+21
(PID.TID 0000.0001) %MON land_Tsrf_ave_G              =  -8.1036598463719E+00
(PID.TID 0000.0001) %MON land_Tsrf_ave_S              =  -7.2971302249574E+00
(PID.TID 0000.0001) %MON land_Tsrf_ave_T              =   1.0949902621945E+01
(PID.TID 0000.0001) %MON land_Tsrf_ave_N              =  -2.1088701801953E+01
(PID.TID 0000.0001) %MON land_Tsrf_min_S              =  -3.3772288694971E+01
(PID.TID 0000.0001) %MON land_Tsrf_min_T              =  -4.3486489513779E+00
(PID.TID 0000.0001) %MON land_Tsrf_min_N              =  -5.2044760807475E+01
(PID.TID 0000.0001) %MON land_Tsrf_max_S              =   2.1159488826410E+01
(PID.TID 0000.0001) %MON land_Tsrf_max_T              =   2.1814491331843E+01
(PID.TID 0000.0001) %MON land_Tsrf_max_N              =   9.3539475337946E+00
(PID.TID 0000.0001) %MON land_Tgr1_ave_G              =  -6.8338160851032E+00
(PID.TID 0000.0001) %MON land_Tgr1_ave_S              =  -6.9462987580487E+00
(PID.TID 0000.0001) %MON land_Tgr1_ave_T              =   1.0949902621945E+01
(PID.TID 0000.0001) %MON land_Tgr1_ave_N              =  -1.8672771733715E+01
(PID.TID 0000.0001) %MON land_Tgr1_min_S              =  -3.9207745282082E+01
(PID.TID 0000.0001) %MON land_Tgr1_min_T              =  -4.3486489513779E+00
(PID.TID 0000.0001) %MON land_Tgr1_min_N              =  -5.4769960338770E+01
(PID.TID 0000.0001) %MON land_Tgr1_max_S              =   2.1159488826410E+01
(PID.TID 0000.0001) %MON land_Tgr1_max_T              =   2.1814491331843E+01
(PID.TID 0000.0001) %MON land_Tgr1_max_N              =   9.3539475337946E+00
(PID.TID 0000.0001) %MON land_Tgr2_ave_G              =   4.2047739162913E+00
(PID.TID 0000.0001) %MON land_Tgr2_ave_S              =  -1.8727821386666E+01
(PID.TID 0000.0001) %MON land_Tgr2_ave_T              =   2.2010541529287E+01
(PID.TID 0000.0001) %MON land_Tgr2_ave_N              =  -2.4619985122652E-01
(PID.TID 0000.0001) %MON land_Tgr2_min_S              =  -6.4754075845951E+01
(PID.TID 0000.0001) %MON land_Tgr2_min_T              =  -9.7041925136899E+00
(PID.TID 0000.0001) %MON land_Tgr2_min_N              =  -4.0198163484468E+01
(PID.TID 0000.0001) %MON land_Tgr2_max_S              =   2.3360375504212E+01
(PID.TID 0000.0001) %MON land_Tgr2_max_T              =   3.1354312874469E+01
(PID.TID 0000.0001) %MON land_Tgr2_max_N              =   2.9824723411133E+01
(PID.TID 0000.0001) %MON land_grdW_ave_G              =   4.8680726200990E-01
(PID.TID 0000.0001) %MON land_grdW_ave_S              =   3.0857266213332E-01
(PID.TID 0000.0001) %MON land_grdW_ave_T              =   5.6430314052180E-01
(PID.TID 0000.0001) %MON land_grdW_ave_N              =   4.9287601165389E-01
(PID.TID 0000.0001) %MON land_grdW_min_S              =   2.6990051757175E-02
(PID.TID 0000.0001) %MON land_grdW_min_T              =   0.0000000000000E+00
(PID.TID 0000.0001) %MON land_grdW_min_N              =   0.0000000000000E+00
(PID.TID 0000.0001) // =======================================================
(PID.TID 0000.0001) // End MONITOR Land statistics
(PID.TID 0000.0001) // =======================================================
(PID.TID 0000.0001) // =======================================================
(PID.TID 0000.0001) // Begin MONITOR Therm.SeaIce statistics
(PID.TID 0000.0001) // =======================================================
(PID.TID 0000.0001) %MON thSI_time_sec                =   8.5500000000000E+03
(PID.TID 0000.0001) %MON thSI_Ice_Area_G              =   2.0039973387617E+11
(PID.TID 0000.0001) %MON thSI_Ice_Area_S              =   0.0000000000000E+00
(PID.TID 0000.0001) %MON thSI_Ice_Area_N              =   2.0039973387617E+11
(PID.TID 0000.0001) %MON thSI_IceH_ave_G              =   1.2023544419742E-01
(PID.TID 0000.0001) %MON thSI_IceH_ave_S              =   0.0000000000000E+00
(PID.TID 0000.0001) %MON thSI_IceH_ave_N              =   1.2023544419742E-01
(PID.TID 0000.0001) %MON thSI_IceH_max_S              =   0.0000000000000E+00
(PID.TID 0000.0001) %MON thSI_IceH_max_N              =   1.4648094219629E-01
(PID.TID 0000.0001) %MON thSI_SnwH_ave_G              =   0.0000000000000E+00
(PID.TID 0000.0001) %MON thSI_SnwH_ave_S              =   0.0000000000000E+00
(PID.TID 0000.0001) %MON thSI_SnwH_ave_N              =   0.0000000000000E+00
(PID.TID 0000.0001) %MON thSI_SnwH_max_S              =   0.0000000000000E+00
(PID.TID 0000.0001) %MON thSI_SnwH_max_N              =   0.0000000000000E+00
(PID.TID 0000.0001) %MON thSI_TotEnerg_G              =  -7.4092449502521E+18
(PID.TID 0000.0001) %MON thSI_Tsrf_ave_G              =  -7.7614245547961E+00
(PID.TID 0000.0001) %MON thSI_Tsrf_ave_S              =   0.0000000000000E+00
(PID.TID 0000.0001) %MON thSI_Tsrf_ave_N              =  -7.7614245547961E+00
(PID.TID 0000.0001) %MON thSI_Tsrf_min_S              =   0.0000000000000E+00
(PID.TID 0000.0001) %MON thSI_Tsrf_min_N              =  -8.5175898110734E+00
(PID.TID 0000.0001) %MON thSI_Tsrf_max_S              =   0.0000000000000E+00
(PID.TID 0000.0001) %MON thSI_Tsrf_max_N              =  -3.6652503298075E+00
(PID.TID 0000.0001) %MON thSI_Tic1_ave_G              =  -5.8719738758643E+00
(PID.TID 0000.0001) %MON thSI_Tic1_ave_S              =   0.0000000000000E+00
(PID.TID 0000.0001) %MON thSI_Tic1_ave_N              =  -5.8719738758643E+00
(PID.TID 0000.0001) %MON thSI_Tic1_min_S              =   0.0000000000000E+00
(PID.TID 0000.0001) %MON thSI_Tic1_min_N              =  -6.0398159894133E+00
(PID.TID 0000.0001) %MON thSI_Tic1_max_S              =   0.0000000000000E+00
(PID.TID 0000.0001) %MON thSI_Tic1_max_N              =  -3.1689416128636E+00
(PID.TID 0000.0001) %MON thSI_Tic2_ave_G              =  -2.8435517105860E+00
(PID.TID 0000.0001) %MON thSI_Tic2_ave_S              =   0.0000000000000E+00
(PID.TID 0000.0001) %MON thSI_Tic2_ave_N              =  -2.8435517105860E+00
(PID.TID 0000.0001) %MON thSI_Tic2_min_S              =   0.0000000000000E+00
(PID.TID 0000.0001) %MON thSI_Tic2_min_N              =  -2.9569332272197E+00
(PID.TID 0000.0001) %MON thSI_Tic2_max_S              =   0.0000000000000E+00
(PID.TID 0000.0001) %MON thSI_Tic2_max_N              =  -2.1772565098709E+00
(PID.TID 0000.0001) // =======================================================
(PID.TID 0000.0001) // End MONITOR Therm.SeaIce statistics
(PID.TID 0000.0001) // =======================================================
 cg2d: Sum(rhs),rhsMax =  -4.36557456851006E-10  2.67622678961190E+04
(PID.TID 0000.0001)                    cg2d_init_res =    1.21678158812963E+04
(PID.TID 0000.0001)                       cg2d_iters =    16
(PID.TID 0000.0001)                         cg2d_res =    7.89859302776718E-11
(PID.TID 0000.0001) // =======================================================
(PID.TID 0000.0001) // Begin MONITOR dynamic field statistics
(PID.TID 0000.0001) // =======================================================
(PID.TID 0000.0001) %MON time_tsnumber                =                    20
(PID.TID 0000.0001) %MON time_secondsf                =   9.0000000000000E+03
(PID.TID 0000.0001) %MON dynstat_eta_max              =   4.6391601724480E+03
(PID.TID 0000.0001) %MON dynstat_eta_min              =  -1.0188012819812E+03
(PID.TID 0000.0001) %MON dynstat_eta_mean             =   3.7754530785387E-14
(PID.TID 0000.0001) %MON dynstat_eta_sd               =   5.6054633358796E+02
(PID.TID 0000.0001) %MON dynstat_eta_del2             =   3.7002729987343E+01
(PID.TID 0000.0001) %MON dynstat_uvel_max             =   5.9618330737749E+00
(PID.TID 0000.0001) %MON dynstat_uvel_min             =  -6.3793712296955E+00
(PID.TID 0000.0001) %MON dynstat_uvel_mean            =  -6.1127824201949E-03
(PID.TID 0000.0001) %MON dynstat_uvel_sd              =   8.2272505595671E-01
(PID.TID 0000.0001) %MON dynstat_uvel_del2            =   2.2111570019455E-02
(PID.TID 0000.0001) %MON dynstat_vvel_max             =   4.4202734520919E+00
(PID.TID 0000.0001) %MON dynstat_vvel_min             =  -5.6172004236930E+00
(PID.TID 0000.0001) %MON dynstat_vvel_mean            =   2.7787904282745E-02
(PID.TID 0000.0001) %MON dynstat_vvel_sd              =   8.0214518305956E-01
(PID.TID 0000.0001) %MON dynstat_vvel_del2            =   2.1521446773115E-02
(PID.TID 0000.0001) %MON dynstat_wvel_max             =   2.5869678252723E-01
(PID.TID 0000.0001) %MON dynstat_wvel_min             =  -9.9574505477009E-02
(PID.TID 0000.0001) %MON dynstat_wvel_mean            =  -2.5189598230922E-05
(PID.TID 0000.0001) %MON dynstat_wvel_sd              =   9.0887765653318E-03
(PID.TID 0000.0001) %MON dynstat_wvel_del2            =   1.4982543477952E-03
(PID.TID 0000.0001) %MON dynstat_theta_max            =   4.3830747752727E+02
(PID.TID 0000.0001) %MON dynstat_theta_min            =   2.8477999175656E+02
(PID.TID 0000.0001) %MON dynstat_theta_mean           =   3.3169514754582E+02
(PID.TID 0000.0001) %MON dynstat_theta_sd             =   4.7443031154172E+01
(PID.TID 0000.0001) %MON dynstat_theta_del2           =   2.1255707926778E-02
(PID.TID 0000.0001) %MON dynstat_salt_max             =   4.1923185194326E+00
(PID.TID 0000.0001) %MON dynstat_salt_min             =  -3.1104760040644E-03
(PID.TID 0000.0001) %MON dynstat_salt_mean            =   7.3485484867558E-02
(PID.TID 0000.0001) %MON dynstat_salt_sd              =   2.9693941847128E-01
(PID.TID 0000.0001) %MON dynstat_salt_del2            =   9.3355056478758E-03
(PID.TID 0000.0001) %MON advcfl_uvel_max              =   9.0988909852655E-03
(PID.TID 0000.0001) %MON advcfl_vvel_max              =   7.9991124260472E-03
(PID.TID 0000.0001) %MON advcfl_wvel_max              =   4.2332200777183E-03
(PID.TID 0000.0001) %MON advcfl_W_hf_max              =   1.5532566293525E-02
(PID.TID 0000.0001) %MON pe_b_mean                    =  -1.1542909282710E+00
(PID.TID 0000.0001) %MON ke_max                       =   2.0965622418219E+01
(PID.TID 0000.0001) %MON ke_mean                      =   6.5665164873659E-01
(PID.TID 0000.0001) %MON ke_vol                       =   4.9523908919847E+19
(PID.TID 0000.0001) %MON vort_r_min                   =  -2.1846205348843E-05
(PID.TID 0000.0001) %MON vort_r_max                   =   7.0985449414172E-06
(PID.TID 0000.0001) %MON vort_a_mean                  =   6.7242814765343E-08
(PID.TID 0000.0001) %MON vort_a_sd                    =   8.3978317175401E-05
(PID.TID 0000.0001) %MON vort_p_mean                  =   6.8939463231508E-08
(PID.TID 0000.0001) %MON vort_p_sd                    =   9.1885696877104E-05
(PID.TID 0000.0001) %MON surfExpan_theta_mean         =  -1.0321703756857E-03
(PID.TID 0000.0001) %MON surfExpan_salt_mean          =  -5.3492892540359E-04
(PID.TID 0000.0001) %MON surfExpan_Heat_mean          =  -2.9234588954272E-01
(PID.TID 0000.0001) %MON En_Budget_T2PE_mean          =   2.3001632675764E-01
(PID.TID 0000.0001) // =======================================================
(PID.TID 0000.0001) // End MONITOR dynamic field statistics
(PID.TID 0000.0001) // =======================================================
(PID.TID 0000.0001) // =======================================================
(PID.TID 0000.0001) // Begin MONITOR Land statistics
(PID.TID 0000.0001) // =======================================================
(PID.TID 0000.0001) %MON land_time_sec                =   9.0000000000000E+03
(PID.TID 0000.0001) %MON land_SnwH_ave_G              =   1.5322846168443E-01
(PID.TID 0000.0001) %MON land_SnwH_ave_S              =   5.5904555935395E-01
(PID.TID 0000.0001) %MON land_SnwH_ave_T              =   0.0000000000000E+00
(PID.TID 0000.0001) %MON land_SnwH_ave_N              =   1.2390532822388E-01
(PID.TID 0000.0001) %MON land_SnwH_max_S              =   9.9998921361616E-01
(PID.TID 0000.0001) %MON land_SnwH_max_T              =   0.0000000000000E+00
(PID.TID 0000.0001) %MON land_SnwH_max_N              =   9.9999865726821E-01
(PID.TID 0000.0001) %MON land_TotEnerg_G              =  -6.3432928968434E+21
(PID.TID 0000.0001) %MON land_TotEnerg_S              =  -5.0017541580035E+21
(PID.TID 0000.0001) %MON land_TotEnerg_T              =   7.2822638863734E+21
(PID.TID 0000.0001) %MON land_TotEnerg_N              =  -8.6238026252132E+21
(PID.TID 0000.0001) %MON land_Tsrf_ave_G              =  -8.1674672525421E+00
(PID.TID 0000.0001) %MON land_Tsrf_ave_S              =  -7.3214554902457E+00
(PID.TID 0000.0001) %MON land_Tsrf_ave_T              =   1.0810266558966E+01
(PID.TID 0000.0001) %MON land_Tsrf_ave_N              =  -2.1114680827123E+01
(PID.TID 0000.0001) %MON land_Tsrf_min_S              =  -3.3766414439204E+01
(PID.TID 0000.0001) %MON land_Tsrf_min_T              =  -4.2117004835610E+00
(PID.TID 0000.0001) %MON land_Tsrf_min_N              =  -5.2048652109691E+01
(PID.TID 0000.0001) %MON land_Tsrf_max_S              =   2.0989424069900E+01
(PID.TID 0000.0001) %MON land_Tsrf_max_T              =   2.1555923163291E+01
(PID.TID 0000.0001) %MON land_Tsrf_max_N              =   9.1862384201965E+00
(PID.TID 0000.0001) %MON land_Tgr1_ave_G              =  -6.9050168400558E+00
(PID.TID 0000.0001) %MON land_Tgr1_ave_S              =  -6.9955536604465E+00
(PID.TID 0000.0001) %MON land_Tgr1_ave_T              =   1.0810266558966E+01
(PID.TID 0000.0001) %MON land_Tgr1_ave_N              =  -1.8705392503466E+01
(PID.TID 0000.0001) %MON land_Tgr1_min_S              =  -3.9218935539858E+01
(PID.TID 0000.0001) %MON land_Tgr1_min_T              =  -4.2117004835610E+00
(PID.TID 0000.0001) %MON land_Tgr1_min_N              =  -5.4757372552357E+01
(PID.TID 0000.0001) %MON land_Tgr1_max_S              =   2.0989424069900E+01
(PID.TID 0000.0001) %MON land_Tgr1_max_T              =   2.1555923163291E+01
(PID.TID 0000.0001) %MON land_Tgr1_max_N              =   9.1862384201965E+00
(PID.TID 0000.0001) %MON land_Tgr2_ave_G              =   4.2046035369150E+00
(PID.TID 0000.0001) %MON land_Tgr2_ave_S              =  -1.8727624897630E+01
(PID.TID 0000.0001) %MON land_Tgr2_ave_T              =   2.2010359677220E+01
(PID.TID 0000.0001) %MON land_Tgr2_ave_N              =  -2.4648157935522E-01
(PID.TID 0000.0001) %MON land_Tgr2_min_S              =  -6.4753645339246E+01
(PID.TID 0000.0001) %MON land_Tgr2_min_T              =  -9.7041231148482E+00
(PID.TID 0000.0001) %MON land_Tgr2_min_N              =  -4.0198400191414E+01
(PID.TID 0000.0001) %MON land_Tgr2_max_S              =   2.3360323642636E+01
(PID.TID 0000.0001) %MON land_Tgr2_max_T              =   3.1353898428121E+01
(PID.TID 0000.0001) %MON land_Tgr2_max_N              =   2.9824223876070E+01
(PID.TID 0000.0001) %MON land_grdW_ave_G              =   4.8679869376460E-01
(PID.TID 0000.0001) %MON land_grdW_ave_S              =   3.0856443024935E-01
(PID.TID 0000.0001) %MON land_grdW_ave_T              =   5.6428203440809E-01
(PID.TID 0000.0001) %MON land_grdW_ave_N              =   4.9287570671481E-01
(PID.TID 0000.0001) %MON land_grdW_min_S              =   2.7075302486638E-02
(PID.TID 0000.0001) %MON land_grdW_min_T              =   0.0000000000000E+00
(PID.TID 0000.0001) %MON land_grdW_min_N              =   0.0000000000000E+00
(PID.TID 0000.0001) // =======================================================
(PID.TID 0000.0001) // End MONITOR Land statistics
(PID.TID 0000.0001) // =======================================================
(PID.TID 0000.0001) // =======================================================
(PID.TID 0000.0001) // Begin MONITOR Therm.SeaIce statistics
(PID.TID 0000.0001) // =======================================================
(PID.TID 0000.0001) %MON thSI_time_sec                =   9.0000000000000E+03
(PID.TID 0000.0001) %MON thSI_Ice_Area_G              =   2.0302106507530E+11
(PID.TID 0000.0001) %MON thSI_Ice_Area_S              =   0.0000000000000E+00
(PID.TID 0000.0001) %MON thSI_Ice_Area_N              =   2.0302106507530E+11
(PID.TID 0000.0001) %MON thSI_IceH_ave_G              =   1.1995826732192E-01
(PID.TID 0000.0001) %MON thSI_IceH_ave_S              =   0.0000000000000E+00
(PID.TID 0000.0001) %MON thSI_IceH_ave_N              =   1.1995826732192E-01
(PID.TID 0000.0001) %MON thSI_IceH_max_S              =   0.0000000000000E+00
(PID.TID 0000.0001) %MON thSI_IceH_max_N              =   1.4684055253663E-01
(PID.TID 0000.0001) %MON thSI_SnwH_ave_G              =   0.0000000000000E+00
(PID.TID 0000.0001) %MON thSI_SnwH_ave_S              =   0.0000000000000E+00
(PID.TID 0000.0001) %MON thSI_SnwH_ave_N              =   0.0000000000000E+00
(PID.TID 0000.0001) %MON thSI_SnwH_max_S              =   0.0000000000000E+00
(PID.TID 0000.0001) %MON thSI_SnwH_max_N              =   0.0000000000000E+00
(PID.TID 0000.0001) %MON thSI_TotEnerg_G              =  -7.4936795074432E+18
(PID.TID 0000.0001) %MON thSI_Tsrf_ave_G              =  -7.8326630624285E+00
(PID.TID 0000.0001) %MON thSI_Tsrf_ave_S              =   0.0000000000000E+00
(PID.TID 0000.0001) %MON thSI_Tsrf_ave_N              =  -7.8326630624285E+00
(PID.TID 0000.0001) %MON thSI_Tsrf_min_S              =   0.0000000000000E+00
(PID.TID 0000.0001) %MON thSI_Tsrf_min_N              =  -8.6315216196434E+00
(PID.TID 0000.0001) %MON thSI_Tsrf_max_S              =   0.0000000000000E+00
(PID.TID 0000.0001) %MON thSI_Tsrf_max_N              =  -3.6970262126473E+00
(PID.TID 0000.0001) %MON thSI_Tic1_ave_G              =  -5.9965233904924E+00
(PID.TID 0000.0001) %MON thSI_Tic1_ave_S              =   0.0000000000000E+00
(PID.TID 0000.0001) %MON thSI_Tic1_ave_N              =  -5.9965233904924E+00
(PID.TID 0000.0001) %MON thSI_Tic1_min_S              =   0.0000000000000E+00
(PID.TID 0000.0001) %MON thSI_Tic1_min_N              =  -6.1671626566758E+00
(PID.TID 0000.0001) %MON thSI_Tic1_max_S              =   0.0000000000000E+00
(PID.TID 0000.0001) %MON thSI_Tic1_max_N              =  -3.1925703894549E+00
(PID.TID 0000.0001) %MON thSI_Tic2_ave_G              =  -2.8999210356655E+00
(PID.TID 0000.0001) %MON thSI_Tic2_ave_S              =   0.0000000000000E+00
(PID.TID 0000.0001) %MON thSI_Tic2_ave_N              =  -2.8999210356655E+00
(PID.TID 0000.0001) %MON thSI_Tic2_min_S              =   0.0000000000000E+00
(PID.TID 0000.0001) %MON thSI_Tic2_min_N              =  -3.0125737662601E+00
(PID.TID 0000.0001) %MON thSI_Tic2_max_S              =   0.0000000000000E+00
(PID.TID 0000.0001) %MON thSI_Tic2_max_N              =  -2.1850235944236E+00
(PID.TID 0000.0001) // =======================================================
(PID.TID 0000.0001) // End MONITOR Therm.SeaIce statistics
(PID.TID 0000.0001) // =======================================================
 cg2d: Sum(rhs),rhsMax =  -5.23868948221207E-10  2.64528536215065E+04
(PID.TID 0000.0001)                    cg2d_init_res =    1.20562719270370E+04
(PID.TID 0000.0001)                       cg2d_iters =    16
(PID.TID 0000.0001)                         cg2d_res =    7.45507766913235E-11
(PID.TID 0000.0001) // =======================================================
(PID.TID 0000.0001) // Begin MONITOR dynamic field statistics
(PID.TID 0000.0001) // =======================================================
(PID.TID 0000.0001) %MON time_tsnumber                =                    21
(PID.TID 0000.0001) %MON time_secondsf                =   9.4500000000000E+03
(PID.TID 0000.0001) %MON dynstat_eta_max              =   4.5418584231698E+03
(PID.TID 0000.0001) %MON dynstat_eta_min              =  -9.7615865512175E+02
(PID.TID 0000.0001) %MON dynstat_eta_mean             =  -5.6230152233555E-15
(PID.TID 0000.0001) %MON dynstat_eta_sd               =   5.5643383440343E+02
(PID.TID 0000.0001) %MON dynstat_eta_del2             =   3.6888977407657E+01
(PID.TID 0000.0001) %MON dynstat_uvel_max             =   5.9428563127671E+00
(PID.TID 0000.0001) %MON dynstat_uvel_min             =  -6.2786463604561E+00
(PID.TID 0000.0001) %MON dynstat_uvel_mean            =  -4.0676301320286E-03
(PID.TID 0000.0001) %MON dynstat_uvel_sd              =   8.2858158936954E-01
(PID.TID 0000.0001) %MON dynstat_uvel_del2            =   2.2620490429277E-02
(PID.TID 0000.0001) %MON dynstat_vvel_max             =   4.5875423077383E+00
(PID.TID 0000.0001) %MON dynstat_vvel_min             =  -5.6548920997101E+00
(PID.TID 0000.0001) %MON dynstat_vvel_mean            =   2.8279855562363E-02
(PID.TID 0000.0001) %MON dynstat_vvel_sd              =   8.0217050219571E-01
(PID.TID 0000.0001) %MON dynstat_vvel_del2            =   2.1839008784949E-02
(PID.TID 0000.0001) %MON dynstat_wvel_max             =   2.8150808143368E-01
(PID.TID 0000.0001) %MON dynstat_wvel_min             =  -1.1345657100105E-01
(PID.TID 0000.0001) %MON dynstat_wvel_mean            =   1.1147519695173E-04
(PID.TID 0000.0001) %MON dynstat_wvel_sd              =   9.5217923057499E-03
(PID.TID 0000.0001) %MON dynstat_wvel_del2            =   1.5645650919342E-03
(PID.TID 0000.0001) %MON dynstat_theta_max            =   4.3830327970212E+02
(PID.TID 0000.0001) %MON dynstat_theta_min            =   2.8455348842923E+02
(PID.TID 0000.0001) %MON dynstat_theta_mean           =   3.3169328608437E+02
(PID.TID 0000.0001) %MON dynstat_theta_sd             =   4.7445019674469E+01
(PID.TID 0000.0001) %MON dynstat_theta_del2           =   2.2106446514536E-02
(PID.TID 0000.0001) %MON dynstat_salt_max             =   4.2647357083685E+00
(PID.TID 0000.0001) %MON dynstat_salt_min             =  -4.7217050966002E-03
(PID.TID 0000.0001) %MON dynstat_salt_mean            =   7.6920768752896E-02
(PID.TID 0000.0001) %MON dynstat_salt_sd              =   3.0947682837098E-01
(PID.TID 0000.0001) %MON dynstat_salt_del2            =   9.6641527668791E-03
(PID.TID 0000.0001) %MON advcfl_uvel_max              =   8.9552272021566E-03
(PID.TID 0000.0001) %MON advcfl_vvel_max              =   8.0527868423481E-03
(PID.TID 0000.0001) %MON advcfl_wvel_max              =   4.6064958780056E-03
(PID.TID 0000.0001) %MON advcfl_W_hf_max              =   1.6238433560166E-02
(PID.TID 0000.0001) %MON pe_b_mean                    =  -1.1678000972712E+00
(PID.TID 0000.0001) %MON ke_max                       =   1.9599350957326E+01
(PID.TID 0000.0001) %MON ke_mean                      =   6.6148018795014E-01
(PID.TID 0000.0001) %MON ke_vol                       =   4.9523908919847E+19
(PID.TID 0000.0001) %MON vort_r_min                   =  -2.0732098674615E-05
(PID.TID 0000.0001) %MON vort_r_max                   =   7.2525984496509E-06
(PID.TID 0000.0001) %MON vort_a_mean                  =   6.7242814765286E-08
(PID.TID 0000.0001) %MON vort_a_sd                    =   8.3981019232656E-05
(PID.TID 0000.0001) %MON vort_p_mean                  =   6.8939464089192E-08
(PID.TID 0000.0001) %MON vort_p_sd                    =   9.1873066490698E-05
(PID.TID 0000.0001) %MON surfExpan_theta_mean         =  -1.4270618118217E-02
(PID.TID 0000.0001) %MON surfExpan_salt_mean          =  -6.0961317677307E-04
(PID.TID 0000.0001) %MON surfExpan_Heat_mean          =   8.1904673009086E-01
(PID.TID 0000.0001) %MON En_Budget_T2PE_mean          =  -1.8560439589221E+00
(PID.TID 0000.0001) // =======================================================
(PID.TID 0000.0001) // End MONITOR dynamic field statistics
(PID.TID 0000.0001) // =======================================================
(PID.TID 0000.0001) // =======================================================
(PID.TID 0000.0001) // Begin MONITOR Land statistics
(PID.TID 0000.0001) // =======================================================
(PID.TID 0000.0001) %MON land_time_sec                =   9.4500000000000E+03
(PID.TID 0000.0001) %MON land_SnwH_ave_G              =   1.5322749771801E-01
(PID.TID 0000.0001) %MON land_SnwH_ave_S              =   5.5904469078081E-01
(PID.TID 0000.0001) %MON land_SnwH_ave_T              =   0.0000000000000E+00
(PID.TID 0000.0001) %MON land_SnwH_ave_N              =   1.2390368960404E-01
(PID.TID 0000.0001) %MON land_SnwH_max_S              =   9.9998865156778E-01
(PID.TID 0000.0001) %MON land_SnwH_max_T              =   0.0000000000000E+00
(PID.TID 0000.0001) %MON land_SnwH_max_N              =   9.9999859378445E-01
(PID.TID 0000.0001) %MON land_TotEnerg_G              =  -6.3451904435395E+21
(PID.TID 0000.0001) %MON land_TotEnerg_S              =  -5.0018826368311E+21
(PID.TID 0000.0001) %MON land_TotEnerg_T              =   7.2811503621346E+21
(PID.TID 0000.0001) %MON land_TotEnerg_N              =  -8.6244581688430E+21
(PID.TID 0000.0001) %MON land_Tsrf_ave_G              =  -8.2244609055718E+00
(PID.TID 0000.0001) %MON land_Tsrf_ave_S              =  -7.3347693470360E+00
(PID.TID 0000.0001) %MON land_Tsrf_ave_T              =   1.0683427692003E+01
(PID.TID 0000.0001) %MON land_Tsrf_ave_N              =  -2.1139203360155E+01
(PID.TID 0000.0001) %MON land_Tsrf_min_S              =  -3.3765912271339E+01
(PID.TID 0000.0001) %MON land_Tsrf_min_T              =  -4.0788535311090E+00
(PID.TID 0000.0001) %MON land_Tsrf_min_N              =  -5.2053366528436E+01
(PID.TID 0000.0001) %MON land_Tsrf_max_S              =   2.0838606068260E+01
(PID.TID 0000.0001) %MON land_Tsrf_max_T              =   2.1322867788776E+01
(PID.TID 0000.0001) %MON land_Tsrf_max_N              =   9.0276812838461E+00
(PID.TID 0000.0001) %MON land_Tgr1_ave_G              =  -6.9701309905355E+00
(PID.TID 0000.0001) %MON land_Tgr1_ave_S              =  -7.0391178243435E+00
(PID.TID 0000.0001) %MON land_Tgr1_ave_T              =   1.0683427692003E+01
(PID.TID 0000.0001) %MON land_Tgr1_ave_N              =  -1.8736279387912E+01
(PID.TID 0000.0001) %MON land_Tgr1_min_S              =  -3.9230100474407E+01
(PID.TID 0000.0001) %MON land_Tgr1_min_T              =  -4.0788535311090E+00
(PID.TID 0000.0001) %MON land_Tgr1_min_N              =  -5.4744810148335E+01
(PID.TID 0000.0001) %MON land_Tgr1_max_S              =   2.0838606068260E+01
(PID.TID 0000.0001) %MON land_Tgr1_max_T              =   2.1322867788776E+01
(PID.TID 0000.0001) %MON land_Tgr1_max_N              =   9.0276812838461E+00
(PID.TID 0000.0001) %MON land_Tgr2_ave_G              =   4.2044321529671E+00
(PID.TID 0000.0001) %MON land_Tgr2_ave_S              =  -1.8727429101250E+01
(PID.TID 0000.0001) %MON land_Tgr2_ave_T              =   2.2010175928316E+01
(PID.TID 0000.0001) %MON land_Tgr2_ave_N              =  -2.4676381741023E-01
(PID.TID 0000.0001) %MON land_Tgr2_min_S              =  -6.4753215042683E+01
(PID.TID 0000.0001) %MON land_Tgr2_min_T              =  -9.7040520385498E+00
(PID.TID 0000.0001) %MON land_Tgr2_min_N              =  -4.0198636660570E+01
(PID.TID 0000.0001) %MON land_Tgr2_max_S              =   2.3360268865585E+01
(PID.TID 0000.0001) %MON land_Tgr2_max_T              =   3.1353480381439E+01
(PID.TID 0000.0001) %MON land_Tgr2_max_N              =   2.9823718494215E+01
(PID.TID 0000.0001) %MON land_grdW_ave_G              =   4.8679031626656E-01
(PID.TID 0000.0001) %MON land_grdW_ave_S              =   3.0855631577499E-01
(PID.TID 0000.0001) %MON land_grdW_ave_T              =   5.6426143597646E-01
(PID.TID 0000.0001) %MON land_grdW_ave_N              =   4.9287540467352E-01
(PID.TID 0000.0001) %MON land_grdW_min_S              =   2.7161198472829E-02
(PID.TID 0000.0001) %MON land_grdW_min_T              =   0.0000000000000E+00
(PID.TID 0000.0001) %MON land_grdW_min_N              =   0.0000000000000E+00
(PID.TID 0000.0001) // =======================================================
(PID.TID 0000.0001) // End MONITOR Land statistics
(PID.TID 0000.0001) // =======================================================
(PID.TID 0000.0001) // =======================================================
(PID.TID 0000.0001) // Begin MONITOR Therm.SeaIce statistics
(PID.TID 0000.0001) // =======================================================
(PID.TID 0000.0001) %MON thSI_time_sec                =   9.4500000000000E+03
(PID.TID 0000.0001) %MON thSI_Ice_Area_G              =   2.0558839973542E+11
(PID.TID 0000.0001) %MON thSI_Ice_Area_S              =   0.0000000000000E+00
(PID.TID 0000.0001) %MON thSI_Ice_Area_N              =   2.0558839973542E+11
(PID.TID 0000.0001) %MON thSI_IceH_ave_G              =   1.1972516641086E-01
(PID.TID 0000.0001) %MON thSI_IceH_ave_S              =   0.0000000000000E+00
(PID.TID 0000.0001) %MON thSI_IceH_ave_N              =   1.1972516641086E-01
(PID.TID 0000.0001) %MON thSI_IceH_max_S              =   0.0000000000000E+00
(PID.TID 0000.0001) %MON thSI_IceH_max_N              =   1.4720474216905E-01
(PID.TID 0000.0001) %MON thSI_SnwH_ave_G              =   0.0000000000000E+00
(PID.TID 0000.0001) %MON thSI_SnwH_ave_S              =   0.0000000000000E+00
(PID.TID 0000.0001) %MON thSI_SnwH_ave_N              =   0.0000000000000E+00
(PID.TID 0000.0001) %MON thSI_SnwH_max_S              =   0.0000000000000E+00
(PID.TID 0000.0001) %MON thSI_SnwH_max_N              =   0.0000000000000E+00
(PID.TID 0000.0001) %MON thSI_TotEnerg_G              =  -7.5781614637730E+18
(PID.TID 0000.0001) %MON thSI_Tsrf_ave_G              =  -7.8976333322043E+00
(PID.TID 0000.0001) %MON thSI_Tsrf_ave_S              =   0.0000000000000E+00
(PID.TID 0000.0001) %MON thSI_Tsrf_ave_N              =  -7.8976333322043E+00
(PID.TID 0000.0001) %MON thSI_Tsrf_min_S              =   0.0000000000000E+00
(PID.TID 0000.0001) %MON thSI_Tsrf_min_N              =  -8.7406983888307E+00
(PID.TID 0000.0001) %MON thSI_Tsrf_max_S              =   0.0000000000000E+00
(PID.TID 0000.0001) %MON thSI_Tsrf_max_N              =  -3.7283589651012E+00
(PID.TID 0000.0001) %MON thSI_Tic1_ave_G              =  -6.1116941440324E+00
(PID.TID 0000.0001) %MON thSI_Tic1_ave_S              =   0.0000000000000E+00
(PID.TID 0000.0001) %MON thSI_Tic1_ave_N              =  -6.1116941440324E+00
(PID.TID 0000.0001) %MON thSI_Tic1_min_S              =   0.0000000000000E+00
(PID.TID 0000.0001) %MON thSI_Tic1_min_N              =  -6.2844057500817E+00
(PID.TID 0000.0001) %MON thSI_Tic1_max_S              =   0.0000000000000E+00
(PID.TID 0000.0001) %MON thSI_Tic1_max_N              =  -3.2158974160105E+00
(PID.TID 0000.0001) %MON thSI_Tic2_ave_G              =  -2.9514803723074E+00
(PID.TID 0000.0001) %MON thSI_Tic2_ave_S              =   0.0000000000000E+00
(PID.TID 0000.0001) %MON thSI_Tic2_ave_N              =  -2.9514803723074E+00
(PID.TID 0000.0001) %MON thSI_Tic2_min_S              =   0.0000000000000E+00
(PID.TID 0000.0001) %MON thSI_Tic2_min_N              =  -3.0632544487940E+00
(PID.TID 0000.0001) %MON thSI_Tic2_max_S              =   0.0000000000000E+00
(PID.TID 0000.0001) %MON thSI_Tic2_max_N              =  -2.1926970282431E+00
(PID.TID 0000.0001) // =======================================================
(PID.TID 0000.0001) // End MONITOR Therm.SeaIce statistics
(PID.TID 0000.0001) // =======================================================
 cg2d: Sum(rhs),rhsMax =  -2.61934474110603E-10  2.58778172895662E+04
(PID.TID 0000.0001)                    cg2d_init_res =    1.19405778134786E+04
(PID.TID 0000.0001)                       cg2d_iters =    16
(PID.TID 0000.0001)                         cg2d_res =    7.08949571990380E-11
(PID.TID 0000.0001) // =======================================================
(PID.TID 0000.0001) // Begin MONITOR dynamic field statistics
(PID.TID 0000.0001) // =======================================================
(PID.TID 0000.0001) %MON time_tsnumber                =                    22
(PID.TID 0000.0001) %MON time_secondsf                =   9.9000000000000E+03
(PID.TID 0000.0001) %MON dynstat_eta_max              =   4.3945829965779E+03
(PID.TID 0000.0001) %MON dynstat_eta_min              =  -9.3391139200296E+02
(PID.TID 0000.0001) %MON dynstat_eta_mean             =  -9.6394546686094E-15
(PID.TID 0000.0001) %MON dynstat_eta_sd               =   5.5044077647120E+02
(PID.TID 0000.0001) %MON dynstat_eta_del2             =   3.6787437451278E+01
(PID.TID 0000.0001) %MON dynstat_uvel_max             =   5.9081759151806E+00
(PID.TID 0000.0001) %MON dynstat_uvel_min             =  -6.1127695743960E+00
(PID.TID 0000.0001) %MON dynstat_uvel_mean            =  -1.4571267494220E-03
(PID.TID 0000.0001) %MON dynstat_uvel_sd              =   8.3248148354905E-01
(PID.TID 0000.0001) %MON dynstat_uvel_del2            =   2.3110536006350E-02
(PID.TID 0000.0001) %MON dynstat_vvel_max             =   4.7488680355155E+00
(PID.TID 0000.0001) %MON dynstat_vvel_min             =  -5.8825404676204E+00
(PID.TID 0000.0001) %MON dynstat_vvel_mean            =   2.8501479966317E-02
(PID.TID 0000.0001) %MON dynstat_vvel_sd              =   8.0377799811915E-01
(PID.TID 0000.0001) %MON dynstat_vvel_del2            =   2.2189914770654E-02
(PID.TID 0000.0001) %MON dynstat_wvel_max             =   2.9226125341409E-01
(PID.TID 0000.0001) %MON dynstat_wvel_min             =  -1.2486544051659E-01
(PID.TID 0000.0001) %MON dynstat_wvel_mean            =   2.3380811200558E-04
(PID.TID 0000.0001) %MON dynstat_wvel_sd              =   9.9135028625159E-03
(PID.TID 0000.0001) %MON dynstat_wvel_del2            =   1.6288069134150E-03
(PID.TID 0000.0001) %MON dynstat_theta_max            =   4.3827192117433E+02
(PID.TID 0000.0001) %MON dynstat_theta_min            =   2.8432833852797E+02
(PID.TID 0000.0001) %MON dynstat_theta_mean           =   3.3169138325763E+02
(PID.TID 0000.0001) %MON dynstat_theta_sd             =   4.7447021891909E+01
(PID.TID 0000.0001) %MON dynstat_theta_del2           =   2.2954030066261E-02
(PID.TID 0000.0001) %MON dynstat_salt_max             =   4.3321501208048E+00
(PID.TID 0000.0001) %MON dynstat_salt_min             =  -6.4004870640470E-03
(PID.TID 0000.0001) %MON dynstat_salt_mean            =   8.0342292510632E-02
(PID.TID 0000.0001) %MON dynstat_salt_sd              =   3.2188565384518E-01
(PID.TID 0000.0001) %MON dynstat_salt_del2            =   9.9901696146529E-03
(PID.TID 0000.0001) %MON advcfl_uvel_max              =   8.7186373034027E-03
(PID.TID 0000.0001) %MON advcfl_vvel_max              =   8.3852532461902E-03
(PID.TID 0000.0001) %MON advcfl_wvel_max              =   4.7824568740487E-03
(PID.TID 0000.0001) %MON advcfl_W_hf_max              =   1.6401798044715E-02
(PID.TID 0000.0001) %MON pe_b_mean                    =  -1.1807269383554E+00
(PID.TID 0000.0001) %MON ke_max                       =   1.8439434931597E+01
(PID.TID 0000.0001) %MON ke_mean                      =   6.6598046850918E-01
(PID.TID 0000.0001) %MON ke_vol                       =   4.9523908919847E+19
(PID.TID 0000.0001) %MON vort_r_min                   =  -2.1804619713269E-05
(PID.TID 0000.0001) %MON vort_r_max                   =   7.7292047528436E-06
(PID.TID 0000.0001) %MON vort_a_mean                  =   6.7242814765229E-08
(PID.TID 0000.0001) %MON vort_a_sd                    =   8.3983701451396E-05
(PID.TID 0000.0001) %MON vort_p_mean                  =   6.8939464880483E-08
(PID.TID 0000.0001) %MON vort_p_sd                    =   9.1858146257432E-05
(PID.TID 0000.0001) %MON surfExpan_theta_mean         =  -2.6051965554341E-02
(PID.TID 0000.0001) %MON surfExpan_salt_mean          =  -6.9089916302790E-04
(PID.TID 0000.0001) %MON surfExpan_Heat_mean          =   1.8113233701873E+00
(PID.TID 0000.0001) %MON En_Budget_T2PE_mean          =  -3.7168117719282E+00
(PID.TID 0000.0001) // =======================================================
(PID.TID 0000.0001) // End MONITOR dynamic field statistics
(PID.TID 0000.0001) // =======================================================
(PID.TID 0000.0001) // =======================================================
(PID.TID 0000.0001) // Begin MONITOR Land statistics
(PID.TID 0000.0001) // =======================================================
(PID.TID 0000.0001) %MON land_time_sec                =   9.9000000000000E+03
(PID.TID 0000.0001) %MON land_SnwH_ave_G              =   1.5322653563112E-01
(PID.TID 0000.0001) %MON land_SnwH_ave_S              =   5.5904381946987E-01
(PID.TID 0000.0001) %MON land_SnwH_ave_T              =   0.0000000000000E+00
(PID.TID 0000.0001) %MON land_SnwH_ave_N              =   1.2390205561665E-01
(PID.TID 0000.0001) %MON land_SnwH_max_S              =   9.9998809112998E-01
(PID.TID 0000.0001) %MON land_SnwH_max_T              =   0.0000000000000E+00
(PID.TID 0000.0001) %MON land_SnwH_max_N              =   9.9999853032455E-01
(PID.TID 0000.0001) %MON land_TotEnerg_G              =  -6.3469602617460E+21
(PID.TID 0000.0001) %MON land_TotEnerg_S              =  -5.0019935960883E+21
(PID.TID 0000.0001) %MON land_TotEnerg_T              =   7.2801333687344E+21
(PID.TID 0000.0001) %MON land_TotEnerg_N              =  -8.6251000343921E+21
(PID.TID 0000.0001) %MON land_Tsrf_ave_G              =  -8.2758038805375E+00
(PID.TID 0000.0001) %MON land_Tsrf_ave_S              =  -7.3409995799686E+00
(PID.TID 0000.0001) %MON land_Tsrf_ave_T              =   1.0567940308516E+01
(PID.TID 0000.0001) %MON land_Tsrf_ave_N              =  -2.1162346884205E+01
(PID.TID 0000.0001) %MON land_Tsrf_min_S              =  -3.3765234896703E+01
(PID.TID 0000.0001) %MON land_Tsrf_min_T              =  -3.9499835253752E+00
(PID.TID 0000.0001) %MON land_Tsrf_min_N              =  -5.2056114834150E+01
(PID.TID 0000.0001) %MON land_Tsrf_max_S              =   2.0705127938761E+01
(PID.TID 0000.0001) %MON land_Tsrf_max_T              =   2.1113044041303E+01
(PID.TID 0000.0001) %MON land_Tsrf_max_N              =   8.8779811588045E+00
(PID.TID 0000.0001) %MON land_Tgr1_ave_G              =  -7.0298366309352E+00
(PID.TID 0000.0001) %MON land_Tgr1_ave_S              =  -7.0776191632153E+00
(PID.TID 0000.0001) %MON land_Tgr1_ave_T              =   1.0567940308516E+01
(PID.TID 0000.0001) %MON land_Tgr1_ave_N              =  -1.8765614167008E+01
(PID.TID 0000.0001) %MON land_Tgr1_min_S              =  -3.9241228055368E+01
(PID.TID 0000.0001) %MON land_Tgr1_min_T              =  -3.9499835253752E+00
(PID.TID 0000.0001) %MON land_Tgr1_min_N              =  -5.4732271170574E+01
(PID.TID 0000.0001) %MON land_Tgr1_max_S              =   2.0705127938761E+01
(PID.TID 0000.0001) %MON land_Tgr1_max_T              =   2.1113044041303E+01
(PID.TID 0000.0001) %MON land_Tgr1_max_N              =   8.8779811588045E+00
(PID.TID 0000.0001) %MON land_Tgr2_ave_G              =   4.2042598553781E+00
(PID.TID 0000.0001) %MON land_Tgr2_ave_S              =  -1.8727233917452E+01
(PID.TID 0000.0001) %MON land_Tgr2_ave_T              =   2.2009990463471E+01
(PID.TID 0000.0001) %MON land_Tgr2_ave_N              =  -2.4704653101598E-01
(PID.TID 0000.0001) %MON land_Tgr2_min_S              =  -6.4752784955910E+01
(PID.TID 0000.0001) %MON land_Tgr2_min_T              =  -9.7039793350800E+00
(PID.TID 0000.0001) %MON land_Tgr2_min_N              =  -4.0198872892460E+01
(PID.TID 0000.0001) %MON land_Tgr2_max_S              =   2.3360211466311E+01
(PID.TID 0000.0001) %MON land_Tgr2_max_T              =   3.1353058962330E+01
(PID.TID 0000.0001) %MON land_Tgr2_max_N              =   2.9823207481566E+01
(PID.TID 0000.0001) %MON land_grdW_ave_G              =   4.8678210769980E-01
(PID.TID 0000.0001) %MON land_grdW_ave_S              =   3.0854830579032E-01
(PID.TID 0000.0001) %MON land_grdW_ave_T              =   5.6424128685748E-01
(PID.TID 0000.0001) %MON land_grdW_ave_N              =   4.9287510523755E-01
(PID.TID 0000.0001) %MON land_grdW_min_S              =   2.7247578676937E-02
(PID.TID 0000.0001) %MON land_grdW_min_T              =   0.0000000000000E+00
(PID.TID 0000.0001) %MON land_grdW_min_N              =   0.0000000000000E+00
(PID.TID 0000.0001) // =======================================================
(PID.TID 0000.0001) // End MONITOR Land statistics
(PID.TID 0000.0001) // =======================================================
(PID.TID 0000.0001) // =======================================================
(PID.TID 0000.0001) // Begin MONITOR Therm.SeaIce statistics
(PID.TID 0000.0001) // =======================================================
(PID.TID 0000.0001) %MON thSI_time_sec                =   9.9000000000000E+03
(PID.TID 0000.0001) %MON thSI_Ice_Area_G              =   2.0810431047536E+11
(PID.TID 0000.0001) %MON thSI_Ice_Area_S              =   0.0000000000000E+00
(PID.TID 0000.0001) %MON thSI_Ice_Area_N              =   2.0810431047536E+11
(PID.TID 0000.0001) %MON thSI_IceH_ave_G              =   1.1953250571391E-01
(PID.TID 0000.0001) %MON thSI_IceH_ave_S              =   0.0000000000000E+00
(PID.TID 0000.0001) %MON thSI_IceH_ave_N              =   1.1953250571391E-01
(PID.TID 0000.0001) %MON thSI_IceH_max_S              =   0.0000000000000E+00
(PID.TID 0000.0001) %MON thSI_IceH_max_N              =   1.4757314607795E-01
(PID.TID 0000.0001) %MON thSI_SnwH_ave_G              =   0.0000000000000E+00
(PID.TID 0000.0001) %MON thSI_SnwH_ave_S              =   0.0000000000000E+00
(PID.TID 0000.0001) %MON thSI_SnwH_ave_N              =   0.0000000000000E+00
(PID.TID 0000.0001) %MON thSI_SnwH_max_S              =   0.0000000000000E+00
(PID.TID 0000.0001) %MON thSI_SnwH_max_N              =   0.0000000000000E+00
(PID.TID 0000.0001) %MON thSI_TotEnerg_G              =  -7.6626898402391E+18
(PID.TID 0000.0001) %MON thSI_Tsrf_ave_G              =  -7.9567901225145E+00
(PID.TID 0000.0001) %MON thSI_Tsrf_ave_S              =   0.0000000000000E+00
(PID.TID 0000.0001) %MON thSI_Tsrf_ave_N              =  -7.9567901225145E+00
(PID.TID 0000.0001) %MON thSI_Tsrf_min_S              =   0.0000000000000E+00
(PID.TID 0000.0001) %MON thSI_Tsrf_min_N              =  -8.8427621231778E+00
(PID.TID 0000.0001) %MON thSI_Tsrf_max_S              =   0.0000000000000E+00
(PID.TID 0000.0001) %MON thSI_Tsrf_max_N              =  -3.7592223854597E+00
(PID.TID 0000.0001) %MON thSI_Tic1_ave_G              =  -6.2179836699202E+00
(PID.TID 0000.0001) %MON thSI_Tic1_ave_S              =   0.0000000000000E+00
(PID.TID 0000.0001) %MON thSI_Tic1_ave_N              =  -6.2179836699202E+00
(PID.TID 0000.0001) %MON thSI_Tic1_min_S              =   0.0000000000000E+00
(PID.TID 0000.0001) %MON thSI_Tic1_min_N              =  -6.3921981894772E+00
(PID.TID 0000.0001) %MON thSI_Tic1_max_S              =   0.0000000000000E+00
(PID.TID 0000.0001) %MON thSI_Tic1_max_N              =  -3.2388819718837E+00
(PID.TID 0000.0001) %MON thSI_Tic2_ave_G              =  -2.9987259271486E+00
(PID.TID 0000.0001) %MON thSI_Tic2_ave_S              =   0.0000000000000E+00
(PID.TID 0000.0001) %MON thSI_Tic2_ave_N              =  -2.9987259271486E+00
(PID.TID 0000.0001) %MON thSI_Tic2_min_S              =   0.0000000000000E+00
(PID.TID 0000.0001) %MON thSI_Tic2_min_N              =  -3.1095143948237E+00
(PID.TID 0000.0001) %MON thSI_Tic2_max_S              =   0.0000000000000E+00
(PID.TID 0000.0001) %MON thSI_Tic2_max_N              =  -2.2002578196445E+00
(PID.TID 0000.0001) // =======================================================
(PID.TID 0000.0001) // End MONITOR Therm.SeaIce statistics
(PID.TID 0000.0001) // =======================================================
 cg2d: Sum(rhs),rhsMax =   3.49245965480804E-10  2.51067361449826E+04
(PID.TID 0000.0001)                    cg2d_init_res =    1.18211695339103E+04
(PID.TID 0000.0001)                       cg2d_iters =    16
(PID.TID 0000.0001)                         cg2d_res =    7.03160082984488E-11
(PID.TID 0000.0001) // =======================================================
(PID.TID 0000.0001) // Begin MONITOR dynamic field statistics
(PID.TID 0000.0001) // =======================================================
(PID.TID 0000.0001) %MON time_tsnumber                =                    23
(PID.TID 0000.0001) %MON time_secondsf                =   1.0350000000000E+04
(PID.TID 0000.0001) %MON dynstat_eta_max              =   4.2147037429557E+03
(PID.TID 0000.0001) %MON dynstat_eta_min              =  -8.9515007245244E+02
(PID.TID 0000.0001) %MON dynstat_eta_mean             =   7.7115637348875E-14
(PID.TID 0000.0001) %MON dynstat_eta_sd               =   5.4285107321382E+02
(PID.TID 0000.0001) %MON dynstat_eta_del2             =   3.6700891489653E+01
(PID.TID 0000.0001) %MON dynstat_uvel_max             =   5.8560255605077E+00
(PID.TID 0000.0001) %MON dynstat_uvel_min             =  -6.1221550170402E+00
(PID.TID 0000.0001) %MON dynstat_uvel_mean            =   1.7432683687350E-03
(PID.TID 0000.0001) %MON dynstat_uvel_sd              =   8.3422801582457E-01
(PID.TID 0000.0001) %MON dynstat_uvel_del2            =   2.3596036312730E-02
(PID.TID 0000.0001) %MON dynstat_vvel_max             =   4.8719247440609E+00
(PID.TID 0000.0001) %MON dynstat_vvel_min             =  -6.0596424663134E+00
(PID.TID 0000.0001) %MON dynstat_vvel_mean            =   2.8455706007281E-02
(PID.TID 0000.0001) %MON dynstat_vvel_sd              =   8.0646646068688E-01
(PID.TID 0000.0001) %MON dynstat_vvel_del2            =   2.2612143255982E-02
(PID.TID 0000.0001) %MON dynstat_wvel_max             =   2.9112542842509E-01
(PID.TID 0000.0001) %MON dynstat_wvel_min             =  -1.3331665709529E-01
(PID.TID 0000.0001) %MON dynstat_wvel_mean            =   3.3932482017374E-04
(PID.TID 0000.0001) %MON dynstat_wvel_sd              =   1.0225142641564E-02
(PID.TID 0000.0001) %MON dynstat_wvel_del2            =   1.6885916091836E-03
(PID.TID 0000.0001) %MON dynstat_theta_max            =   4.3821491992613E+02
(PID.TID 0000.0001) %MON dynstat_theta_min            =   2.8410452438014E+02
(PID.TID 0000.0001) %MON dynstat_theta_mean           =   3.3168943904564E+02
(PID.TID 0000.0001) %MON dynstat_theta_sd             =   4.7449035887368E+01
(PID.TID 0000.0001) %MON dynstat_theta_del2           =   2.3809970440431E-02
(PID.TID 0000.0001) %MON dynstat_salt_max             =   4.3951101382251E+00
(PID.TID 0000.0001) %MON dynstat_salt_min             =  -8.1450895979129E-03
(PID.TID 0000.0001) %MON dynstat_salt_mean            =   8.3750634732413E-02
(PID.TID 0000.0001) %MON dynstat_salt_sd              =   3.3417023326053E-01
(PID.TID 0000.0001) %MON dynstat_salt_del2            =   1.0314456138688E-02
(PID.TID 0000.0001) %MON advcfl_uvel_max              =   8.5420438540712E-03
(PID.TID 0000.0001) %MON advcfl_vvel_max              =   8.6377028668297E-03
(PID.TID 0000.0001) %MON advcfl_wvel_max              =   4.7638706469561E-03
(PID.TID 0000.0001) %MON advcfl_W_hf_max              =   1.6043789765368E-02
(PID.TID 0000.0001) %MON pe_b_mean                    =  -1.1925314769011E+00
(PID.TID 0000.0001) %MON ke_max                       =   1.8153721595466E+01
(PID.TID 0000.0001) %MON ke_mean                      =   6.6957643159120E-01
(PID.TID 0000.0001) %MON ke_vol                       =   4.9523908919847E+19
(PID.TID 0000.0001) %MON vort_r_min                   =  -2.2478271950823E-05
(PID.TID 0000.0001) %MON vort_r_max                   =   8.2054695935672E-06
(PID.TID 0000.0001) %MON vort_a_mean                  =   6.7242814765261E-08
(PID.TID 0000.0001) %MON vort_a_sd                    =   8.3986353885711E-05
(PID.TID 0000.0001) %MON vort_p_mean                  =   6.8939465673849E-08
(PID.TID 0000.0001) %MON vort_p_sd                    =   9.1841419267833E-05
(PID.TID 0000.0001) %MON surfExpan_theta_mean         =  -3.6141809403561E-02
(PID.TID 0000.0001) %MON surfExpan_salt_mean          =  -7.7819135018554E-04
(PID.TID 0000.0001) %MON surfExpan_Heat_mean          =   2.6643137665851E+00
(PID.TID 0000.0001) %MON En_Budget_T2PE_mean          =  -5.3147315973659E+00
(PID.TID 0000.0001) // =======================================================
(PID.TID 0000.0001) // End MONITOR dynamic field statistics
(PID.TID 0000.0001) // =======================================================
(PID.TID 0000.0001) // =======================================================
(PID.TID 0000.0001) // Begin MONITOR Land statistics
(PID.TID 0000.0001) // =======================================================
(PID.TID 0000.0001) %MON land_time_sec                =   1.0350000000000E+04
(PID.TID 0000.0001) %MON land_SnwH_ave_G              =   1.5322557530564E-01
(PID.TID 0000.0001) %MON land_SnwH_ave_S              =   5.5904294525842E-01
(PID.TID 0000.0001) %MON land_SnwH_ave_T              =   0.0000000000000E+00
(PID.TID 0000.0001) %MON land_SnwH_ave_N              =   1.2390042607919E-01
(PID.TID 0000.0001) %MON land_SnwH_max_S              =   9.9998753186959E-01
(PID.TID 0000.0001) %MON land_SnwH_max_T              =   0.0000000000000E+00
(PID.TID 0000.0001) %MON land_SnwH_max_N              =   9.9999846686262E-01
(PID.TID 0000.0001) %MON land_TotEnerg_G              =  -6.3486147835790E+21
(PID.TID 0000.0001) %MON land_TotEnerg_S              =  -5.0020888785106E+21
(PID.TID 0000.0001) %MON land_TotEnerg_T              =   7.2792028813880E+21
(PID.TID 0000.0001) %MON land_TotEnerg_N              =  -8.6257287864564E+21
(PID.TID 0000.0001) %MON land_Tsrf_ave_G              =  -8.3222828996286E+00
(PID.TID 0000.0001) %MON land_Tsrf_ave_S              =  -7.3435780948592E+00
(PID.TID 0000.0001) %MON land_Tsrf_ave_T              =   1.0462660747791E+01
(PID.TID 0000.0001) %MON land_Tsrf_ave_N              =  -2.1183801686959E+01
(PID.TID 0000.0001) %MON land_Tsrf_min_S              =  -3.3761643896292E+01
(PID.TID 0000.0001) %MON land_Tsrf_min_T              =  -3.8249832827673E+00
(PID.TID 0000.0001) %MON land_Tsrf_min_N              =  -5.2056693959401E+01
(PID.TID 0000.0001) %MON land_Tsrf_max_S              =   2.0587280974984E+01
(PID.TID 0000.0001) %MON land_Tsrf_max_T              =   2.0924374129859E+01
(PID.TID 0000.0001) %MON land_Tsrf_max_N              =   8.7368338310999E+00
(PID.TID 0000.0001) %MON land_Tgr1_ave_G              =  -7.0845139261701E+00
(PID.TID 0000.0001) %MON land_Tgr1_ave_S              =  -7.1115835125147E+00
(PID.TID 0000.0001) %MON land_Tgr1_ave_T              =   1.0462660747791E+01
(PID.TID 0000.0001) %MON land_Tgr1_ave_N              =  -1.8793219910990E+01
(PID.TID 0000.0001) %MON land_Tgr1_min_S              =  -3.9252312370781E+01
(PID.TID 0000.0001) %MON land_Tgr1_min_T              =  -3.8249832827673E+00
(PID.TID 0000.0001) %MON land_Tgr1_min_N              =  -5.4719753468427E+01
(PID.TID 0000.0001) %MON land_Tgr1_max_S              =   2.0587280974984E+01
(PID.TID 0000.0001) %MON land_Tgr1_max_T              =   2.0924374129859E+01
(PID.TID 0000.0001) %MON land_Tgr1_max_N              =   8.7368338310999E+00
(PID.TID 0000.0001) %MON land_Tgr2_ave_G              =   4.2040867308970E+00
(PID.TID 0000.0001) %MON land_Tgr2_ave_S              =  -1.8727039274437E+01
(PID.TID 0000.0001) %MON land_Tgr2_ave_T              =   2.2009803445987E+01
(PID.TID 0000.0001) %MON land_Tgr2_ave_N              =  -2.4732967969313E-01
(PID.TID 0000.0001) %MON land_Tgr2_min_S              =  -6.4752355078529E+01
(PID.TID 0000.0001) %MON land_Tgr2_min_T              =  -9.7039050533676E+00
(PID.TID 0000.0001) %MON land_Tgr2_min_N              =  -4.0199108887557E+01
(PID.TID 0000.0001) %MON land_Tgr2_max_S              =   2.3360151708689E+01
(PID.TID 0000.0001) %MON land_Tgr2_max_T              =   3.1352634382398E+01
(PID.TID 0000.0001) %MON land_Tgr2_max_N              =   2.9822691047834E+01
(PID.TID 0000.0001) %MON land_grdW_ave_G              =   4.8677405052450E-01
(PID.TID 0000.0001) %MON land_grdW_ave_S              =   3.0854039012746E-01
(PID.TID 0000.0001) %MON land_grdW_ave_T              =   5.6422154012602E-01
(PID.TID 0000.0001) %MON land_grdW_ave_N              =   4.9287480809829E-01
(PID.TID 0000.0001) %MON land_grdW_min_S              =   2.7334299467217E-02
(PID.TID 0000.0001) %MON land_grdW_min_T              =   0.0000000000000E+00
(PID.TID 0000.0001) %MON land_grdW_min_N              =   0.0000000000000E+00
(PID.TID 0000.0001) // =======================================================
(PID.TID 0000.0001) // End MONITOR Land statistics
(PID.TID 0000.0001) // =======================================================
(PID.TID 0000.0001) // =======================================================
(PID.TID 0000.0001) // Begin MONITOR Therm.SeaIce statistics
(PID.TID 0000.0001) // =======================================================
(PID.TID 0000.0001) %MON thSI_time_sec                =   1.0350000000000E+04
(PID.TID 0000.0001) %MON thSI_Ice_Area_G              =   2.1057118105856E+11
(PID.TID 0000.0001) %MON thSI_Ice_Area_S              =   0.0000000000000E+00
(PID.TID 0000.0001) %MON thSI_Ice_Area_N              =   2.1057118105856E+11
(PID.TID 0000.0001) %MON thSI_IceH_ave_G              =   1.1937702989010E-01
(PID.TID 0000.0001) %MON thSI_IceH_ave_S              =   0.0000000000000E+00
(PID.TID 0000.0001) %MON thSI_IceH_ave_N              =   1.1937702989010E-01
(PID.TID 0000.0001) %MON thSI_IceH_max_S              =   0.0000000000000E+00
(PID.TID 0000.0001) %MON thSI_IceH_max_N              =   1.4794543084175E-01
(PID.TID 0000.0001) %MON thSI_SnwH_ave_G              =   0.0000000000000E+00
(PID.TID 0000.0001) %MON thSI_SnwH_ave_S              =   0.0000000000000E+00
(PID.TID 0000.0001) %MON thSI_SnwH_ave_N              =   0.0000000000000E+00
(PID.TID 0000.0001) %MON thSI_SnwH_max_S              =   0.0000000000000E+00
(PID.TID 0000.0001) %MON thSI_SnwH_max_N              =   0.0000000000000E+00
(PID.TID 0000.0001) %MON thSI_TotEnerg_G              =  -7.7472638744483E+18
(PID.TID 0000.0001) %MON thSI_Tsrf_ave_G              =  -8.0105637882745E+00
(PID.TID 0000.0001) %MON thSI_Tsrf_ave_S              =   0.0000000000000E+00
(PID.TID 0000.0001) %MON thSI_Tsrf_ave_N              =  -8.0105637882745E+00
(PID.TID 0000.0001) %MON thSI_Tsrf_min_S              =   0.0000000000000E+00
(PID.TID 0000.0001) %MON thSI_Tsrf_min_N              =  -8.9379609875731E+00
(PID.TID 0000.0001) %MON thSI_Tsrf_max_S              =   0.0000000000000E+00
(PID.TID 0000.0001) %MON thSI_Tsrf_max_N              =  -3.7896191636444E+00
(PID.TID 0000.0001) %MON thSI_Tic1_ave_G              =  -6.3159114033484E+00
(PID.TID 0000.0001) %MON thSI_Tic1_ave_S              =   0.0000000000000E+00
(PID.TID 0000.0001) %MON thSI_Tic1_ave_N              =  -6.3159114033484E+00
(PID.TID 0000.0001) %MON thSI_Tic1_min_S              =   0.0000000000000E+00
(PID.TID 0000.0001) %MON thSI_Tic1_min_N              =  -6.4927557925840E+00
(PID.TID 0000.0001) %MON thSI_Tic1_max_S              =   0.0000000000000E+00
(PID.TID 0000.0001) %MON thSI_Tic1_max_N              =  -3.2615189947892E+00
(PID.TID 0000.0001) %MON thSI_Tic2_ave_G              =  -3.0420716066325E+00
(PID.TID 0000.0001) %MON thSI_Tic2_ave_S              =   0.0000000000000E+00
(PID.TID 0000.0001) %MON thSI_Tic2_ave_N              =  -3.0420716066325E+00
(PID.TID 0000.0001) %MON thSI_Tic2_min_S              =   0.0000000000000E+00
(PID.TID 0000.0001) %MON thSI_Tic2_min_N              =  -3.1518007374708E+00
(PID.TID 0000.0001) %MON thSI_Tic2_max_S              =   0.0000000000000E+00
(PID.TID 0000.0001) %MON thSI_Tic2_max_N              =  -2.2077030075961E+00
(PID.TID 0000.0001) // =======================================================
(PID.TID 0000.0001) // End MONITOR Therm.SeaIce statistics
(PID.TID 0000.0001) // =======================================================
 cg2d: Sum(rhs),rhsMax =   6.98491930961609E-10  2.42119194659696E+04
(PID.TID 0000.0001)                    cg2d_init_res =    1.17029683692774E+04
(PID.TID 0000.0001)                       cg2d_iters =    16
(PID.TID 0000.0001)                         cg2d_res =    6.98890591168221E-11
(PID.TID 0000.0001) // =======================================================
(PID.TID 0000.0001) // Begin MONITOR dynamic field statistics
(PID.TID 0000.0001) // =======================================================
(PID.TID 0000.0001) %MON time_tsnumber                =                    24
(PID.TID 0000.0001) %MON time_secondsf                =   1.0800000000000E+04
(PID.TID 0000.0001) %MON dynstat_eta_max              =   4.0595770972346E+03
(PID.TID 0000.0001) %MON dynstat_eta_min              =  -8.5746179786418E+02
(PID.TID 0000.0001) %MON dynstat_eta_mean             =  -9.6394546686094E-15
(PID.TID 0000.0001) %MON dynstat_eta_sd               =   5.3396448298379E+02
(PID.TID 0000.0001) %MON dynstat_eta_del2             =   3.6613101166383E+01
(PID.TID 0000.0001) %MON dynstat_uvel_max             =   5.7847035395317E+00
(PID.TID 0000.0001) %MON dynstat_uvel_min             =  -6.1072810114590E+00
(PID.TID 0000.0001) %MON dynstat_uvel_mean            =   5.5416108436463E-03
(PID.TID 0000.0001) %MON dynstat_uvel_sd              =   8.3382465176289E-01
(PID.TID 0000.0001) %MON dynstat_uvel_del2            =   2.4088742598899E-02
(PID.TID 0000.0001) %MON dynstat_vvel_max             =   4.9729260269818E+00
(PID.TID 0000.0001) %MON dynstat_vvel_min             =  -6.1627614341595E+00
(PID.TID 0000.0001) %MON dynstat_vvel_mean            =   2.8160041919831E-02
(PID.TID 0000.0001) %MON dynstat_vvel_sd              =   8.0972091408527E-01
(PID.TID 0000.0001) %MON dynstat_vvel_del2            =   2.3066788936606E-02
(PID.TID 0000.0001) %MON dynstat_wvel_max             =   2.7916949694114E-01
(PID.TID 0000.0001) %MON dynstat_wvel_min             =  -1.3848285879391E-01
(PID.TID 0000.0001) %MON dynstat_wvel_mean            =   4.2626306791737E-04
(PID.TID 0000.0001) %MON dynstat_wvel_sd              =   1.0442994101015E-02
(PID.TID 0000.0001) %MON dynstat_wvel_del2            =   1.7467633522379E-03
(PID.TID 0000.0001) %MON dynstat_theta_max            =   4.3813491207076E+02
(PID.TID 0000.0001) %MON dynstat_theta_min            =   2.8388204596991E+02
(PID.TID 0000.0001) %MON dynstat_theta_mean           =   3.3168745387422E+02
(PID.TID 0000.0001) %MON dynstat_theta_sd             =   4.7451059972435E+01
(PID.TID 0000.0001) %MON dynstat_theta_del2           =   2.4685083475728E-02
(PID.TID 0000.0001) %MON dynstat_salt_max             =   4.4540960653851E+00
(PID.TID 0000.0001) %MON dynstat_salt_min             =  -9.9543845969263E-03
(PID.TID 0000.0001) %MON dynstat_salt_mean            =   8.7146353375436E-02
(PID.TID 0000.0001) %MON dynstat_salt_sd              =   3.4633379365794E-01
(PID.TID 0000.0001) %MON dynstat_salt_del2            =   1.0640406237368E-02
(PID.TID 0000.0001) %MON advcfl_uvel_max              =   8.5212906376618E-03
(PID.TID 0000.0001) %MON advcfl_vvel_max              =   8.7846935530196E-03
(PID.TID 0000.0001) %MON advcfl_wvel_max              =   4.5682281317640E-03
(PID.TID 0000.0001) %MON advcfl_W_hf_max              =   1.6525528840567E-02
(PID.TID 0000.0001) %MON pe_b_mean                    =  -1.2028247226486E+00
(PID.TID 0000.0001) %MON ke_max                       =   1.8699706162680E+01
(PID.TID 0000.0001) %MON ke_mean                      =   6.7185981240727E-01
(PID.TID 0000.0001) %MON ke_vol                       =   4.9523908919847E+19
(PID.TID 0000.0001) %MON vort_r_min                   =  -2.2709373924324E-05
(PID.TID 0000.0001) %MON vort_r_max                   =   8.6821631199788E-06
(PID.TID 0000.0001) %MON vort_a_mean                  =   6.7242814765301E-08
(PID.TID 0000.0001) %MON vort_a_sd                    =   8.3988968608692E-05
(PID.TID 0000.0001) %MON vort_p_mean                  =   6.8939466534109E-08
(PID.TID 0000.0001) %MON vort_p_sd                    =   9.1823403035539E-05
(PID.TID 0000.0001) %MON surfExpan_theta_mean         =  -4.4374086930425E-02
(PID.TID 0000.0001) %MON surfExpan_salt_mean          =  -8.7058126664324E-04
(PID.TID 0000.0001) %MON surfExpan_Heat_mean          =   3.3639390969918E+00
(PID.TID 0000.0001) %MON En_Budget_T2PE_mean          =  -6.6234012852243E+00
(PID.TID 0000.0001) // =======================================================
(PID.TID 0000.0001) // End MONITOR dynamic field statistics
(PID.TID 0000.0001) // =======================================================
(PID.TID 0000.0001) // =======================================================
(PID.TID 0000.0001) // Begin MONITOR Land statistics
(PID.TID 0000.0001) // =======================================================
(PID.TID 0000.0001) %MON land_time_sec                =   1.0800000000000E+04
(PID.TID 0000.0001) %MON land_SnwH_ave_G              =   1.5322461674063E-01
(PID.TID 0000.0001) %MON land_SnwH_ave_S              =   5.5904206868781E-01
(PID.TID 0000.0001) %MON land_SnwH_ave_T              =   0.0000000000000E+00
(PID.TID 0000.0001) %MON land_SnwH_ave_N              =   1.2389880081417E-01
(PID.TID 0000.0001) %MON land_SnwH_max_S              =   9.9998697332511E-01
(PID.TID 0000.0001) %MON land_SnwH_max_T              =   0.0000000000000E+00
(PID.TID 0000.0001) %MON land_SnwH_max_N              =   9.9999840337503E-01
(PID.TID 0000.0001) %MON land_TotEnerg_G              =  -6.3501659100549E+21
(PID.TID 0000.0001) %MON land_TotEnerg_S              =  -5.0021701764164E+21
(PID.TID 0000.0001) %MON land_TotEnerg_T              =   7.2783494276561E+21
(PID.TID 0000.0001) %MON land_TotEnerg_N              =  -8.6263451612947E+21
(PID.TID 0000.0001) %MON land_Tsrf_ave_G              =  -8.3645491251302E+00
(PID.TID 0000.0001) %MON land_Tsrf_ave_S              =  -7.3450898458293E+00
(PID.TID 0000.0001) %MON land_Tsrf_ave_T              =   1.0366220920310E+01
(PID.TID 0000.0001) %MON land_Tsrf_ave_N              =  -2.1203112877495E+01
(PID.TID 0000.0001) %MON land_Tsrf_min_S              =  -3.3754459502375E+01
(PID.TID 0000.0001) %MON land_Tsrf_min_T              =  -3.7037606508827E+00
(PID.TID 0000.0001) %MON land_Tsrf_min_N              =  -5.2055263233152E+01
(PID.TID 0000.0001) %MON land_Tsrf_max_S              =   2.0483535770805E+01
(PID.TID 0000.0001) %MON land_Tsrf_max_T              =   2.0754971523859E+01
(PID.TID 0000.0001) %MON land_Tsrf_max_N              =   8.6039266884166E+00
(PID.TID 0000.0001) %MON land_Tgr1_ave_G              =  -7.1345175057721E+00
(PID.TID 0000.0001) %MON land_Tgr1_ave_S              =  -7.1414992889207E+00
(PID.TID 0000.0001) %MON land_Tgr1_ave_T              =   1.0366220920310E+01
(PID.TID 0000.0001) %MON land_Tgr1_ave_N              =  -1.8818731090886E+01
(PID.TID 0000.0001) %MON land_Tgr1_min_S              =  -3.9263352508856E+01
(PID.TID 0000.0001) %MON land_Tgr1_min_T              =  -3.7037606508827E+00
(PID.TID 0000.0001) %MON land_Tgr1_min_N              =  -5.4707255049907E+01
(PID.TID 0000.0001) %MON land_Tgr1_max_S              =   2.0483535770805E+01
(PID.TID 0000.0001) %MON land_Tgr1_max_T              =   2.0754971523859E+01
(PID.TID 0000.0001) %MON land_Tgr1_max_N              =   8.6039266884166E+00
(PID.TID 0000.0001) %MON land_Tgr2_ave_G              =   4.2039128686299E+00
(PID.TID 0000.0001) %MON land_Tgr2_ave_S              =  -1.8726845108114E+01
(PID.TID 0000.0001) %MON land_Tgr2_ave_T              =   2.2009615052667E+01
(PID.TID 0000.0001) %MON land_Tgr2_ave_N              =  -2.4761322478216E-01
(PID.TID 0000.0001) %MON land_Tgr2_min_S              =  -6.4751925410083E+01
(PID.TID 0000.0001) %MON land_Tgr2_min_T              =  -9.7038292411759E+00
(PID.TID 0000.0001) %MON land_Tgr2_min_N              =  -4.0199344646330E+01
(PID.TID 0000.0001) %MON land_Tgr2_max_S              =   2.3360089830422E+01
(PID.TID 0000.0001) %MON land_Tgr2_max_T              =   3.1352206838658E+01
(PID.TID 0000.0001) %MON land_Tgr2_max_N              =   2.9822169396632E+01
(PID.TID 0000.0001) %MON land_grdW_ave_G              =   4.8676612775694E-01
(PID.TID 0000.0001) %MON land_grdW_ave_S              =   3.0853255950482E-01
(PID.TID 0000.0001) %MON land_grdW_ave_T              =   5.6420215010208E-01
(PID.TID 0000.0001) %MON land_grdW_ave_N              =   4.9287451293605E-01
(PID.TID 0000.0001) %MON land_grdW_min_S              =   2.7421233430732E-02
(PID.TID 0000.0001) %MON land_grdW_min_T              =   0.0000000000000E+00
(PID.TID 0000.0001) %MON land_grdW_min_N              =   0.0000000000000E+00
(PID.TID 0000.0001) // =======================================================
(PID.TID 0000.0001) // End MONITOR Land statistics
(PID.TID 0000.0001) // =======================================================
(PID.TID 0000.0001) // =======================================================
(PID.TID 0000.0001) // Begin MONITOR Therm.SeaIce statistics
(PID.TID 0000.0001) // =======================================================
(PID.TID 0000.0001) %MON thSI_time_sec                =   1.0800000000000E+04
(PID.TID 0000.0001) %MON thSI_Ice_Area_G              =   2.1299122465648E+11
(PID.TID 0000.0001) %MON thSI_Ice_Area_S              =   0.0000000000000E+00
(PID.TID 0000.0001) %MON thSI_Ice_Area_N              =   2.1299122465648E+11
(PID.TID 0000.0001) %MON thSI_IceH_ave_G              =   1.1925581433594E-01
(PID.TID 0000.0001) %MON thSI_IceH_ave_S              =   0.0000000000000E+00
(PID.TID 0000.0001) %MON thSI_IceH_ave_N              =   1.1925581433594E-01
(PID.TID 0000.0001) %MON thSI_IceH_max_S              =   0.0000000000000E+00
(PID.TID 0000.0001) %MON thSI_IceH_max_N              =   1.4832129003793E-01
(PID.TID 0000.0001) %MON thSI_SnwH_ave_G              =   0.0000000000000E+00
(PID.TID 0000.0001) %MON thSI_SnwH_ave_S              =   0.0000000000000E+00
(PID.TID 0000.0001) %MON thSI_SnwH_ave_N              =   0.0000000000000E+00
(PID.TID 0000.0001) %MON thSI_SnwH_max_S              =   0.0000000000000E+00
(PID.TID 0000.0001) %MON thSI_SnwH_max_N              =   0.0000000000000E+00
(PID.TID 0000.0001) %MON thSI_TotEnerg_G              =  -7.8318828284854E+18
(PID.TID 0000.0001) %MON thSI_Tsrf_ave_G              =  -8.0593499157426E+00
(PID.TID 0000.0001) %MON thSI_Tsrf_ave_S              =   0.0000000000000E+00
(PID.TID 0000.0001) %MON thSI_Tsrf_ave_N              =  -8.0593499157426E+00
(PID.TID 0000.0001) %MON thSI_Tsrf_min_S              =   0.0000000000000E+00
(PID.TID 0000.0001) %MON thSI_Tsrf_min_N              =  -9.0266471934422E+00
(PID.TID 0000.0001) %MON thSI_Tsrf_max_S              =   0.0000000000000E+00
(PID.TID 0000.0001) %MON thSI_Tsrf_max_N              =  -3.8195545960852E+00
(PID.TID 0000.0001) %MON thSI_Tic1_ave_G              =  -6.4059986934216E+00
(PID.TID 0000.0001) %MON thSI_Tic1_ave_S              =   0.0000000000000E+00
(PID.TID 0000.0001) %MON thSI_Tic1_ave_N              =  -6.4059986934216E+00
(PID.TID 0000.0001) %MON thSI_Tic1_min_S              =   0.0000000000000E+00
(PID.TID 0000.0001) %MON thSI_Tic1_min_N              =  -6.5948870459205E+00
(PID.TID 0000.0001) %MON thSI_Tic1_max_S              =   0.0000000000000E+00
(PID.TID 0000.0001) %MON thSI_Tic1_max_N              =  -3.2838109839194E+00
(PID.TID 0000.0001) %MON thSI_Tic2_ave_G              =  -3.0818695899144E+00
(PID.TID 0000.0001) %MON thSI_Tic2_ave_S              =   0.0000000000000E+00
(PID.TID 0000.0001) %MON thSI_Tic2_ave_N              =  -3.0818695899144E+00
(PID.TID 0000.0001) %MON thSI_Tic2_min_S              =   0.0000000000000E+00
(PID.TID 0000.0001) %MON thSI_Tic2_min_N              =  -3.1904919113379E+00
(PID.TID 0000.0001) %MON thSI_Tic2_max_S              =   0.0000000000000E+00
(PID.TID 0000.0001) %MON thSI_Tic2_max_N              =  -2.2150331645199E+00
(PID.TID 0000.0001) // =======================================================
(PID.TID 0000.0001) // End MONITOR Therm.SeaIce statistics
(PID.TID 0000.0001) // =======================================================
 cg2d: Sum(rhs),rhsMax =  -1.51339918375015E-09  2.32610553888742E+04
(PID.TID 0000.0001)                    cg2d_init_res =    1.15896308420383E+04
(PID.TID 0000.0001)                       cg2d_iters =    16
(PID.TID 0000.0001)                         cg2d_res =    6.91228314547292E-11
(PID.TID 0000.0001) // =======================================================
(PID.TID 0000.0001) // Begin MONITOR dynamic field statistics
(PID.TID 0000.0001) // =======================================================
(PID.TID 0000.0001) %MON time_tsnumber                =                    25
(PID.TID 0000.0001) %MON time_secondsf                =   1.1250000000000E+04
(PID.TID 0000.0001) %MON dynstat_eta_max              =   3.9016764383560E+03
(PID.TID 0000.0001) %MON dynstat_eta_min              =  -8.2091011896083E+02
(PID.TID 0000.0001) %MON dynstat_eta_mean             =  -7.7115637348875E-14
(PID.TID 0000.0001) %MON dynstat_eta_sd               =   5.2409486258155E+02
(PID.TID 0000.0001) %MON dynstat_eta_del2             =   3.6526087690042E+01
(PID.TID 0000.0001) %MON dynstat_uvel_max             =   5.6933073438876E+00
(PID.TID 0000.0001) %MON dynstat_uvel_min             =  -5.9789315227364E+00
(PID.TID 0000.0001) %MON dynstat_uvel_mean            =   9.9289939227014E-03
(PID.TID 0000.0001) %MON dynstat_uvel_sd              =   8.3142141627240E-01
(PID.TID 0000.0001) %MON dynstat_uvel_del2            =   2.4570396295248E-02
(PID.TID 0000.0001) %MON dynstat_vvel_max             =   5.0747789093050E+00
(PID.TID 0000.0001) %MON dynstat_vvel_min             =  -6.1921037563005E+00
(PID.TID 0000.0001) %MON dynstat_vvel_mean            =   2.7645926759854E-02
(PID.TID 0000.0001) %MON dynstat_vvel_sd              =   8.1304207436474E-01
(PID.TID 0000.0001) %MON dynstat_vvel_del2            =   2.3617418012133E-02
(PID.TID 0000.0001) %MON dynstat_wvel_max             =   2.5817238584593E-01
(PID.TID 0000.0001) %MON dynstat_wvel_min             =  -1.4020834399822E-01
(PID.TID 0000.0001) %MON dynstat_wvel_mean            =   4.9370751120706E-04
(PID.TID 0000.0001) %MON dynstat_wvel_sd              =   1.0570073373796E-02
(PID.TID 0000.0001) %MON dynstat_wvel_del2            =   1.8046812859395E-03
(PID.TID 0000.0001) %MON dynstat_theta_max            =   4.3803558786162E+02
(PID.TID 0000.0001) %MON dynstat_theta_min            =   2.8366091535250E+02
(PID.TID 0000.0001) %MON dynstat_theta_mean           =   3.3168542702721E+02
(PID.TID 0000.0001) %MON dynstat_theta_sd             =   4.7453094062738E+01
(PID.TID 0000.0001) %MON dynstat_theta_del2           =   2.5569907091666E-02
(PID.TID 0000.0001) %MON dynstat_salt_max             =   4.5095327843303E+00
(PID.TID 0000.0001) %MON dynstat_salt_min             =  -1.1827664579257E-02
(PID.TID 0000.0001) %MON dynstat_salt_mean            =   9.0528557561996E-02
(PID.TID 0000.0001) %MON dynstat_salt_sd              =   3.5837424973969E-01
(PID.TID 0000.0001) %MON dynstat_salt_del2            =   1.0966517977108E-02
(PID.TID 0000.0001) %MON advcfl_uvel_max              =   8.3422087688975E-03
(PID.TID 0000.0001) %MON advcfl_vvel_max              =   8.8265194959668E-03
(PID.TID 0000.0001) %MON advcfl_wvel_max              =   4.2246390411152E-03
(PID.TID 0000.0001) %MON advcfl_W_hf_max              =   1.6897224154393E-02
(PID.TID 0000.0001) %MON pe_b_mean                    =  -1.2113497751973E+00
(PID.TID 0000.0001) %MON ke_max                       =   1.8849012760587E+01
(PID.TID 0000.0001) %MON ke_mean                      =   6.7256665966286E-01
(PID.TID 0000.0001) %MON ke_vol                       =   4.9523908919847E+19
(PID.TID 0000.0001) %MON vort_r_min                   =  -2.2535261845863E-05
(PID.TID 0000.0001) %MON vort_r_max                   =   9.1608519450940E-06
(PID.TID 0000.0001) %MON vort_a_mean                  =   6.7242814765390E-08
(PID.TID 0000.0001) %MON vort_a_sd                    =   8.3991539826495E-05
(PID.TID 0000.0001) %MON vort_p_mean                  =   6.8939467512554E-08
(PID.TID 0000.0001) %MON vort_p_sd                    =   9.1804613587726E-05
(PID.TID 0000.0001) %MON surfExpan_theta_mean         =  -5.0665073397930E-02
(PID.TID 0000.0001) %MON surfExpan_salt_mean          =  -9.6685938303016E-04
(PID.TID 0000.0001) %MON surfExpan_Heat_mean          =   3.9031530526598E+00
(PID.TID 0000.0001) %MON En_Budget_T2PE_mean          =  -7.6295277910102E+00
(PID.TID 0000.0001) // =======================================================
(PID.TID 0000.0001) // End MONITOR dynamic field statistics
(PID.TID 0000.0001) // =======================================================
(PID.TID 0000.0001) // =======================================================
(PID.TID 0000.0001) // Begin MONITOR Land statistics
(PID.TID 0000.0001) // =======================================================
(PID.TID 0000.0001) %MON land_time_sec                =   1.1250000000000E+04
(PID.TID 0000.0001) %MON land_SnwH_ave_G              =   1.5322365996122E-01
(PID.TID 0000.0001) %MON land_SnwH_ave_S              =   5.5904119074270E-01
(PID.TID 0000.0001) %MON land_SnwH_ave_T              =   0.0000000000000E+00
(PID.TID 0000.0001) %MON land_SnwH_ave_N              =   1.2389717955225E-01
(PID.TID 0000.0001) %MON land_SnwH_max_S              =   9.9998641509579E-01
(PID.TID 0000.0001) %MON land_SnwH_max_T              =   0.0000000000000E+00
(PID.TID 0000.0001) %MON land_SnwH_max_N              =   9.9999833984414E-01
(PID.TID 0000.0001) %MON land_TotEnerg_G              =  -6.3516232035607E+21
(PID.TID 0000.0001) %MON land_TotEnerg_S              =  -5.0022389465641E+21
(PID.TID 0000.0001) %MON land_TotEnerg_T              =   7.2775653775573E+21
(PID.TID 0000.0001) %MON land_TotEnerg_N              =  -8.6269496345538E+21
(PID.TID 0000.0001) %MON land_Tsrf_ave_G              =  -8.4033328663506E+00
(PID.TID 0000.0001) %MON land_Tsrf_ave_S              =  -7.3470439581639E+00
(PID.TID 0000.0001) %MON land_Tsrf_ave_T              =   1.0278019800739E+01
(PID.TID 0000.0001) %MON land_Tsrf_ave_N              =  -2.1220844453997E+01
(PID.TID 0000.0001) %MON land_Tsrf_min_S              =  -3.3743802254739E+01
(PID.TID 0000.0001) %MON land_Tsrf_min_T              =  -3.5862361573439E+00
(PID.TID 0000.0001) %MON land_Tsrf_min_N              =  -5.2052289627378E+01
(PID.TID 0000.0001) %MON land_Tsrf_max_S              =   2.0392522043314E+01
(PID.TID 0000.0001) %MON land_Tsrf_max_T              =   2.0603114528019E+01
(PID.TID 0000.0001) %MON land_Tsrf_max_N              =   8.4789410083924E+00
(PID.TID 0000.0001) %MON land_Tgr1_ave_G              =  -7.1803946206773E+00
(PID.TID 0000.0001) %MON land_Tgr1_ave_S              =  -7.1677908143056E+00
(PID.TID 0000.0001) %MON land_Tgr1_ave_T              =   1.0278019800739E+01
(PID.TID 0000.0001) %MON land_Tgr1_ave_N              =  -1.8842698926107E+01
(PID.TID 0000.0001) %MON land_Tgr1_min_S              =  -3.9274350245596E+01
(PID.TID 0000.0001) %MON land_Tgr1_min_T              =  -3.5862361573439E+00
(PID.TID 0000.0001) %MON land_Tgr1_min_N              =  -5.4694774380981E+01
(PID.TID 0000.0001) %MON land_Tgr1_max_S              =   2.0392522043314E+01
(PID.TID 0000.0001) %MON land_Tgr1_max_T              =   2.0603114528019E+01
(PID.TID 0000.0001) %MON land_Tgr1_max_N              =   8.4789410083924E+00
(PID.TID 0000.0001) %MON land_Tgr2_ave_G              =   4.2037383193942E+00
(PID.TID 0000.0001) %MON land_Tgr2_ave_S              =  -1.8726651361133E+01
(PID.TID 0000.0001) %MON land_Tgr2_ave_T              =   2.2009425371251E+01
(PID.TID 0000.0001) %MON land_Tgr2_ave_N              =  -2.4789714224163E-01
(PID.TID 0000.0001) %MON land_Tgr2_min_S              =  -6.4751495950060E+01
(PID.TID 0000.0001) %MON land_Tgr2_min_T              =  -9.7037519452618E+00
(PID.TID 0000.0001) %MON land_Tgr2_min_N              =  -4.0199580169276E+01
(PID.TID 0000.0001) %MON land_Tgr2_max_S              =   2.3360026045871E+01
(PID.TID 0000.0001) %MON land_Tgr2_max_T              =   3.1351776514688E+01
(PID.TID 0000.0001) %MON land_Tgr2_max_N              =   2.9821642725518E+01
(PID.TID 0000.0001) %MON land_grdW_ave_G              =   4.8675832586583E-01
(PID.TID 0000.0001) %MON land_grdW_ave_S              =   3.0852480662336E-01
(PID.TID 0000.0001) %MON land_grdW_ave_T              =   5.6418308038641E-01
(PID.TID 0000.0001) %MON land_grdW_ave_N              =   4.9287421946837E-01
(PID.TID 0000.0001) %MON land_grdW_min_S              =   2.7508268430558E-02
(PID.TID 0000.0001) %MON land_grdW_min_T              =   0.0000000000000E+00
(PID.TID 0000.0001) %MON land_grdW_min_N              =   0.0000000000000E+00
(PID.TID 0000.0001) // =======================================================
(PID.TID 0000.0001) // End MONITOR Land statistics
(PID.TID 0000.0001) // =======================================================
(PID.TID 0000.0001) // =======================================================
(PID.TID 0000.0001) // Begin MONITOR Therm.SeaIce statistics
(PID.TID 0000.0001) // =======================================================
(PID.TID 0000.0001) %MON thSI_time_sec                =   1.1250000000000E+04
(PID.TID 0000.0001) %MON thSI_Ice_Area_G              =   2.1573888785704E+11
(PID.TID 0000.0001) %MON thSI_Ice_Area_S              =   0.0000000000000E+00
(PID.TID 0000.0001) %MON thSI_Ice_Area_N              =   2.1573888785704E+11
(PID.TID 0000.0001) %MON thSI_IceH_ave_G              =   1.1826882271225E-01
(PID.TID 0000.0001) %MON thSI_IceH_ave_S              =   0.0000000000000E+00
(PID.TID 0000.0001) %MON thSI_IceH_ave_N              =   1.1826882271225E-01
(PID.TID 0000.0001) %MON thSI_IceH_max_S              =   0.0000000000000E+00
(PID.TID 0000.0001) %MON thSI_IceH_max_N              =   1.4843356704056E-01
(PID.TID 0000.0001) %MON thSI_SnwH_ave_G              =   0.0000000000000E+00
(PID.TID 0000.0001) %MON thSI_SnwH_ave_S              =   0.0000000000000E+00
(PID.TID 0000.0001) %MON thSI_SnwH_ave_N              =   0.0000000000000E+00
(PID.TID 0000.0001) %MON thSI_SnwH_max_S              =   0.0000000000000E+00
(PID.TID 0000.0001) %MON thSI_SnwH_max_N              =   0.0000000000000E+00
(PID.TID 0000.0001) %MON thSI_TotEnerg_G              =  -7.8705170045268E+18
(PID.TID 0000.0001) %MON thSI_Tsrf_ave_G              =  -8.0636758141838E+00
(PID.TID 0000.0001) %MON thSI_Tsrf_ave_S              =   0.0000000000000E+00
(PID.TID 0000.0001) %MON thSI_Tsrf_ave_N              =  -8.0636758141838E+00
(PID.TID 0000.0001) %MON thSI_Tsrf_min_S              =   0.0000000000000E+00
(PID.TID 0000.0001) %MON thSI_Tsrf_min_N              =  -9.1091729779645E+00
(PID.TID 0000.0001) %MON thSI_Tsrf_max_S              =   0.0000000000000E+00
(PID.TID 0000.0001) %MON thSI_Tsrf_max_N              =  -1.6174463555733E+00
(PID.TID 0000.0001) %MON thSI_Tic1_ave_G              =  -6.4836450770478E+00
(PID.TID 0000.0001) %MON thSI_Tic1_ave_S              =   0.0000000000000E+00
(PID.TID 0000.0001) %MON thSI_Tic1_ave_N              =  -6.4836450770478E+00
(PID.TID 0000.0001) %MON thSI_Tic1_min_S              =   0.0000000000000E+00
(PID.TID 0000.0001) %MON thSI_Tic1_min_N              =  -6.6897319468683E+00
(PID.TID 0000.0001) %MON thSI_Tic1_max_S              =   0.0000000000000E+00
(PID.TID 0000.0001) %MON thSI_Tic1_max_N              =  -1.6174463555733E+00
(PID.TID 0000.0001) %MON thSI_Tic2_ave_G              =  -3.1169212141680E+00
(PID.TID 0000.0001) %MON thSI_Tic2_ave_S              =   0.0000000000000E+00
(PID.TID 0000.0001) %MON thSI_Tic2_ave_N              =  -3.1169212141680E+00
(PID.TID 0000.0001) %MON thSI_Tic2_min_S              =   0.0000000000000E+00
(PID.TID 0000.0001) %MON thSI_Tic2_min_N              =  -3.2259733297485E+00
(PID.TID 0000.0001) %MON thSI_Tic2_max_S              =   0.0000000000000E+00
(PID.TID 0000.0001) %MON thSI_Tic2_max_N              =  -1.6174463555733E+00
(PID.TID 0000.0001) // =======================================================
(PID.TID 0000.0001) // End MONITOR Therm.SeaIce statistics
(PID.TID 0000.0001) // =======================================================
 cg2d: Sum(rhs),rhsMax =   9.89530235528946E-10  2.23118335644922E+04
(PID.TID 0000.0001)                    cg2d_init_res =    1.14811350389023E+04
(PID.TID 0000.0001)                       cg2d_iters =    16
(PID.TID 0000.0001)                         cg2d_res =    6.94797509716812E-11
(PID.TID 0000.0001) // =======================================================
(PID.TID 0000.0001) // Begin MONITOR dynamic field statistics
(PID.TID 0000.0001) // =======================================================
(PID.TID 0000.0001) %MON time_tsnumber                =                    26
(PID.TID 0000.0001) %MON time_secondsf                =   1.1700000000000E+04
(PID.TID 0000.0001) %MON dynstat_eta_max              =   3.7313084074227E+03
(PID.TID 0000.0001) %MON dynstat_eta_min              =  -7.8797164249706E+02
(PID.TID 0000.0001) %MON dynstat_eta_mean             =  -5.1410424899250E-14
(PID.TID 0000.0001) %MON dynstat_eta_sd               =   5.1356551454972E+02
(PID.TID 0000.0001) %MON dynstat_eta_del2             =   3.6430178965983E+01
(PID.TID 0000.0001) %MON dynstat_uvel_max             =   5.5822343305939E+00
(PID.TID 0000.0001) %MON dynstat_uvel_min             =  -5.8099566610646E+00
(PID.TID 0000.0001) %MON dynstat_uvel_mean            =   1.4879749884590E-02
(PID.TID 0000.0001) %MON dynstat_uvel_sd              =   8.2726408920313E-01
(PID.TID 0000.0001) %MON dynstat_uvel_del2            =   2.5076255528826E-02
(PID.TID 0000.0001) %MON dynstat_vvel_max             =   5.1554956544110E+00
(PID.TID 0000.0001) %MON dynstat_vvel_min             =  -6.1529312663103E+00
(PID.TID 0000.0001) %MON dynstat_vvel_mean            =   2.6957129763691E-02
(PID.TID 0000.0001) %MON dynstat_vvel_sd              =   8.1596311007874E-01
(PID.TID 0000.0001) %MON dynstat_vvel_del2            =   2.4234671368617E-02
(PID.TID 0000.0001) %MON dynstat_wvel_max             =   2.4528189645474E-01
(PID.TID 0000.0001) %MON dynstat_wvel_min             =  -1.3851880248907E-01
(PID.TID 0000.0001) %MON dynstat_wvel_mean            =   5.4161629174725E-04
(PID.TID 0000.0001) %MON dynstat_wvel_sd              =   1.0617984396775E-02
(PID.TID 0000.0001) %MON dynstat_wvel_del2            =   1.8577539218728E-03
(PID.TID 0000.0001) %MON dynstat_theta_max            =   4.3804272681729E+02
(PID.TID 0000.0001) %MON dynstat_theta_min            =   2.8344113787420E+02
(PID.TID 0000.0001) %MON dynstat_theta_mean           =   3.3168336132458E+02
(PID.TID 0000.0001) %MON dynstat_theta_sd             =   4.7455135996935E+01
(PID.TID 0000.0001) %MON dynstat_theta_del2           =   2.6462115618649E-02
(PID.TID 0000.0001) %MON dynstat_salt_max             =   4.5617875598650E+00
(PID.TID 0000.0001) %MON dynstat_salt_min             =  -1.3764487929202E-02
(PID.TID 0000.0001) %MON dynstat_salt_mean            =   9.3899009934532E-02
(PID.TID 0000.0001) %MON dynstat_salt_sd              =   3.7030318478247E-01
(PID.TID 0000.0001) %MON dynstat_salt_del2            =   1.1291037260027E-02
(PID.TID 0000.0001) %MON advcfl_uvel_max              =   8.1364630426699E-03
(PID.TID 0000.0001) %MON advcfl_vvel_max              =   8.7706811637599E-03
(PID.TID 0000.0001) %MON advcfl_wvel_max              =   4.0137037601685E-03
(PID.TID 0000.0001) %MON advcfl_W_hf_max              =   1.6911944990645E-02
(PID.TID 0000.0001) %MON pe_b_mean                    =  -1.2179525359005E+00
(PID.TID 0000.0001) %MON ke_max                       =   1.8604076310997E+01
(PID.TID 0000.0001) %MON ke_mean                      =   6.7154403008704E-01
(PID.TID 0000.0001) %MON ke_vol                       =   4.9523908919847E+19
(PID.TID 0000.0001) %MON vort_r_min                   =  -2.2009503544180E-05
(PID.TID 0000.0001) %MON vort_r_max                   =   9.6439919753640E-06
(PID.TID 0000.0001) %MON vort_a_mean                  =   6.7242814765395E-08
(PID.TID 0000.0001) %MON vort_a_sd                    =   8.3994063521451E-05
(PID.TID 0000.0001) %MON vort_p_mean                  =   6.8939468640171E-08
(PID.TID 0000.0001) %MON vort_p_sd                    =   9.1785533818139E-05
(PID.TID 0000.0001) %MON surfExpan_theta_mean         =  -5.5017942899279E-02
(PID.TID 0000.0001) %MON surfExpan_salt_mean          =  -1.0655833608668E-03
(PID.TID 0000.0001) %MON surfExpan_Heat_mean          =   4.2820704702447E+00
(PID.TID 0000.0001) %MON En_Budget_T2PE_mean          =  -8.3333660124210E+00
(PID.TID 0000.0001) // =======================================================
(PID.TID 0000.0001) // End MONITOR dynamic field statistics
(PID.TID 0000.0001) // =======================================================
(PID.TID 0000.0001) // =======================================================
(PID.TID 0000.0001) // Begin MONITOR Land statistics
(PID.TID 0000.0001) // =======================================================
(PID.TID 0000.0001) %MON land_time_sec                =   1.1700000000000E+04
(PID.TID 0000.0001) %MON land_SnwH_ave_G              =   1.5322270507311E-01
(PID.TID 0000.0001) %MON land_SnwH_ave_S              =   5.5904031272899E-01
(PID.TID 0000.0001) %MON land_SnwH_ave_T              =   0.0000000000000E+00
(PID.TID 0000.0001) %MON land_SnwH_ave_N              =   1.2389556208035E-01
(PID.TID 0000.0001) %MON land_SnwH_max_S              =   9.9998585683125E-01
(PID.TID 0000.0001) %MON land_SnwH_max_T              =   0.0000000000000E+00
(PID.TID 0000.0001) %MON land_SnwH_max_N              =   9.9999827626014E-01
(PID.TID 0000.0001) %MON land_TotEnerg_G              =  -6.3529958696256E+21
(PID.TID 0000.0001) %MON land_TotEnerg_S              =  -5.0022965971597E+21
(PID.TID 0000.0001) %MON land_TotEnerg_T              =   7.2768434810132E+21
(PID.TID 0000.0001) %MON land_TotEnerg_N              =  -8.6275427534791E+21
(PID.TID 0000.0001) %MON land_Tsrf_ave_G              =  -8.4391130619828E+00
(PID.TID 0000.0001) %MON land_Tsrf_ave_S              =  -7.3505218604176E+00
(PID.TID 0000.0001) %MON land_Tsrf_ave_T              =   1.0197236911967E+01
(PID.TID 0000.0001) %MON land_Tsrf_ave_N              =  -2.1237051841808E+01
(PID.TID 0000.0001) %MON land_Tsrf_min_S              =  -3.3729837396967E+01
(PID.TID 0000.0001) %MON land_Tsrf_min_T              =  -3.4723424220839E+00
(PID.TID 0000.0001) %MON land_Tsrf_min_N              =  -5.2048380857119E+01
(PID.TID 0000.0001) %MON land_Tsrf_max_S              =   2.0313008971451E+01
(PID.TID 0000.0001) %MON land_Tsrf_max_T              =   2.0467232982261E+01
(PID.TID 0000.0001) %MON land_Tsrf_max_N              =   8.3615552379984E+00
(PID.TID 0000.0001) %MON land_Tgr1_ave_G              =  -7.2224755479395E+00
(PID.TID 0000.0001) %MON land_Tgr1_ave_S              =  -7.1908549370871E+00
(PID.TID 0000.0001) %MON land_Tgr1_ave_T              =   1.0197236911967E+01
(PID.TID 0000.0001) %MON land_Tgr1_ave_N              =  -1.8865104757180E+01
(PID.TID 0000.0001) %MON land_Tgr1_min_S              =  -3.9285307837224E+01
(PID.TID 0000.0001) %MON land_Tgr1_min_T              =  -3.4723424220839E+00
(PID.TID 0000.0001) %MON land_Tgr1_min_N              =  -5.4682310521857E+01
(PID.TID 0000.0001) %MON land_Tgr1_max_S              =   2.0313008971451E+01
(PID.TID 0000.0001) %MON land_Tgr1_max_T              =   2.0467232982261E+01
(PID.TID 0000.0001) %MON land_Tgr1_max_N              =   8.3615552379984E+00
(PID.TID 0000.0001) %MON land_Tgr2_ave_G              =   4.2035631505532E+00
(PID.TID 0000.0001) %MON land_Tgr2_ave_S              =  -1.8726457982311E+01
(PID.TID 0000.0001) %MON land_Tgr2_ave_T              =   2.2009234527712E+01
(PID.TID 0000.0001) %MON land_Tgr2_ave_N              =  -2.4818139859649E-01
(PID.TID 0000.0001) %MON land_Tgr2_min_S              =  -6.4751066697897E+01
(PID.TID 0000.0001) %MON land_Tgr2_min_T              =  -9.7036732115292E+00
(PID.TID 0000.0001) %MON land_Tgr2_min_N              =  -4.0199815456954E+01
(PID.TID 0000.0001) %MON land_Tgr2_max_S              =   2.3359960548563E+01
(PID.TID 0000.0001) %MON land_Tgr2_max_T              =   3.1351343582627E+01
(PID.TID 0000.0001) %MON land_Tgr2_max_N              =   2.9821111225952E+01
(PID.TID 0000.0001) %MON land_grdW_ave_G              =   4.8675063189789E-01
(PID.TID 0000.0001) %MON land_grdW_ave_S              =   3.0851712243466E-01
(PID.TID 0000.0001) %MON land_grdW_ave_T              =   5.6416429713331E-01
(PID.TID 0000.0001) %MON land_grdW_ave_N              =   4.9287392742660E-01
(PID.TID 0000.0001) %MON land_grdW_min_S              =   2.7595306847494E-02
(PID.TID 0000.0001) %MON land_grdW_min_T              =   0.0000000000000E+00
(PID.TID 0000.0001) %MON land_grdW_min_N              =   0.0000000000000E+00
(PID.TID 0000.0001) // =======================================================
(PID.TID 0000.0001) // End MONITOR Land statistics
(PID.TID 0000.0001) // =======================================================
(PID.TID 0000.0001) // =======================================================
(PID.TID 0000.0001) // Begin MONITOR Therm.SeaIce statistics
(PID.TID 0000.0001) // =======================================================
(PID.TID 0000.0001) %MON thSI_time_sec                =   1.1700000000000E+04
(PID.TID 0000.0001) %MON thSI_Ice_Area_G              =   2.1839430830660E+11
(PID.TID 0000.0001) %MON thSI_Ice_Area_S              =   0.0000000000000E+00
(PID.TID 0000.0001) %MON thSI_Ice_Area_N              =   2.1839430830660E+11
(PID.TID 0000.0001) %MON thSI_IceH_ave_G              =   1.1736064947214E-01
(PID.TID 0000.0001) %MON thSI_IceH_ave_S              =   0.0000000000000E+00
(PID.TID 0000.0001) %MON thSI_IceH_ave_N              =   1.1736064947214E-01
(PID.TID 0000.0001) %MON thSI_IceH_max_S              =   0.0000000000000E+00
(PID.TID 0000.0001) %MON thSI_IceH_max_N              =   1.4854946520342E-01
(PID.TID 0000.0001) %MON thSI_SnwH_ave_G              =   0.0000000000000E+00
(PID.TID 0000.0001) %MON thSI_SnwH_ave_S              =   0.0000000000000E+00
(PID.TID 0000.0001) %MON thSI_SnwH_ave_N              =   0.0000000000000E+00
(PID.TID 0000.0001) %MON thSI_SnwH_max_S              =   0.0000000000000E+00
(PID.TID 0000.0001) %MON thSI_SnwH_max_N              =   0.0000000000000E+00
(PID.TID 0000.0001) %MON thSI_TotEnerg_G              =  -7.9092397035918E+18
(PID.TID 0000.0001) %MON thSI_Tsrf_ave_G              =  -8.0741283578825E+00
(PID.TID 0000.0001) %MON thSI_Tsrf_ave_S              =   0.0000000000000E+00
(PID.TID 0000.0001) %MON thSI_Tsrf_ave_N              =  -8.0741283578825E+00
(PID.TID 0000.0001) %MON thSI_Tsrf_min_S              =   0.0000000000000E+00
(PID.TID 0000.0001) %MON thSI_Tsrf_min_N              =  -9.1847910509780E+00
(PID.TID 0000.0001) %MON thSI_Tsrf_max_S              =   0.0000000000000E+00
(PID.TID 0000.0001) %MON thSI_Tsrf_max_N              =  -2.5743894396394E+00
(PID.TID 0000.0001) %MON thSI_Tic1_ave_G              =  -6.5584280578493E+00
(PID.TID 0000.0001) %MON thSI_Tic1_ave_S              =   0.0000000000000E+00
(PID.TID 0000.0001) %MON thSI_Tic1_ave_N              =  -6.5584280578493E+00
(PID.TID 0000.0001) %MON thSI_Tic1_min_S              =   0.0000000000000E+00
(PID.TID 0000.0001) %MON thSI_Tic1_min_N              =  -6.7813152235475E+00
(PID.TID 0000.0001) %MON thSI_Tic1_max_S              =   0.0000000000000E+00
(PID.TID 0000.0001) %MON thSI_Tic1_max_N              =  -2.2330910863041E+00
(PID.TID 0000.0001) %MON thSI_Tic2_ave_G              =  -3.1538809933144E+00
(PID.TID 0000.0001) %MON thSI_Tic2_ave_S              =   0.0000000000000E+00
(PID.TID 0000.0001) %MON thSI_Tic2_ave_N              =  -3.1538809933144E+00
(PID.TID 0000.0001) %MON thSI_Tic2_min_S              =   0.0000000000000E+00
(PID.TID 0000.0001) %MON thSI_Tic2_min_N              =  -3.2639849653186E+00
(PID.TID 0000.0001) %MON thSI_Tic2_max_S              =   0.0000000000000E+00
(PID.TID 0000.0001) %MON thSI_Tic2_max_N              =  -1.8143190596589E+00
(PID.TID 0000.0001) // =======================================================
(PID.TID 0000.0001) // End MONITOR Therm.SeaIce statistics
(PID.TID 0000.0001) // =======================================================
 cg2d: Sum(rhs),rhsMax =  -5.82076609134674E-11  2.14089102082591E+04
(PID.TID 0000.0001)                    cg2d_init_res =    1.13738076211485E+04
(PID.TID 0000.0001)                       cg2d_iters =    16
(PID.TID 0000.0001)                         cg2d_res =    6.96885445829070E-11
(PID.TID 0000.0001) // =======================================================
(PID.TID 0000.0001) // Begin MONITOR dynamic field statistics
(PID.TID 0000.0001) // =======================================================
(PID.TID 0000.0001) %MON time_tsnumber                =                    27
(PID.TID 0000.0001) %MON time_secondsf                =   1.2150000000000E+04
(PID.TID 0000.0001) %MON dynstat_eta_max              =   3.5594952846583E+03
(PID.TID 0000.0001) %MON dynstat_eta_min              =  -7.6400180587751E+02
(PID.TID 0000.0001) %MON dynstat_eta_mean             =   1.6065757781016E-14
(PID.TID 0000.0001) %MON dynstat_eta_sd               =   5.0270121582094E+02
(PID.TID 0000.0001) %MON dynstat_eta_del2             =   3.6340738243327E+01
(PID.TID 0000.0001) %MON dynstat_uvel_max             =   5.4533795704761E+00
(PID.TID 0000.0001) %MON dynstat_uvel_min             =  -5.7581460807652E+00
(PID.TID 0000.0001) %MON dynstat_uvel_mean            =   2.0352241431125E-02
(PID.TID 0000.0001) %MON dynstat_uvel_sd              =   8.2165076661096E-01
(PID.TID 0000.0001) %MON dynstat_uvel_del2            =   2.5582525906194E-02
(PID.TID 0000.0001) %MON dynstat_vvel_max             =   5.2037598304938E+00
(PID.TID 0000.0001) %MON dynstat_vvel_min             =  -6.0544886870086E+00
(PID.TID 0000.0001) %MON dynstat_vvel_mean            =   2.6147437045217E-02
(PID.TID 0000.0001) %MON dynstat_vvel_sd              =   8.1806574794316E-01
(PID.TID 0000.0001) %MON dynstat_vvel_del2            =   2.4922965111818E-02
(PID.TID 0000.0001) %MON dynstat_wvel_max             =   2.4765009408182E-01
(PID.TID 0000.0001) %MON dynstat_wvel_min             =  -1.3362229010628E-01
(PID.TID 0000.0001) %MON dynstat_wvel_mean            =   5.7075733986221E-04
(PID.TID 0000.0001) %MON dynstat_wvel_sd              =   1.0600643627439E-02
(PID.TID 0000.0001) %MON dynstat_wvel_del2            =   1.9078764875692E-03
(PID.TID 0000.0001) %MON dynstat_theta_max            =   4.3807716250604E+02
(PID.TID 0000.0001) %MON dynstat_theta_min            =   2.8322268274206E+02
(PID.TID 0000.0001) %MON dynstat_theta_mean           =   3.3168125857472E+02
(PID.TID 0000.0001) %MON dynstat_theta_sd             =   4.7457185156310E+01
(PID.TID 0000.0001) %MON dynstat_theta_del2           =   2.7378701348229E-02
(PID.TID 0000.0001) %MON dynstat_salt_max             =   4.6112106974104E+00
(PID.TID 0000.0001) %MON dynstat_salt_min             =  -1.5764604123401E-02
(PID.TID 0000.0001) %MON dynstat_salt_mean            =   9.7258074913103E-02
(PID.TID 0000.0001) %MON dynstat_salt_sd              =   3.8212324178978E-01
(PID.TID 0000.0001) %MON dynstat_salt_del2            =   1.1614353683035E-02
(PID.TID 0000.0001) %MON advcfl_uvel_max              =   8.0397461143421E-03
(PID.TID 0000.0001) %MON advcfl_vvel_max              =   8.6303564244408E-03
(PID.TID 0000.0001) %MON advcfl_wvel_max              =   4.0524560849753E-03
(PID.TID 0000.0001) %MON advcfl_W_hf_max              =   1.6989101476479E-02
(PID.TID 0000.0001) %MON pe_b_mean                    =  -1.2225571323848E+00
(PID.TID 0000.0001) %MON ke_max                       =   1.8303362932988E+01
(PID.TID 0000.0001) %MON ke_mean                      =   6.6872257312802E-01
(PID.TID 0000.0001) %MON ke_vol                       =   4.9523908919847E+19
(PID.TID 0000.0001) %MON vort_r_min                   =  -2.1197552921928E-05
(PID.TID 0000.0001) %MON vort_r_max                   =   1.0134829384869E-05
(PID.TID 0000.0001) %MON vort_a_mean                  =   6.7242814765355E-08
(PID.TID 0000.0001) %MON vort_a_sd                    =   8.3996536806343E-05
(PID.TID 0000.0001) %MON vort_p_mean                  =   6.8939469925097E-08
(PID.TID 0000.0001) %MON vort_p_sd                    =   9.1766589445822E-05
(PID.TID 0000.0001) %MON surfExpan_theta_mean         =  -5.7517680026849E-02
(PID.TID 0000.0001) %MON surfExpan_salt_mean          =  -1.1651183075071E-03
(PID.TID 0000.0001) %MON surfExpan_Heat_mean          =   4.5073917661173E+00
(PID.TID 0000.0001) %MON En_Budget_T2PE_mean          =  -8.7477447026383E+00
(PID.TID 0000.0001) // =======================================================
(PID.TID 0000.0001) // End MONITOR dynamic field statistics
(PID.TID 0000.0001) // =======================================================
(PID.TID 0000.0001) // =======================================================
(PID.TID 0000.0001) // Begin MONITOR Land statistics
(PID.TID 0000.0001) // =======================================================
(PID.TID 0000.0001) %MON land_time_sec                =   1.2150000000000E+04
(PID.TID 0000.0001) %MON land_SnwH_ave_G              =   1.5322175222565E-01
(PID.TID 0000.0001) %MON land_SnwH_ave_S              =   5.5903943600627E-01
(PID.TID 0000.0001) %MON land_SnwH_ave_T              =   0.0000000000000E+00
(PID.TID 0000.0001) %MON land_SnwH_ave_N              =   1.2389394825498E-01
(PID.TID 0000.0001) %MON land_SnwH_max_S              =   9.9998529820688E-01
(PID.TID 0000.0001) %MON land_SnwH_max_T              =   0.0000000000000E+00
(PID.TID 0000.0001) %MON land_SnwH_max_N              =   9.9999821262051E-01
(PID.TID 0000.0001) %MON land_TotEnerg_G              =  -6.3542920290916E+21
(PID.TID 0000.0001) %MON land_TotEnerg_S              =  -5.0023443672891E+21
(PID.TID 0000.0001) %MON land_TotEnerg_T              =   7.2761773628339E+21
(PID.TID 0000.0001) %MON land_TotEnerg_N              =  -8.6281250246364E+21
(PID.TID 0000.0001) %MON land_Tsrf_ave_G              =  -8.4720757154023E+00
(PID.TID 0000.0001) %MON land_Tsrf_ave_S              =  -7.3556649890802E+00
(PID.TID 0000.0001) %MON land_Tsrf_ave_T              =   1.0123562998405E+01
(PID.TID 0000.0001) %MON land_Tsrf_ave_N              =  -2.1251853197326E+01
(PID.TID 0000.0001) %MON land_Tsrf_min_S              =  -3.3712652216797E+01
(PID.TID 0000.0001) %MON land_Tsrf_min_T              =  -3.3620197341173E+00
(PID.TID 0000.0001) %MON land_Tsrf_min_N              =  -5.2044091982426E+01
(PID.TID 0000.0001) %MON land_Tsrf_max_S              =   2.0243894659607E+01
(PID.TID 0000.0001) %MON land_Tsrf_max_T              =   2.0345890601598E+01
(PID.TID 0000.0001) %MON land_Tsrf_max_N              =   8.2514494443049E+00
(PID.TID 0000.0001) %MON land_Tgr1_ave_G              =  -7.2609609158580E+00
(PID.TID 0000.0001) %MON land_Tgr1_ave_S              =  -7.2110496773555E+00
(PID.TID 0000.0001) %MON land_Tgr1_ave_T              =   1.0123562998405E+01
(PID.TID 0000.0001) %MON land_Tgr1_ave_N              =  -1.8886025617358E+01
(PID.TID 0000.0001) %MON land_Tgr1_min_S              =  -3.9296226666290E+01
(PID.TID 0000.0001) %MON land_Tgr1_min_T              =  -3.3620197341173E+00
(PID.TID 0000.0001) %MON land_Tgr1_min_N              =  -5.4669863074745E+01
(PID.TID 0000.0001) %MON land_Tgr1_max_S              =   2.0243894659607E+01
(PID.TID 0000.0001) %MON land_Tgr1_max_T              =   2.0345890601598E+01
(PID.TID 0000.0001) %MON land_Tgr1_max_N              =   8.2514494443049E+00
(PID.TID 0000.0001) %MON land_Tgr2_ave_G              =   4.2033874248184E+00
(PID.TID 0000.0001) %MON land_Tgr2_ave_S              =  -1.8726264926089E+01
(PID.TID 0000.0001) %MON land_Tgr2_ave_T              =   2.2009042642212E+01
(PID.TID 0000.0001) %MON land_Tgr2_ave_N              =  -2.4846596393534E-01
(PID.TID 0000.0001) %MON land_Tgr2_min_S              =  -6.4750637652976E+01
(PID.TID 0000.0001) %MON land_Tgr2_min_T              =  -9.7035930851262E+00
(PID.TID 0000.0001) %MON land_Tgr2_min_N              =  -4.0200050510013E+01
(PID.TID 0000.0001) %MON land_Tgr2_max_S              =   2.3359893513367E+01
(PID.TID 0000.0001) %MON land_Tgr2_max_T              =   3.1350908204286E+01
(PID.TID 0000.0001) %MON land_Tgr2_max_N              =   2.9820575083196E+01
(PID.TID 0000.0001) %MON land_grdW_ave_G              =   4.8674303462539E-01
(PID.TID 0000.0001) %MON land_grdW_ave_S              =   3.0850950020689E-01
(PID.TID 0000.0001) %MON land_grdW_ave_T              =   5.6414577051029E-01
(PID.TID 0000.0001) %MON land_grdW_ave_N              =   4.9287363654830E-01
(PID.TID 0000.0001) %MON land_grdW_min_S              =   2.7682264758862E-02
(PID.TID 0000.0001) %MON land_grdW_min_T              =   0.0000000000000E+00
(PID.TID 0000.0001) %MON land_grdW_min_N              =   0.0000000000000E+00
(PID.TID 0000.0001) // =======================================================
(PID.TID 0000.0001) // End MONITOR Land statistics
(PID.TID 0000.0001) // =======================================================
(PID.TID 0000.0001) // =======================================================
(PID.TID 0000.0001) // Begin MONITOR Therm.SeaIce statistics
(PID.TID 0000.0001) // =======================================================
(PID.TID 0000.0001) %MON thSI_time_sec                =   1.2150000000000E+04
(PID.TID 0000.0001) %MON thSI_Ice_Area_G              =   2.2096314647959E+11
(PID.TID 0000.0001) %MON thSI_Ice_Area_S              =   0.0000000000000E+00
(PID.TID 0000.0001) %MON thSI_Ice_Area_N              =   2.2096314647959E+11
(PID.TID 0000.0001) %MON thSI_IceH_ave_G              =   1.1652499754408E-01
(PID.TID 0000.0001) %MON thSI_IceH_ave_S              =   0.0000000000000E+00
(PID.TID 0000.0001) %MON thSI_IceH_ave_N              =   1.1652499754408E-01
(PID.TID 0000.0001) %MON thSI_IceH_max_S              =   0.0000000000000E+00
(PID.TID 0000.0001) %MON thSI_IceH_max_N              =   1.4866870721883E-01
(PID.TID 0000.0001) %MON thSI_SnwH_ave_G              =   0.0000000000000E+00
(PID.TID 0000.0001) %MON thSI_SnwH_ave_S              =   0.0000000000000E+00
(PID.TID 0000.0001) %MON thSI_SnwH_ave_N              =   0.0000000000000E+00
(PID.TID 0000.0001) %MON thSI_SnwH_max_S              =   0.0000000000000E+00
(PID.TID 0000.0001) %MON thSI_SnwH_max_N              =   0.0000000000000E+00
(PID.TID 0000.0001) %MON thSI_TotEnerg_G              =  -7.9480439432866E+18
(PID.TID 0000.0001) %MON thSI_Tsrf_ave_G              =  -8.0812438648886E+00
(PID.TID 0000.0001) %MON thSI_Tsrf_ave_S              =   0.0000000000000E+00
(PID.TID 0000.0001) %MON thSI_Tsrf_ave_N              =  -8.0812438648886E+00
(PID.TID 0000.0001) %MON thSI_Tsrf_min_S              =   0.0000000000000E+00
(PID.TID 0000.0001) %MON thSI_Tsrf_min_N              =  -9.2548670387737E+00
(PID.TID 0000.0001) %MON thSI_Tsrf_max_S              =   0.0000000000000E+00
(PID.TID 0000.0001) %MON thSI_Tsrf_max_N              =  -2.8529715355719E+00
(PID.TID 0000.0001) %MON thSI_Tic1_ave_G              =  -6.6265290979457E+00
(PID.TID 0000.0001) %MON thSI_Tic1_ave_S              =   0.0000000000000E+00
(PID.TID 0000.0001) %MON thSI_Tic1_ave_N              =  -6.6265290979457E+00
(PID.TID 0000.0001) %MON thSI_Tic1_min_S              =   0.0000000000000E+00
(PID.TID 0000.0001) %MON thSI_Tic1_min_N              =  -6.8662485271775E+00
(PID.TID 0000.0001) %MON thSI_Tic1_max_S              =   0.0000000000000E+00
(PID.TID 0000.0001) %MON thSI_Tic1_max_N              =  -2.5107976591742E+00
(PID.TID 0000.0001) %MON thSI_Tic2_ave_G              =  -3.1873804489510E+00
(PID.TID 0000.0001) %MON thSI_Tic2_ave_S              =   0.0000000000000E+00
(PID.TID 0000.0001) %MON thSI_Tic2_ave_N              =  -3.1873804489510E+00
(PID.TID 0000.0001) %MON thSI_Tic2_min_S              =   0.0000000000000E+00
(PID.TID 0000.0001) %MON thSI_Tic2_min_N              =  -3.2983120359805E+00
(PID.TID 0000.0001) %MON thSI_Tic2_max_S              =   0.0000000000000E+00
(PID.TID 0000.0001) %MON thSI_Tic2_max_N              =  -1.9106627674019E+00
(PID.TID 0000.0001) // =======================================================
(PID.TID 0000.0001) // End MONITOR Therm.SeaIce statistics
(PID.TID 0000.0001) // =======================================================
 cg2d: Sum(rhs),rhsMax =  -1.62981450557709E-09  2.05830655096788E+04
(PID.TID 0000.0001)                    cg2d_init_res =    1.12616690584085E+04
(PID.TID 0000.0001)                       cg2d_iters =    16
(PID.TID 0000.0001)                         cg2d_res =    6.86772300330098E-11
(PID.TID 0000.0001) // =======================================================
(PID.TID 0000.0001) // Begin MONITOR dynamic field statistics
(PID.TID 0000.0001) // =======================================================
(PID.TID 0000.0001) %MON time_tsnumber                =                    28
(PID.TID 0000.0001) %MON time_secondsf                =   1.2600000000000E+04
(PID.TID 0000.0001) %MON dynstat_eta_max              =   3.3949296089657E+03
(PID.TID 0000.0001) %MON dynstat_eta_min              =  -7.6195723213769E+02
(PID.TID 0000.0001) %MON dynstat_eta_mean             =   1.2852606224812E-14
(PID.TID 0000.0001) %MON dynstat_eta_sd               =   4.9181743023973E+02
(PID.TID 0000.0001) %MON dynstat_eta_del2             =   3.6263914486347E+01
(PID.TID 0000.0001) %MON dynstat_uvel_max             =   5.3100298996456E+00
(PID.TID 0000.0001) %MON dynstat_uvel_min             =  -5.6802494068099E+00
(PID.TID 0000.0001) %MON dynstat_uvel_mean            =   2.6289968351999E-02
(PID.TID 0000.0001) %MON dynstat_uvel_sd              =   8.1489648915120E-01
(PID.TID 0000.0001) %MON dynstat_uvel_del2            =   2.6106664561813E-02
(PID.TID 0000.0001) %MON dynstat_vvel_max             =   5.2153974592950E+00
(PID.TID 0000.0001) %MON dynstat_vvel_min             =  -5.9367094023653E+00
(PID.TID 0000.0001) %MON dynstat_vvel_mean            =   2.5278042919920E-02
(PID.TID 0000.0001) %MON dynstat_vvel_sd              =   8.1900075114993E-01
(PID.TID 0000.0001) %MON dynstat_vvel_del2            =   2.5613778361047E-02
(PID.TID 0000.0001) %MON dynstat_wvel_max             =   2.4433822258398E-01
(PID.TID 0000.0001) %MON dynstat_wvel_min             =  -1.2589699197526E-01
(PID.TID 0000.0001) %MON dynstat_wvel_mean            =   5.8258759086642E-04
(PID.TID 0000.0001) %MON dynstat_wvel_sd              =   1.0530605787365E-02
(PID.TID 0000.0001) %MON dynstat_wvel_del2            =   1.9533225885369E-03
(PID.TID 0000.0001) %MON dynstat_theta_max            =   4.3811823630311E+02
(PID.TID 0000.0001) %MON dynstat_theta_min            =   2.8300551076365E+02
(PID.TID 0000.0001) %MON dynstat_theta_mean           =   3.3167912095818E+02
(PID.TID 0000.0001) %MON dynstat_theta_sd             =   4.7459241238956E+01
(PID.TID 0000.0001) %MON dynstat_theta_del2           =   2.8290001694852E-02
(PID.TID 0000.0001) %MON dynstat_salt_max             =   4.6578247303784E+00
(PID.TID 0000.0001) %MON dynstat_salt_min             =  -1.7827775490232E-02
(PID.TID 0000.0001) %MON dynstat_salt_mean            =   1.0060608417065E-01
(PID.TID 0000.0001) %MON dynstat_salt_sd              =   3.9383759436562E-01
(PID.TID 0000.0001) %MON dynstat_salt_del2            =   1.1935079362292E-02
(PID.TID 0000.0001) %MON advcfl_uvel_max              =   7.9309837674049E-03
(PID.TID 0000.0001) %MON advcfl_vvel_max              =   8.4874523160623E-03
(PID.TID 0000.0001) %MON advcfl_wvel_max              =   3.9982618241015E-03
(PID.TID 0000.0001) %MON advcfl_W_hf_max              =   1.7820523153636E-02
(PID.TID 0000.0001) %MON pe_b_mean                    =  -1.2251525193366E+00
(PID.TID 0000.0001) %MON ke_max                       =   1.7681475522459E+01
(PID.TID 0000.0001) %MON ke_mean                      =   6.6410117612253E-01
(PID.TID 0000.0001) %MON ke_vol                       =   4.9523908919847E+19
(PID.TID 0000.0001) %MON vort_r_min                   =  -2.0636067317380E-05
(PID.TID 0000.0001) %MON vort_r_max                   =   1.0637193794522E-05
(PID.TID 0000.0001) %MON vort_a_mean                  =   6.7242814765291E-08
(PID.TID 0000.0001) %MON vort_a_sd                    =   8.3998957198209E-05
(PID.TID 0000.0001) %MON vort_p_mean                  =   6.8939471352860E-08
(PID.TID 0000.0001) %MON vort_p_sd                    =   9.1748134311117E-05
(PID.TID 0000.0001) %MON surfExpan_theta_mean         =  -5.8319177319526E-02
(PID.TID 0000.0001) %MON surfExpan_salt_mean          =  -1.2637072888640E-03
(PID.TID 0000.0001) %MON surfExpan_Heat_mean          =   4.5913877141441E+00
(PID.TID 0000.0001) %MON En_Budget_T2PE_mean          =  -8.8961677625419E+00
(PID.TID 0000.0001) // =======================================================
(PID.TID 0000.0001) // End MONITOR dynamic field statistics
(PID.TID 0000.0001) // =======================================================
(PID.TID 0000.0001) // =======================================================
(PID.TID 0000.0001) // Begin MONITOR Land statistics
(PID.TID 0000.0001) // =======================================================
(PID.TID 0000.0001) %MON land_time_sec                =   1.2600000000000E+04
(PID.TID 0000.0001) %MON land_SnwH_ave_G              =   1.5322080156340E-01
(PID.TID 0000.0001) %MON land_SnwH_ave_S              =   5.5903856185528E-01
(PID.TID 0000.0001) %MON land_SnwH_ave_T              =   0.0000000000000E+00
(PID.TID 0000.0001) %MON land_SnwH_ave_N              =   1.2389233794865E-01
(PID.TID 0000.0001) %MON land_SnwH_max_S              =   9.9998473892274E-01
(PID.TID 0000.0001) %MON land_SnwH_max_T              =   0.0000000000000E+00
(PID.TID 0000.0001) %MON land_SnwH_max_N              =   9.9999814892771E-01
(PID.TID 0000.0001) %MON land_TotEnerg_G              =  -6.3555188539134E+21
(PID.TID 0000.0001) %MON land_TotEnerg_S              =  -5.0023833797049E+21
(PID.TID 0000.0001) %MON land_TotEnerg_T              =   7.2755614396007E+21
(PID.TID 0000.0001) %MON land_TotEnerg_N              =  -8.6286969138092E+21
(PID.TID 0000.0001) %MON land_Tsrf_ave_G              =  -8.5027592408636E+00
(PID.TID 0000.0001) %MON land_Tsrf_ave_S              =  -7.3621807232090E+00
(PID.TID 0000.0001) %MON land_Tsrf_ave_T              =   1.0055671104063E+01
(PID.TID 0000.0001) %MON land_Tsrf_ave_N              =  -2.1265529952580E+01
(PID.TID 0000.0001) %MON land_Tsrf_min_S              =  -3.3692411388528E+01
(PID.TID 0000.0001) %MON land_Tsrf_min_T              =  -3.2552165451920E+00
(PID.TID 0000.0001) %MON land_Tsrf_min_N              =  -5.2039780332989E+01
(PID.TID 0000.0001) %MON land_Tsrf_max_S              =   2.0184172713928E+01
(PID.TID 0000.0001) %MON land_Tsrf_max_T              =   2.0237771368741E+01
(PID.TID 0000.0001) %MON land_Tsrf_max_N              =   8.1483127136667E+00
(PID.TID 0000.0001) %MON land_Tgr1_ave_G              =  -7.2964170854290E+00
(PID.TID 0000.0001) %MON land_Tgr1_ave_S              =  -7.2286971009935E+00
(PID.TID 0000.0001) %MON land_Tgr1_ave_T              =   1.0055671104063E+01
(PID.TID 0000.0001) %MON land_Tgr1_ave_N              =  -1.8905599212516E+01
(PID.TID 0000.0001) %MON land_Tgr1_min_S              =  -3.9307106827096E+01
(PID.TID 0000.0001) %MON land_Tgr1_min_T              =  -3.2552165451920E+00
(PID.TID 0000.0001) %MON land_Tgr1_min_N              =  -5.4657431990436E+01
(PID.TID 0000.0001) %MON land_Tgr1_max_S              =   2.0184172713928E+01
(PID.TID 0000.0001) %MON land_Tgr1_max_T              =   2.0237771368741E+01
(PID.TID 0000.0001) %MON land_Tgr1_max_N              =   8.1483127136667E+00
(PID.TID 0000.0001) %MON land_Tgr2_ave_G              =   4.2032112054383E+00
(PID.TID 0000.0001) %MON land_Tgr2_ave_S              =  -1.8726072151931E+01
(PID.TID 0000.0001) %MON land_Tgr2_ave_T              =   2.2008849843901E+01
(PID.TID 0000.0001) %MON land_Tgr2_ave_N              =  -2.4875081164786E-01
(PID.TID 0000.0001) %MON land_Tgr2_min_S              =  -6.4750208814633E+01
(PID.TID 0000.0001) %MON land_Tgr2_min_T              =  -9.7035116105474E+00
(PID.TID 0000.0001) %MON land_Tgr2_min_N              =  -4.0200285329189E+01
(PID.TID 0000.0001) %MON land_Tgr2_max_S              =   2.3359825098367E+01
(PID.TID 0000.0001) %MON land_Tgr2_max_T              =   3.1350470532039E+01
(PID.TID 0000.0001) %MON land_Tgr2_max_N              =   2.9820034476220E+01
(PID.TID 0000.0001) %MON land_grdW_ave_G              =   4.8673552398762E-01
(PID.TID 0000.0001) %MON land_grdW_ave_S              =   3.0850193349674E-01
(PID.TID 0000.0001) %MON land_grdW_ave_T              =   5.6412747394796E-01
(PID.TID 0000.0001) %MON land_grdW_ave_N              =   4.9287334662328E-01
(PID.TID 0000.0001) %MON land_grdW_min_S              =   2.7769070869646E-02
(PID.TID 0000.0001) %MON land_grdW_min_T              =   0.0000000000000E+00
(PID.TID 0000.0001) %MON land_grdW_min_N              =   0.0000000000000E+00
(PID.TID 0000.0001) // =======================================================
(PID.TID 0000.0001) // End MONITOR Land statistics
(PID.TID 0000.0001) // =======================================================
(PID.TID 0000.0001) // =======================================================
(PID.TID 0000.0001) // Begin MONITOR Therm.SeaIce statistics
(PID.TID 0000.0001) // =======================================================
(PID.TID 0000.0001) %MON thSI_time_sec                =   1.2600000000000E+04
(PID.TID 0000.0001) %MON thSI_Ice_Area_G              =   2.2345047467668E+11
(PID.TID 0000.0001) %MON thSI_Ice_Area_S              =   0.0000000000000E+00
(PID.TID 0000.0001) %MON thSI_Ice_Area_N              =   2.2345047467668E+11
(PID.TID 0000.0001) %MON thSI_IceH_ave_G              =   1.1575553798261E-01
(PID.TID 0000.0001) %MON thSI_IceH_ave_S              =   0.0000000000000E+00
(PID.TID 0000.0001) %MON thSI_IceH_ave_N              =   1.1575553798261E-01
(PID.TID 0000.0001) %MON thSI_IceH_max_S              =   0.0000000000000E+00
(PID.TID 0000.0001) %MON thSI_IceH_max_N              =   1.4879103776441E-01
(PID.TID 0000.0001) %MON thSI_SnwH_ave_G              =   0.0000000000000E+00
(PID.TID 0000.0001) %MON thSI_SnwH_ave_S              =   0.0000000000000E+00
(PID.TID 0000.0001) %MON thSI_SnwH_ave_N              =   0.0000000000000E+00
(PID.TID 0000.0001) %MON thSI_SnwH_max_S              =   0.0000000000000E+00
(PID.TID 0000.0001) %MON thSI_SnwH_max_N              =   0.0000000000000E+00
(PID.TID 0000.0001) %MON thSI_TotEnerg_G              =  -7.9869246669025E+18
(PID.TID 0000.0001) %MON thSI_Tsrf_ave_G              =  -8.0852645222236E+00
(PID.TID 0000.0001) %MON thSI_Tsrf_ave_S              =   0.0000000000000E+00
(PID.TID 0000.0001) %MON thSI_Tsrf_ave_N              =  -8.0852645222236E+00
(PID.TID 0000.0001) %MON thSI_Tsrf_min_S              =   0.0000000000000E+00
(PID.TID 0000.0001) %MON thSI_Tsrf_min_N              =  -9.3196520514972E+00
(PID.TID 0000.0001) %MON thSI_Tsrf_max_S              =   0.0000000000000E+00
(PID.TID 0000.0001) %MON thSI_Tsrf_max_N              =  -2.9632093473993E+00
(PID.TID 0000.0001) %MON thSI_Tic1_ave_G              =  -6.6881251012995E+00
(PID.TID 0000.0001) %MON thSI_Tic1_ave_S              =   0.0000000000000E+00
(PID.TID 0000.0001) %MON thSI_Tic1_ave_N              =  -6.6881251012995E+00
(PID.TID 0000.0001) %MON thSI_Tic1_min_S              =   0.0000000000000E+00
(PID.TID 0000.0001) %MON thSI_Tic1_min_N              =  -6.9450613650884E+00
(PID.TID 0000.0001) %MON thSI_Tic1_max_S              =   0.0000000000000E+00
(PID.TID 0000.0001) %MON thSI_Tic1_max_N              =  -2.6165404448239E+00
(PID.TID 0000.0001) %MON thSI_Tic2_ave_G              =  -3.2176758736535E+00
(PID.TID 0000.0001) %MON thSI_Tic2_ave_S              =   0.0000000000000E+00
(PID.TID 0000.0001) %MON thSI_Tic2_ave_N              =  -3.2176758736535E+00
(PID.TID 0000.0001) %MON thSI_Tic2_min_S              =   0.0000000000000E+00
(PID.TID 0000.0001) %MON thSI_Tic2_min_N              =  -3.3293613236047E+00
(PID.TID 0000.0001) %MON thSI_Tic2_max_S              =   0.0000000000000E+00
(PID.TID 0000.0001) %MON thSI_Tic2_max_N              =  -1.9481424679026E+00
(PID.TID 0000.0001) // =======================================================
(PID.TID 0000.0001) // End MONITOR Therm.SeaIce statistics
(PID.TID 0000.0001) // =======================================================
 cg2d: Sum(rhs),rhsMax =  -6.98491930961609E-10  1.98520903733136E+04
(PID.TID 0000.0001)                    cg2d_init_res =    1.11383579884025E+04
(PID.TID 0000.0001)                       cg2d_iters =    16
(PID.TID 0000.0001)                         cg2d_res =    6.67576438781745E-11
(PID.TID 0000.0001) // =======================================================
(PID.TID 0000.0001) // Begin MONITOR dynamic field statistics
(PID.TID 0000.0001) // =======================================================
(PID.TID 0000.0001) %MON time_tsnumber                =                    29
(PID.TID 0000.0001) %MON time_secondsf                =   1.3050000000000E+04
(PID.TID 0000.0001) %MON dynstat_eta_max              =   3.3056678438935E+03
(PID.TID 0000.0001) %MON dynstat_eta_min              =  -7.6030321304564E+02
(PID.TID 0000.0001) %MON dynstat_eta_mean             =  -1.0924715291091E-13
(PID.TID 0000.0001) %MON dynstat_eta_sd               =   4.8120790523321E+02
(PID.TID 0000.0001) %MON dynstat_eta_del2             =   3.6198226398617E+01
(PID.TID 0000.0001) %MON dynstat_uvel_max             =   5.1565164705695E+00
(PID.TID 0000.0001) %MON dynstat_uvel_min             =  -5.5360786328151E+00
(PID.TID 0000.0001) %MON dynstat_uvel_mean            =   3.2622936601471E-02
(PID.TID 0000.0001) %MON dynstat_uvel_sd              =   8.0730581485695E-01
(PID.TID 0000.0001) %MON dynstat_uvel_del2            =   2.6641870217317E-02
(PID.TID 0000.0001) %MON dynstat_vvel_max             =   5.1885170586732E+00
(PID.TID 0000.0001) %MON dynstat_vvel_min             =  -5.8073950140910E+00
(PID.TID 0000.0001) %MON dynstat_vvel_mean            =   2.4414873951039E-02
(PID.TID 0000.0001) %MON dynstat_vvel_sd              =   8.1851073530615E-01
(PID.TID 0000.0001) %MON dynstat_vvel_del2            =   2.6304450929011E-02
(PID.TID 0000.0001) %MON dynstat_wvel_max             =   2.3559068591625E-01
(PID.TID 0000.0001) %MON dynstat_wvel_min             =  -1.1586411785776E-01
(PID.TID 0000.0001) %MON dynstat_wvel_mean            =   5.7909169247879E-04
(PID.TID 0000.0001) %MON dynstat_wvel_sd              =   1.0417941224912E-02
(PID.TID 0000.0001) %MON dynstat_wvel_del2            =   1.9923740284863E-03
(PID.TID 0000.0001) %MON dynstat_theta_max            =   4.3813562534763E+02
(PID.TID 0000.0001) %MON dynstat_theta_min            =   2.8278953028363E+02
(PID.TID 0000.0001) %MON dynstat_theta_mean           =   3.3167695092001E+02
(PID.TID 0000.0001) %MON dynstat_theta_sd             =   4.7461304222563E+01
(PID.TID 0000.0001) %MON dynstat_theta_del2           =   2.9207687152527E-02
(PID.TID 0000.0001) %MON dynstat_salt_max             =   4.7006719315824E+00
(PID.TID 0000.0001) %MON dynstat_salt_min             =  -1.9953538043479E-02
(PID.TID 0000.0001) %MON dynstat_salt_mean            =   1.0394333032811E-01
(PID.TID 0000.0001) %MON dynstat_salt_sd              =   4.0544803413728E-01
(PID.TID 0000.0001) %MON dynstat_salt_del2            =   1.2252258887074E-02
(PID.TID 0000.0001) %MON advcfl_uvel_max              =   7.7296869604519E-03
(PID.TID 0000.0001) %MON advcfl_vvel_max              =   8.3025772228294E-03
(PID.TID 0000.0001) %MON advcfl_wvel_max              =   3.8551203149932E-03
(PID.TID 0000.0001) %MON advcfl_W_hf_max              =   1.8444843270635E-02
(PID.TID 0000.0001) %MON pe_b_mean                    =  -1.2257891305480E+00
(PID.TID 0000.0001) %MON ke_max                       =   1.6806618404894E+01
(PID.TID 0000.0001) %MON ke_mean                      =   6.5774227646869E-01
(PID.TID 0000.0001) %MON ke_vol                       =   4.9523908919847E+19
(PID.TID 0000.0001) %MON vort_r_min                   =  -2.0434252529522E-05
(PID.TID 0000.0001) %MON vort_r_max                   =   1.1155158388399E-05
(PID.TID 0000.0001) %MON vort_a_mean                  =   6.7242814765289E-08
(PID.TID 0000.0001) %MON vort_a_sd                    =   8.4001321999829E-05
(PID.TID 0000.0001) %MON vort_p_mean                  =   6.8939472889238E-08
(PID.TID 0000.0001) %MON vort_p_sd                    =   9.1730445056520E-05
(PID.TID 0000.0001) %MON surfExpan_theta_mean         =  -5.7630261798914E-02
(PID.TID 0000.0001) %MON surfExpan_salt_mean          =  -1.3595400477880E-03
(PID.TID 0000.0001) %MON surfExpan_Heat_mean          =   4.5505950984825E+00
(PID.TID 0000.0001) %MON En_Budget_T2PE_mean          =  -8.8102681860854E+00
(PID.TID 0000.0001) // =======================================================
(PID.TID 0000.0001) // End MONITOR dynamic field statistics
(PID.TID 0000.0001) // =======================================================
(PID.TID 0000.0001) // =======================================================
(PID.TID 0000.0001) // Begin MONITOR Land statistics
(PID.TID 0000.0001) // =======================================================
(PID.TID 0000.0001) %MON land_time_sec                =   1.3050000000000E+04
(PID.TID 0000.0001) %MON land_SnwH_ave_G              =   1.5321985321156E-01
(PID.TID 0000.0001) %MON land_SnwH_ave_S              =   5.5903769139830E-01
(PID.TID 0000.0001) %MON land_SnwH_ave_T              =   0.0000000000000E+00
(PID.TID 0000.0001) %MON land_SnwH_ave_N              =   1.2389073104673E-01
(PID.TID 0000.0001) %MON land_SnwH_max_S              =   9.9998417871914E-01
(PID.TID 0000.0001) %MON land_SnwH_max_T              =   0.0000000000000E+00
(PID.TID 0000.0001) %MON land_SnwH_max_N              =   9.9999808518617E-01
(PID.TID 0000.0001) %MON land_TotEnerg_G              =  -6.3566826367664E+21
(PID.TID 0000.0001) %MON land_TotEnerg_S              =  -5.0024146894377E+21
(PID.TID 0000.0001) %MON land_TotEnerg_T              =   7.2749908403261E+21
(PID.TID 0000.0001) %MON land_TotEnerg_N              =  -8.6292587876548E+21
(PID.TID 0000.0001) %MON land_Tsrf_ave_G              =  -8.5314014903072E+00
(PID.TID 0000.0001) %MON land_Tsrf_ave_S              =  -7.3696361508148E+00
(PID.TID 0000.0001) %MON land_Tsrf_ave_T              =   9.9934538692700E+00
(PID.TID 0000.0001) %MON land_Tsrf_ave_N              =  -2.1278624690141E+01
(PID.TID 0000.0001) %MON land_Tsrf_min_S              =  -3.3669458483378E+01
(PID.TID 0000.0001) %MON land_Tsrf_min_T              =  -3.1518851485388E+00
(PID.TID 0000.0001) %MON land_Tsrf_min_N              =  -5.2035552019960E+01
(PID.TID 0000.0001) %MON land_Tsrf_max_S              =   2.0132925793599E+01
(PID.TID 0000.0001) %MON land_Tsrf_max_T              =   2.0141674109083E+01
(PID.TID 0000.0001) %MON land_Tsrf_max_N              =   8.0518409049372E+00
(PID.TID 0000.0001) %MON land_Tgr1_ave_G              =  -7.3291729895016E+00
(PID.TID 0000.0001) %MON land_Tgr1_ave_S              =  -7.2440999885177E+00
(PID.TID 0000.0001) %MON land_Tgr1_ave_T              =   9.9934538692700E+00
(PID.TID 0000.0001) %MON land_Tgr1_ave_N              =  -1.8924310919211E+01
(PID.TID 0000.0001) %MON land_Tgr1_min_S              =  -3.9317947335220E+01
(PID.TID 0000.0001) %MON land_Tgr1_min_T              =  -3.1518851485388E+00
(PID.TID 0000.0001) %MON land_Tgr1_min_N              =  -5.4645017323122E+01
(PID.TID 0000.0001) %MON land_Tgr1_max_S              =   2.0132925793599E+01
(PID.TID 0000.0001) %MON land_Tgr1_max_T              =   2.0141674109083E+01
(PID.TID 0000.0001) %MON land_Tgr1_max_N              =   8.0518409049372E+00
(PID.TID 0000.0001) %MON land_Tgr2_ave_G              =   4.2030345217990E+00
(PID.TID 0000.0001) %MON land_Tgr2_ave_S              =  -1.8725879624129E+01
(PID.TID 0000.0001) %MON land_Tgr2_ave_T              =   2.2008656179852E+01
(PID.TID 0000.0001) %MON land_Tgr2_ave_N              =  -2.4903592621126E-01
(PID.TID 0000.0001) %MON land_Tgr2_min_S              =  -6.4749780182161E+01
(PID.TID 0000.0001) %MON land_Tgr2_min_T              =  -9.7034288316834E+00
(PID.TID 0000.0001) %MON land_Tgr2_min_N              =  -4.0200519915303E+01
(PID.TID 0000.0001) %MON land_Tgr2_max_S              =   2.3359755442160E+01
(PID.TID 0000.0001) %MON land_Tgr2_max_T              =   3.1350030709726E+01
(PID.TID 0000.0001) %MON land_Tgr2_max_N              =   2.9819489577612E+01
(PID.TID 0000.0001) %MON land_grdW_ave_G              =   4.8672809108206E-01
(PID.TID 0000.0001) %MON land_grdW_ave_S              =   3.0849441588316E-01
(PID.TID 0000.0001) %MON land_grdW_ave_T              =   5.6410938424477E-01
(PID.TID 0000.0001) %MON land_grdW_ave_N              =   4.9287305749252E-01
(PID.TID 0000.0001) %MON land_grdW_min_S              =   2.7855664971047E-02
(PID.TID 0000.0001) %MON land_grdW_min_T              =   0.0000000000000E+00
(PID.TID 0000.0001) %MON land_grdW_min_N              =   0.0000000000000E+00
(PID.TID 0000.0001) // =======================================================
(PID.TID 0000.0001) // End MONITOR Land statistics
(PID.TID 0000.0001) // =======================================================
(PID.TID 0000.0001) // =======================================================
(PID.TID 0000.0001) // Begin MONITOR Therm.SeaIce statistics
(PID.TID 0000.0001) // =======================================================
(PID.TID 0000.0001) %MON thSI_time_sec                =   1.3050000000000E+04
(PID.TID 0000.0001) %MON thSI_Ice_Area_G              =   2.2586091094560E+11
(PID.TID 0000.0001) %MON thSI_Ice_Area_S              =   0.0000000000000E+00
(PID.TID 0000.0001) %MON thSI_Ice_Area_N              =   2.2586091094560E+11
(PID.TID 0000.0001) %MON thSI_IceH_ave_G              =   1.1504653412962E-01
(PID.TID 0000.0001) %MON thSI_IceH_ave_S              =   0.0000000000000E+00
(PID.TID 0000.0001) %MON thSI_IceH_ave_N              =   1.1504653412962E-01
(PID.TID 0000.0001) %MON thSI_IceH_max_S              =   0.0000000000000E+00
(PID.TID 0000.0001) %MON thSI_IceH_max_N              =   1.4891622075487E-01
(PID.TID 0000.0001) %MON thSI_SnwH_ave_G              =   0.0000000000000E+00
(PID.TID 0000.0001) %MON thSI_SnwH_ave_S              =   0.0000000000000E+00
(PID.TID 0000.0001) %MON thSI_SnwH_ave_N              =   0.0000000000000E+00
(PID.TID 0000.0001) %MON thSI_SnwH_max_S              =   0.0000000000000E+00
(PID.TID 0000.0001) %MON thSI_SnwH_max_N              =   0.0000000000000E+00
(PID.TID 0000.0001) %MON thSI_TotEnerg_G              =  -8.0258773488073E+18
(PID.TID 0000.0001) %MON thSI_Tsrf_ave_G              =  -8.0866174463026E+00
(PID.TID 0000.0001) %MON thSI_Tsrf_ave_S              =   0.0000000000000E+00
(PID.TID 0000.0001) %MON thSI_Tsrf_ave_N              =  -8.0866174463026E+00
(PID.TID 0000.0001) %MON thSI_Tsrf_min_S              =   0.0000000000000E+00
(PID.TID 0000.0001) %MON thSI_Tsrf_min_N              =  -9.3793929060284E+00
(PID.TID 0000.0001) %MON thSI_Tsrf_max_S              =   0.0000000000000E+00
(PID.TID 0000.0001) %MON thSI_Tsrf_max_N              =  -3.0153120989967E+00
(PID.TID 0000.0001) %MON thSI_Tic1_ave_G              =  -6.7436419864875E+00
(PID.TID 0000.0001) %MON thSI_Tic1_ave_S              =   0.0000000000000E+00
(PID.TID 0000.0001) %MON thSI_Tic1_ave_N              =  -6.7436419864875E+00
(PID.TID 0000.0001) %MON thSI_Tic1_min_S              =   0.0000000000000E+00
(PID.TID 0000.0001) %MON thSI_Tic1_min_N              =  -7.0200948632640E+00
(PID.TID 0000.0001) %MON thSI_Tic1_max_S              =   0.0000000000000E+00
(PID.TID 0000.0001) %MON thSI_Tic1_max_N              =  -2.6629409583815E+00
(PID.TID 0000.0001) %MON thSI_Tic2_ave_G              =  -3.2450684036506E+00
(PID.TID 0000.0001) %MON thSI_Tic2_ave_S              =   0.0000000000000E+00
(PID.TID 0000.0001) %MON thSI_Tic2_ave_N              =  -3.2450684036506E+00
(PID.TID 0000.0001) %MON thSI_Tic2_min_S              =   0.0000000000000E+00
(PID.TID 0000.0001) %MON thSI_Tic2_min_N              =  -3.3574670341180E+00
(PID.TID 0000.0001) %MON thSI_Tic2_max_S              =   0.0000000000000E+00
(PID.TID 0000.0001) %MON thSI_Tic2_max_N              =  -1.9644146372548E+00
(PID.TID 0000.0001) // =======================================================
(PID.TID 0000.0001) // End MONITOR Therm.SeaIce statistics
(PID.TID 0000.0001) // =======================================================
 cg2d: Sum(rhs),rhsMax =   5.82076609134674E-10  1.92228012999575E+04
(PID.TID 0000.0001)                    cg2d_init_res =    1.09991265131200E+04
(PID.TID 0000.0001)                       cg2d_iters =    16
(PID.TID 0000.0001)                         cg2d_res =    6.47962934946535E-11
(PID.TID 0000.0001) // =======================================================
(PID.TID 0000.0001) // Begin MONITOR dynamic field statistics
(PID.TID 0000.0001) // =======================================================
(PID.TID 0000.0001) %MON time_tsnumber                =                    30
(PID.TID 0000.0001) %MON time_secondsf                =   1.3500000000000E+04
(PID.TID 0000.0001) %MON dynstat_eta_max              =   3.2282143720659E+03
(PID.TID 0000.0001) %MON dynstat_eta_min              =  -7.5919221557076E+02
(PID.TID 0000.0001) %MON dynstat_eta_mean             =   6.4263031124062E-14
(PID.TID 0000.0001) %MON dynstat_eta_sd               =   4.7113239761047E+02
(PID.TID 0000.0001) %MON dynstat_eta_del2             =   3.6155919946904E+01
(PID.TID 0000.0001) %MON dynstat_uvel_max             =   5.0027301761060E+00
(PID.TID 0000.0001) %MON dynstat_uvel_min             =  -5.3413025771529E+00
(PID.TID 0000.0001) %MON dynstat_uvel_mean            =   3.9269297594440E-02
(PID.TID 0000.0001) %MON dynstat_uvel_sd              =   7.9915279193405E-01
(PID.TID 0000.0001) %MON dynstat_uvel_del2            =   2.7215838094305E-02
(PID.TID 0000.0001) %MON dynstat_vvel_max             =   5.1239155840608E+00
(PID.TID 0000.0001) %MON dynstat_vvel_min             =  -5.6384599673299E+00
(PID.TID 0000.0001) %MON dynstat_vvel_mean            =   2.3626042662285E-02
(PID.TID 0000.0001) %MON dynstat_vvel_sd              =   8.1644907553058E-01
(PID.TID 0000.0001) %MON dynstat_vvel_del2            =   2.6993603892352E-02
(PID.TID 0000.0001) %MON dynstat_wvel_max             =   2.2190436296958E-01
(PID.TID 0000.0001) %MON dynstat_wvel_min             =  -1.0414748794343E-01
(PID.TID 0000.0001) %MON dynstat_wvel_mean            =   5.6260443776476E-04
(PID.TID 0000.0001) %MON dynstat_wvel_sd              =   1.0270961297767E-02
(PID.TID 0000.0001) %MON dynstat_wvel_del2            =   2.0232068764451E-03
(PID.TID 0000.0001) %MON dynstat_theta_max            =   4.3813040845811E+02
(PID.TID 0000.0001) %MON dynstat_theta_min            =   2.8257461122714E+02
(PID.TID 0000.0001) %MON dynstat_theta_mean           =   3.3167475093999E+02
(PID.TID 0000.0001) %MON dynstat_theta_sd             =   4.7463374352927E+01
(PID.TID 0000.0001) %MON dynstat_theta_del2           =   3.0133853245826E-02
(PID.TID 0000.0001) %MON dynstat_salt_max             =   4.7403852207229E+00
(PID.TID 0000.0001) %MON dynstat_salt_min             =  -2.2141176007772E-02
(PID.TID 0000.0001) %MON dynstat_salt_mean            =   1.0727006482681E-01
(PID.TID 0000.0001) %MON dynstat_salt_sd              =   4.1695787910999E-01
(PID.TID 0000.0001) %MON dynstat_salt_del2            =   1.2568190705585E-02
(PID.TID 0000.0001) %MON advcfl_uvel_max              =   7.4911160868915E-03
(PID.TID 0000.0001) %MON advcfl_vvel_max              =   8.0610582168082E-03
(PID.TID 0000.0001) %MON advcfl_wvel_max              =   3.6562048047372E-03
(PID.TID 0000.0001) %MON advcfl_W_hf_max              =   1.8876857380824E-02
(PID.TID 0000.0001) %MON pe_b_mean                    =  -1.2245798215152E+00
(PID.TID 0000.0001) %MON ke_max                       =   1.5820752042520E+01
(PID.TID 0000.0001) %MON ke_mean                      =   6.4977153411373E-01
(PID.TID 0000.0001) %MON ke_vol                       =   4.9523908919847E+19
(PID.TID 0000.0001) %MON vort_r_min                   =  -2.0088319026225E-05
(PID.TID 0000.0001) %MON vort_r_max                   =   1.1692615101407E-05
(PID.TID 0000.0001) %MON vort_a_mean                  =   6.7242814765321E-08
(PID.TID 0000.0001) %MON vort_a_sd                    =   8.4003627895411E-05
(PID.TID 0000.0001) %MON vort_p_mean                  =   6.8939474484147E-08
(PID.TID 0000.0001) %MON vort_p_sd                    =   9.1713723338852E-05
(PID.TID 0000.0001) %MON surfExpan_theta_mean         =  -5.5692535194481E-02
(PID.TID 0000.0001) %MON surfExpan_salt_mean          =  -1.4508137380574E-03
(PID.TID 0000.0001) %MON surfExpan_Heat_mean          =   4.4044042576136E+00
(PID.TID 0000.0001) %MON En_Budget_T2PE_mean          =  -8.5270030733688E+00
(PID.TID 0000.0001) // =======================================================
(PID.TID 0000.0001) // End MONITOR dynamic field statistics
(PID.TID 0000.0001) // =======================================================
(PID.TID 0000.0001) // =======================================================
(PID.TID 0000.0001) // Begin MONITOR Land statistics
(PID.TID 0000.0001) // =======================================================
(PID.TID 0000.0001) %MON land_time_sec                =   1.3500000000000E+04
(PID.TID 0000.0001) %MON land_SnwH_ave_G              =   1.5321890725336E-01
(PID.TID 0000.0001) %MON land_SnwH_ave_S              =   5.5903682549782E-01
(PID.TID 0000.0001) %MON land_SnwH_ave_T              =   0.0000000000000E+00
(PID.TID 0000.0001) %MON land_SnwH_ave_N              =   1.2388912743523E-01
(PID.TID 0000.0001) %MON land_SnwH_max_S              =   9.9998361738927E-01
(PID.TID 0000.0001) %MON land_SnwH_max_T              =   0.0000000000000E+00
(PID.TID 0000.0001) %MON land_SnwH_max_N              =   9.9999802139958E-01
(PID.TID 0000.0001) %MON land_TotEnerg_G              =  -6.3577888850041E+21
(PID.TID 0000.0001) %MON land_TotEnerg_S              =  -5.0024391012123E+21
(PID.TID 0000.0001) %MON land_TotEnerg_T              =   7.2744612617748E+21
(PID.TID 0000.0001) %MON land_TotEnerg_N              =  -8.6298110455666E+21
(PID.TID 0000.0001) %MON land_Tsrf_ave_G              =  -8.5579507343109E+00
(PID.TID 0000.0001) %MON land_Tsrf_ave_S              =  -7.3772717619618E+00
(PID.TID 0000.0001) %MON land_Tsrf_ave_T              =   9.9364525627404E+00
(PID.TID 0000.0001) %MON land_Tsrf_ave_N              =  -2.1290974409626E+01
(PID.TID 0000.0001) %MON land_Tsrf_min_S              =  -3.3644267859574E+01
(PID.TID 0000.0001) %MON land_Tsrf_min_T              =  -3.0519817264130E+00
(PID.TID 0000.0001) %MON land_Tsrf_min_N              =  -5.2031299824503E+01
(PID.TID 0000.0001) %MON land_Tsrf_max_S              =   2.0089311155839E+01
(PID.TID 0000.0001) %MON land_Tsrf_max_T              =   2.0056489776234E+01
(PID.TID 0000.0001) %MON land_Tsrf_max_N              =   7.9617412793333E+00
(PID.TID 0000.0001) %MON land_Tgr1_ave_G              =  -7.3593448843669E+00
(PID.TID 0000.0001) %MON land_Tgr1_ave_S              =  -7.2574964092032E+00
(PID.TID 0000.0001) %MON land_Tgr1_ave_T              =   9.9364525627404E+00
(PID.TID 0000.0001) %MON land_Tgr1_ave_N              =  -1.8942008783615E+01
(PID.TID 0000.0001) %MON land_Tgr1_min_S              =  -3.9328746574506E+01
(PID.TID 0000.0001) %MON land_Tgr1_min_T              =  -3.0519817264130E+00
(PID.TID 0000.0001) %MON land_Tgr1_min_N              =  -5.4632619022507E+01
(PID.TID 0000.0001) %MON land_Tgr1_max_S              =   2.0089311155839E+01
(PID.TID 0000.0001) %MON land_Tgr1_max_T              =   2.0056489776234E+01
(PID.TID 0000.0001) %MON land_Tgr1_max_N              =   7.9617412793333E+00
(PID.TID 0000.0001) %MON land_Tgr2_ave_G              =   4.2028574179762E+00
(PID.TID 0000.0001) %MON land_Tgr2_ave_S              =  -1.8725687310826E+01
(PID.TID 0000.0001) %MON land_Tgr2_ave_T              =   2.2008461737775E+01
(PID.TID 0000.0001) %MON land_Tgr2_ave_N              =  -2.4932128872276E-01
(PID.TID 0000.0001) %MON land_Tgr2_min_S              =  -6.4749351754818E+01
(PID.TID 0000.0001) %MON land_Tgr2_min_T              =  -9.7033447918692E+00
(PID.TID 0000.0001) %MON land_Tgr2_min_N              =  -4.0200754269232E+01
(PID.TID 0000.0001) %MON land_Tgr2_max_S              =   2.3359684671970E+01
(PID.TID 0000.0001) %MON land_Tgr2_max_T              =   3.1349588873498E+01
(PID.TID 0000.0001) %MON land_Tgr2_max_N              =   2.9818940553591E+01
(PID.TID 0000.0001) %MON land_grdW_ave_G              =   4.8672072840029E-01
(PID.TID 0000.0001) %MON land_grdW_ave_S              =   3.0848694330609E-01
(PID.TID 0000.0001) %MON land_grdW_ave_T              =   5.6409148124405E-01
(PID.TID 0000.0001) %MON land_grdW_ave_N              =   4.9287276897513E-01
(PID.TID 0000.0001) %MON land_grdW_min_S              =   2.7941995762507E-02
(PID.TID 0000.0001) %MON land_grdW_min_T              =   0.0000000000000E+00
(PID.TID 0000.0001) %MON land_grdW_min_N              =   0.0000000000000E+00
(PID.TID 0000.0001) // =======================================================
(PID.TID 0000.0001) // End MONITOR Land statistics
(PID.TID 0000.0001) // =======================================================
(PID.TID 0000.0001) // =======================================================
(PID.TID 0000.0001) // Begin MONITOR Therm.SeaIce statistics
(PID.TID 0000.0001) // =======================================================
(PID.TID 0000.0001) %MON thSI_time_sec                =   1.3500000000000E+04
(PID.TID 0000.0001) %MON thSI_Ice_Area_G              =   2.2819869140883E+11
(PID.TID 0000.0001) %MON thSI_Ice_Area_S              =   0.0000000000000E+00
(PID.TID 0000.0001) %MON thSI_Ice_Area_N              =   2.2819869140883E+11
(PID.TID 0000.0001) %MON thSI_IceH_ave_G              =   1.1439290249439E-01
(PID.TID 0000.0001) %MON thSI_IceH_ave_S              =   0.0000000000000E+00
(PID.TID 0000.0001) %MON thSI_IceH_ave_N              =   1.1439290249439E-01
(PID.TID 0000.0001) %MON thSI_IceH_max_S              =   0.0000000000000E+00
(PID.TID 0000.0001) %MON thSI_IceH_max_N              =   1.4904403713462E-01
(PID.TID 0000.0001) %MON thSI_SnwH_ave_G              =   0.0000000000000E+00
(PID.TID 0000.0001) %MON thSI_SnwH_ave_S              =   0.0000000000000E+00
(PID.TID 0000.0001) %MON thSI_SnwH_ave_N              =   0.0000000000000E+00
(PID.TID 0000.0001) %MON thSI_SnwH_max_S              =   0.0000000000000E+00
(PID.TID 0000.0001) %MON thSI_SnwH_max_N              =   0.0000000000000E+00
(PID.TID 0000.0001) %MON thSI_TotEnerg_G              =  -8.0648977063493E+18
(PID.TID 0000.0001) %MON thSI_Tsrf_ave_G              =  -8.0857781429583E+00
(PID.TID 0000.0001) %MON thSI_Tsrf_ave_S              =   0.0000000000000E+00
(PID.TID 0000.0001) %MON thSI_Tsrf_ave_N              =  -8.0857781429583E+00
(PID.TID 0000.0001) %MON thSI_Tsrf_min_S              =   0.0000000000000E+00
(PID.TID 0000.0001) %MON thSI_Tsrf_min_N              =  -9.4343287122208E+00
(PID.TID 0000.0001) %MON thSI_Tsrf_max_S              =   0.0000000000000E+00
(PID.TID 0000.0001) %MON thSI_Tsrf_max_N              =  -3.0486515100358E+00
(PID.TID 0000.0001) %MON thSI_Tic1_ave_G              =  -6.7935066174201E+00
(PID.TID 0000.0001) %MON thSI_Tic1_ave_S              =   0.0000000000000E+00
(PID.TID 0000.0001) %MON thSI_Tic1_ave_N              =  -6.7935066174201E+00
(PID.TID 0000.0001) %MON thSI_Tic1_min_S              =   0.0000000000000E+00
(PID.TID 0000.0001) %MON thSI_Tic1_min_N              =  -7.0894322398282E+00
(PID.TID 0000.0001) %MON thSI_Tic1_max_S              =   0.0000000000000E+00
(PID.TID 0000.0001) %MON thSI_Tic1_max_N              =  -2.6902564583427E+00
(PID.TID 0000.0001) %MON thSI_Tic2_ave_G              =  -3.2698252855662E+00
(PID.TID 0000.0001) %MON thSI_Tic2_ave_S              =   0.0000000000000E+00
(PID.TID 0000.0001) %MON thSI_Tic2_ave_N              =  -3.2698252855662E+00
(PID.TID 0000.0001) %MON thSI_Tic2_min_S              =   0.0000000000000E+00
(PID.TID 0000.0001) %MON thSI_Tic2_min_N              =  -3.3829094626237E+00
(PID.TID 0000.0001) %MON thSI_Tic2_max_S              =   0.0000000000000E+00
(PID.TID 0000.0001) %MON thSI_Tic2_max_N              =  -1.9737652758493E+00
(PID.TID 0000.0001) // =======================================================
(PID.TID 0000.0001) // End MONITOR Therm.SeaIce statistics
(PID.TID 0000.0001) // =======================================================
 cg2d: Sum(rhs),rhsMax =   1.28056854009628E-09  1.86936454079186E+04
(PID.TID 0000.0001)                    cg2d_init_res =    1.08423849272432E+04
(PID.TID 0000.0001)                       cg2d_iters =    16
(PID.TID 0000.0001)                         cg2d_res =    6.31802499173384E-11
(PID.TID 0000.0001) // =======================================================
(PID.TID 0000.0001) // Begin MONITOR dynamic field statistics
(PID.TID 0000.0001) // =======================================================
(PID.TID 0000.0001) %MON time_tsnumber                =                    31
(PID.TID 0000.0001) %MON time_secondsf                =   1.3950000000000E+04
(PID.TID 0000.0001) %MON dynstat_eta_max              =   3.1519194765201E+03
(PID.TID 0000.0001) %MON dynstat_eta_min              =  -7.5871349063689E+02
(PID.TID 0000.0001) %MON dynstat_eta_mean             =   4.4984121786844E-14
(PID.TID 0000.0001) %MON dynstat_eta_sd               =   4.6180652168606E+02
(PID.TID 0000.0001) %MON dynstat_eta_del2             =   3.6146272799822E+01
(PID.TID 0000.0001) %MON dynstat_uvel_max             =   4.8506174472473E+00
(PID.TID 0000.0001) %MON dynstat_uvel_min             =  -5.1788337806381E+00
(PID.TID 0000.0001) %MON dynstat_uvel_mean            =   4.6137240372802E-02
(PID.TID 0000.0001) %MON dynstat_uvel_sd              =   7.9066746879619E-01
(PID.TID 0000.0001) %MON dynstat_uvel_del2            =   2.7827557927903E-02
(PID.TID 0000.0001) %MON dynstat_vvel_max             =   5.0248880858897E+00
(PID.TID 0000.0001) %MON dynstat_vvel_min             =  -5.4429977817358E+00
(PID.TID 0000.0001) %MON dynstat_vvel_mean            =   2.2979553182360E-02
(PID.TID 0000.0001) %MON dynstat_vvel_sd              =   8.1278868393681E-01
(PID.TID 0000.0001) %MON dynstat_vvel_del2            =   2.7655564593902E-02
(PID.TID 0000.0001) %MON dynstat_wvel_max             =   2.1530066005686E-01
(PID.TID 0000.0001) %MON dynstat_wvel_min             =  -9.1423493986579E-02
(PID.TID 0000.0001) %MON dynstat_wvel_mean            =   5.3563270040974E-04
(PID.TID 0000.0001) %MON dynstat_wvel_sd              =   1.0097747676056E-02
(PID.TID 0000.0001) %MON dynstat_wvel_del2            =   2.0491703352083E-03
(PID.TID 0000.0001) %MON dynstat_theta_max            =   4.3810483600741E+02
(PID.TID 0000.0001) %MON dynstat_theta_min            =   2.8236057792275E+02
(PID.TID 0000.0001) %MON dynstat_theta_mean           =   3.3167252370732E+02
(PID.TID 0000.0001) %MON dynstat_theta_sd             =   4.7465451830265E+01
(PID.TID 0000.0001) %MON dynstat_theta_del2           =   3.1060771322972E-02
(PID.TID 0000.0001) %MON dynstat_salt_max             =   4.7774879576452E+00
(PID.TID 0000.0001) %MON dynstat_salt_min             =  -2.4389588363080E-02
(PID.TID 0000.0001) %MON dynstat_salt_mean            =   1.1058651437470E-01
(PID.TID 0000.0001) %MON dynstat_salt_sd              =   4.2836925537481E-01
(PID.TID 0000.0001) %MON dynstat_salt_del2            =   1.2884907012830E-02
(PID.TID 0000.0001) %MON advcfl_uvel_max              =   7.2703621661003E-03
(PID.TID 0000.0001) %MON advcfl_vvel_max              =   7.7816145271502E-03
(PID.TID 0000.0001) %MON advcfl_wvel_max              =   3.5231017100213E-03
(PID.TID 0000.0001) %MON advcfl_W_hf_max              =   1.9132239112773E-02
(PID.TID 0000.0001) %MON pe_b_mean                    =  -1.2216982382906E+00
(PID.TID 0000.0001) %MON ke_max                       =   1.5125981231714E+01
(PID.TID 0000.0001) %MON ke_mean                      =   6.4037473889472E-01
(PID.TID 0000.0001) %MON ke_vol                       =   4.9523908919847E+19
(PID.TID 0000.0001) %MON vort_r_min                   =  -1.9636241555615E-05
(PID.TID 0000.0001) %MON vort_r_max                   =   1.2252800439053E-05
(PID.TID 0000.0001) %MON vort_a_mean                  =   6.7242814765336E-08
(PID.TID 0000.0001) %MON vort_a_sd                    =   8.4005870774651E-05
(PID.TID 0000.0001) %MON vort_p_mean                  =   6.8939476076464E-08
(PID.TID 0000.0001) %MON vort_p_sd                    =   9.1698103675985E-05
(PID.TID 0000.0001) %MON surfExpan_theta_mean         =  -5.2762258963582E-02
(PID.TID 0000.0001) %MON surfExpan_salt_mean          =  -1.5357924078734E-03
(PID.TID 0000.0001) %MON surfExpan_Heat_mean          =   4.1736455919340E+00
(PID.TID 0000.0001) %MON En_Budget_T2PE_mean          =  -8.0858522079456E+00
(PID.TID 0000.0001) // =======================================================
(PID.TID 0000.0001) // End MONITOR dynamic field statistics
(PID.TID 0000.0001) // =======================================================
(PID.TID 0000.0001) // =======================================================
(PID.TID 0000.0001) // Begin MONITOR Land statistics
(PID.TID 0000.0001) // =======================================================
(PID.TID 0000.0001) %MON land_time_sec                =   1.3950000000000E+04
(PID.TID 0000.0001) %MON land_SnwH_ave_G              =   1.5321796373830E-01
(PID.TID 0000.0001) %MON land_SnwH_ave_S              =   5.5903596471846E-01
(PID.TID 0000.0001) %MON land_SnwH_ave_T              =   0.0000000000000E+00
(PID.TID 0000.0001) %MON land_SnwH_ave_N              =   1.2388752702960E-01
(PID.TID 0000.0001) %MON land_SnwH_max_S              =   9.9998305477829E-01
(PID.TID 0000.0001) %MON land_SnwH_max_T              =   0.0000000000000E+00
(PID.TID 0000.0001) %MON land_SnwH_max_N              =   9.9999795756924E-01
(PID.TID 0000.0001) %MON land_TotEnerg_G              =  -6.3588427323308E+21
(PID.TID 0000.0001) %MON land_TotEnerg_S              =  -5.0024574581255E+21
(PID.TID 0000.0001) %MON land_TotEnerg_T              =   7.2739687766645E+21
(PID.TID 0000.0001) %MON land_TotEnerg_N              =  -8.6303540508698E+21
(PID.TID 0000.0001) %MON land_Tsrf_ave_G              =  -8.5826377855196E+00
(PID.TID 0000.0001) %MON land_Tsrf_ave_S              =  -7.3842996705471E+00
(PID.TID 0000.0001) %MON land_Tsrf_ave_T              =   9.8839583954884E+00
(PID.TID 0000.0001) %MON land_Tsrf_ave_N              =  -2.1302821204803E+01
(PID.TID 0000.0001) %MON land_Tsrf_min_S              =  -3.3617320938810E+01
(PID.TID 0000.0001) %MON land_Tsrf_min_T              =  -2.9554648472232E+00
(PID.TID 0000.0001) %MON land_Tsrf_min_N              =  -5.2026796759135E+01
(PID.TID 0000.0001) %MON land_Tsrf_max_S              =   2.0052557774756E+01
(PID.TID 0000.0001) %MON land_Tsrf_max_T              =   1.9981200861646E+01
(PID.TID 0000.0001) %MON land_Tsrf_max_N              =   7.8777344499587E+00
(PID.TID 0000.0001) %MON land_Tgr1_ave_G              =  -7.3873180666240E+00
(PID.TID 0000.0001) %MON land_Tgr1_ave_S              =  -7.2691291593018E+00
(PID.TID 0000.0001) %MON land_Tgr1_ave_T              =   9.8839583954884E+00
(PID.TID 0000.0001) %MON land_Tgr1_ave_N              =  -1.8958908309871E+01
(PID.TID 0000.0001) %MON land_Tgr1_min_S              =  -3.9339502720799E+01
(PID.TID 0000.0001) %MON land_Tgr1_min_T              =  -2.9554648472232E+00
(PID.TID 0000.0001) %MON land_Tgr1_min_N              =  -5.4620236817363E+01
(PID.TID 0000.0001) %MON land_Tgr1_max_S              =   2.0052557774756E+01
(PID.TID 0000.0001) %MON land_Tgr1_max_T              =   1.9981200861646E+01
(PID.TID 0000.0001) %MON land_Tgr1_max_N              =   7.8777344499587E+00
(PID.TID 0000.0001) %MON land_Tgr2_ave_G              =   4.2026799304460E+00
(PID.TID 0000.0001) %MON land_Tgr2_ave_S              =  -1.8725495184027E+01
(PID.TID 0000.0001) %MON land_Tgr2_ave_T              =   2.2008266591793E+01
(PID.TID 0000.0001) %MON land_Tgr2_ave_N              =  -2.4960688509426E-01
(PID.TID 0000.0001) %MON land_Tgr2_min_S              =  -6.4748923531834E+01
(PID.TID 0000.0001) %MON land_Tgr2_min_T              =  -9.7032595339148E+00
(PID.TID 0000.0001) %MON land_Tgr2_min_N              =  -4.0200988391879E+01
(PID.TID 0000.0001) %MON land_Tgr2_max_S              =   2.3359612904621E+01
(PID.TID 0000.0001) %MON land_Tgr2_max_T              =   3.1349145152566E+01
(PID.TID 0000.0001) %MON land_Tgr2_max_N              =   2.9818387564112E+01
(PID.TID 0000.0001) %MON land_grdW_ave_G              =   4.8671342883321E-01
(PID.TID 0000.0001) %MON land_grdW_ave_S              =   3.0847951057640E-01
(PID.TID 0000.0001) %MON land_grdW_ave_T              =   5.6407374647420E-01
(PID.TID 0000.0001) %MON land_grdW_ave_N              =   4.9287248092670E-01
(PID.TID 0000.0001) %MON land_grdW_min_S              =   2.8028018060703E-02
(PID.TID 0000.0001) %MON land_grdW_min_T              =   0.0000000000000E+00
(PID.TID 0000.0001) %MON land_grdW_min_N              =   0.0000000000000E+00
(PID.TID 0000.0001) // =======================================================
(PID.TID 0000.0001) // End MONITOR Land statistics
(PID.TID 0000.0001) // =======================================================
(PID.TID 0000.0001) // =======================================================
(PID.TID 0000.0001) // Begin MONITOR Therm.SeaIce statistics
(PID.TID 0000.0001) // =======================================================
(PID.TID 0000.0001) %MON thSI_time_sec                =   1.3950000000000E+04
(PID.TID 0000.0001) %MON thSI_Ice_Area_G              =   2.3046771693219E+11
(PID.TID 0000.0001) %MON thSI_Ice_Area_S              =   0.0000000000000E+00
(PID.TID 0000.0001) %MON thSI_Ice_Area_N              =   2.3046771693219E+11
(PID.TID 0000.0001) %MON thSI_IceH_ave_G              =   1.1379013025098E-01
(PID.TID 0000.0001) %MON thSI_IceH_ave_S              =   0.0000000000000E+00
(PID.TID 0000.0001) %MON thSI_IceH_ave_N              =   1.1379013025098E-01
(PID.TID 0000.0001) %MON thSI_IceH_max_S              =   0.0000000000000E+00
(PID.TID 0000.0001) %MON thSI_IceH_max_N              =   1.4917428308217E-01
(PID.TID 0000.0001) %MON thSI_SnwH_ave_G              =   0.0000000000000E+00
(PID.TID 0000.0001) %MON thSI_SnwH_ave_S              =   0.0000000000000E+00
(PID.TID 0000.0001) %MON thSI_SnwH_ave_N              =   0.0000000000000E+00
(PID.TID 0000.0001) %MON thSI_SnwH_max_S              =   0.0000000000000E+00
(PID.TID 0000.0001) %MON thSI_SnwH_max_N              =   0.0000000000000E+00
(PID.TID 0000.0001) %MON thSI_TotEnerg_G              =  -8.1039817145914E+18
(PID.TID 0000.0001) %MON thSI_Tsrf_ave_G              =  -8.0830725629940E+00
(PID.TID 0000.0001) %MON thSI_Tsrf_ave_S              =   0.0000000000000E+00
(PID.TID 0000.0001) %MON thSI_Tsrf_ave_N              =  -8.0830725629940E+00
(PID.TID 0000.0001) %MON thSI_Tsrf_min_S              =   0.0000000000000E+00
(PID.TID 0000.0001) %MON thSI_Tsrf_min_N              =  -9.4846927719438E+00
(PID.TID 0000.0001) %MON thSI_Tsrf_max_S              =   0.0000000000000E+00
(PID.TID 0000.0001) %MON thSI_Tsrf_max_N              =  -3.0757785875766E+00
(PID.TID 0000.0001) %MON thSI_Tic1_ave_G              =  -6.8381140457595E+00
(PID.TID 0000.0001) %MON thSI_Tic1_ave_S              =   0.0000000000000E+00
(PID.TID 0000.0001) %MON thSI_Tic1_ave_N              =  -6.8381140457595E+00
(PID.TID 0000.0001) %MON thSI_Tic1_min_S              =   0.0000000000000E+00
(PID.TID 0000.0001) %MON thSI_Tic1_min_N              =  -7.1533744790080E+00
(PID.TID 0000.0001) %MON thSI_Tic1_max_S              =   0.0000000000000E+00
(PID.TID 0000.0001) %MON thSI_Tic1_max_N              =  -2.7113212382700E+00
(PID.TID 0000.0001) %MON thSI_Tic2_ave_G              =  -3.2921755190194E+00
(PID.TID 0000.0001) %MON thSI_Tic2_ave_S              =   0.0000000000000E+00
(PID.TID 0000.0001) %MON thSI_Tic2_ave_N              =  -3.2921755190194E+00
(PID.TID 0000.0001) %MON thSI_Tic2_min_S              =   0.0000000000000E+00
(PID.TID 0000.0001) %MON thSI_Tic2_min_N              =  -3.4059286588914E+00
(PID.TID 0000.0001) %MON thSI_Tic2_max_S              =   0.0000000000000E+00
(PID.TID 0000.0001) %MON thSI_Tic2_max_N              =  -1.9808418541459E+00
(PID.TID 0000.0001) // =======================================================
(PID.TID 0000.0001) // End MONITOR Therm.SeaIce statistics
(PID.TID 0000.0001) // =======================================================
 cg2d: Sum(rhs),rhsMax =   1.04773789644241E-09  1.82574319626333E+04
(PID.TID 0000.0001)                    cg2d_init_res =    1.06702943402976E+04
(PID.TID 0000.0001)                       cg2d_iters =    16
(PID.TID 0000.0001)                         cg2d_res =    6.17763963020387E-11
(PID.TID 0000.0001) // =======================================================
(PID.TID 0000.0001) // Begin MONITOR dynamic field statistics
(PID.TID 0000.0001) // =======================================================
(PID.TID 0000.0001) %MON time_tsnumber                =                    32
(PID.TID 0000.0001) %MON time_secondsf                =   1.4400000000000E+04
(PID.TID 0000.0001) %MON dynstat_eta_max              =   3.0800449500915E+03
(PID.TID 0000.0001) %MON dynstat_eta_min              =  -7.5890709363672E+02
(PID.TID 0000.0001) %MON dynstat_eta_mean             =   7.0689334236469E-14
(PID.TID 0000.0001) %MON dynstat_eta_sd               =   4.5339544958239E+02
(PID.TID 0000.0001) %MON dynstat_eta_del2             =   3.6150295030741E+01
(PID.TID 0000.0001) %MON dynstat_uvel_max             =   4.6947879150474E+00
(PID.TID 0000.0001) %MON dynstat_uvel_min             =  -4.9540278993384E+00
(PID.TID 0000.0001) %MON dynstat_uvel_mean            =   5.3127205307731E-02
(PID.TID 0000.0001) %MON dynstat_uvel_sd              =   7.8202779938576E-01
(PID.TID 0000.0001) %MON dynstat_uvel_del2            =   2.8474544127058E-02
(PID.TID 0000.0001) %MON dynstat_vvel_max             =   4.8966482107258E+00
(PID.TID 0000.0001) %MON dynstat_vvel_min             =  -5.2328856364945E+00
(PID.TID 0000.0001) %MON dynstat_vvel_mean            =   2.2541284704560E-02
(PID.TID 0000.0001) %MON dynstat_vvel_sd              =   8.0761725252619E-01
(PID.TID 0000.0001) %MON dynstat_vvel_del2            =   2.8308801903324E-02
(PID.TID 0000.0001) %MON dynstat_wvel_max             =   2.0854095695082E-01
(PID.TID 0000.0001) %MON dynstat_wvel_min             =  -9.1303384387653E-02
(PID.TID 0000.0001) %MON dynstat_wvel_mean            =   5.0069240649113E-04
(PID.TID 0000.0001) %MON dynstat_wvel_sd              =   9.9075248605121E-03
(PID.TID 0000.0001) %MON dynstat_wvel_del2            =   2.0745022632922E-03
(PID.TID 0000.0001) %MON dynstat_theta_max            =   4.3806213989689E+02
(PID.TID 0000.0001) %MON dynstat_theta_min            =   2.8214726127105E+02
(PID.TID 0000.0001) %MON dynstat_theta_mean           =   3.3167027168460E+02
(PID.TID 0000.0001) %MON dynstat_theta_sd             =   4.7467537079510E+01
(PID.TID 0000.0001) %MON dynstat_theta_del2           =   3.1988125427567E-02
(PID.TID 0000.0001) %MON dynstat_salt_max             =   4.8124160189705E+00
(PID.TID 0000.0001) %MON dynstat_salt_min             =  -2.6697247197064E-02
(PID.TID 0000.0001) %MON dynstat_salt_mean            =   1.1389287255112E-01
(PID.TID 0000.0001) %MON dynstat_salt_sd              =   4.3968406729818E-01
(PID.TID 0000.0001) %MON dynstat_salt_del2            =   1.3200090173233E-02
(PID.TID 0000.0001) %MON advcfl_uvel_max              =   6.9867506227692E-03
(PID.TID 0000.0001) %MON advcfl_vvel_max              =   7.4812264345396E-03
(PID.TID 0000.0001) %MON advcfl_wvel_max              =   3.4124883864680E-03
(PID.TID 0000.0001) %MON advcfl_W_hf_max              =   1.9227967873247E-02
(PID.TID 0000.0001) %MON pe_b_mean                    =  -1.2173698224943E+00
(PID.TID 0000.0001) %MON ke_max                       =   1.4277000144221E+01
(PID.TID 0000.0001) %MON ke_mean                      =   6.2978714856232E-01
(PID.TID 0000.0001) %MON ke_vol                       =   4.9523908919847E+19
(PID.TID 0000.0001) %MON vort_r_min                   =  -1.9111390089495E-05
(PID.TID 0000.0001) %MON vort_r_max                   =   1.2837799091974E-05
(PID.TID 0000.0001) %MON vort_a_mean                  =   6.7242814765323E-08
(PID.TID 0000.0001) %MON vort_a_sd                    =   8.4008045736826E-05
(PID.TID 0000.0001) %MON vort_p_mean                  =   6.8939477598583E-08
(PID.TID 0000.0001) %MON vort_p_sd                    =   9.1683663958045E-05
(PID.TID 0000.0001) %MON surfExpan_theta_mean         =  -4.9093351443531E-02
(PID.TID 0000.0001) %MON surfExpan_salt_mean          =  -1.6128488133208E-03
(PID.TID 0000.0001) %MON surfExpan_Heat_mean          =   3.8792769436520E+00
(PID.TID 0000.0001) %MON En_Budget_T2PE_mean          =  -7.5262682200462E+00
(PID.TID 0000.0001) // =======================================================
(PID.TID 0000.0001) // End MONITOR dynamic field statistics
(PID.TID 0000.0001) // =======================================================
(PID.TID 0000.0001) // =======================================================
(PID.TID 0000.0001) // Begin MONITOR Land statistics
(PID.TID 0000.0001) // =======================================================
(PID.TID 0000.0001) %MON land_time_sec                =   1.4400000000000E+04
(PID.TID 0000.0001) %MON land_SnwH_ave_G              =   1.5321702266015E-01
(PID.TID 0000.0001) %MON land_SnwH_ave_S              =   5.5903510929898E-01
(PID.TID 0000.0001) %MON land_SnwH_ave_T              =   0.0000000000000E+00
(PID.TID 0000.0001) %MON land_SnwH_ave_N              =   1.2388592973998E-01
(PID.TID 0000.0001) %MON land_SnwH_max_S              =   9.9998249077212E-01
(PID.TID 0000.0001) %MON land_SnwH_max_T              =   0.0000000000000E+00
(PID.TID 0000.0001) %MON land_SnwH_max_N              =   9.9999789369354E-01
(PID.TID 0000.0001) %MON land_TotEnerg_G              =  -6.3598486523022E+21
(PID.TID 0000.0001) %MON land_TotEnerg_S              =  -5.0024704859682E+21
(PID.TID 0000.0001) %MON land_TotEnerg_T              =   7.2735099891207E+21
(PID.TID 0000.0001) %MON land_TotEnerg_N              =  -8.6308881554547E+21
(PID.TID 0000.0001) %MON land_Tsrf_ave_G              =  -8.6054310675044E+00
(PID.TID 0000.0001) %MON land_Tsrf_ave_S              =  -7.3899164187514E+00
(PID.TID 0000.0001) %MON land_Tsrf_ave_T              =   9.8355082388621E+00
(PID.TID 0000.0001) %MON land_Tsrf_ave_N              =  -2.1314053543358E+01
(PID.TID 0000.0001) %MON land_Tsrf_min_S              =  -3.3589019880359E+01
(PID.TID 0000.0001) %MON land_Tsrf_min_T              =  -2.8622942671561E+00
(PID.TID 0000.0001) %MON land_Tsrf_min_N              =  -5.2021797063464E+01
(PID.TID 0000.0001) %MON land_Tsrf_max_S              =   2.0021961342583E+01
(PID.TID 0000.0001) %MON land_Tsrf_max_T              =   1.9914874117952E+01
(PID.TID 0000.0001) %MON land_Tsrf_max_N              =   7.7995552330672E+00
(PID.TID 0000.0001) %MON land_Tgr1_ave_G              =  -7.4132497890882E+00
(PID.TID 0000.0001) %MON land_Tgr1_ave_S              =  -7.2792081740685E+00
(PID.TID 0000.0001) %MON land_Tgr1_ave_T              =   9.8355082388621E+00
(PID.TID 0000.0001) %MON land_Tgr1_ave_N              =  -1.8974945406043E+01
(PID.TID 0000.0001) %MON land_Tgr1_min_S              =  -3.9350214042852E+01
(PID.TID 0000.0001) %MON land_Tgr1_min_T              =  -2.8622942671561E+00
(PID.TID 0000.0001) %MON land_Tgr1_min_N              =  -5.4607870197608E+01
(PID.TID 0000.0001) %MON land_Tgr1_max_S              =   2.0021961342583E+01
(PID.TID 0000.0001) %MON land_Tgr1_max_T              =   1.9914874117952E+01
(PID.TID 0000.0001) %MON land_Tgr1_max_N              =   7.7995552330672E+00
(PID.TID 0000.0001) %MON land_Tgr2_ave_G              =   4.2025021122140E+00
(PID.TID 0000.0001) %MON land_Tgr2_ave_S              =  -1.8725303219077E+01
(PID.TID 0000.0001) %MON land_Tgr2_ave_T              =   2.2008070865176E+01
(PID.TID 0000.0001) %MON land_Tgr2_ave_N              =  -2.4989270004463E-01
(PID.TID 0000.0001) %MON land_Tgr2_min_S              =  -6.4748495512417E+01
(PID.TID 0000.0001) %MON land_Tgr2_min_T              =  -9.7031731001201E+00
(PID.TID 0000.0001) %MON land_Tgr2_min_N              =  -4.0201222284137E+01
(PID.TID 0000.0001) %MON land_Tgr2_max_S              =   2.3359540247701E+01
(PID.TID 0000.0001) %MON land_Tgr2_max_T              =   3.1348699669864E+01
(PID.TID 0000.0001) %MON land_Tgr2_max_N              =   2.9817830763049E+01
(PID.TID 0000.0001) %MON land_grdW_ave_G              =   4.8670618616024E-01
(PID.TID 0000.0001) %MON land_grdW_ave_S              =   3.0847211324836E-01
(PID.TID 0000.0001) %MON land_grdW_ave_T              =   5.6405616376053E-01
(PID.TID 0000.0001) %MON land_grdW_ave_N              =   4.9287219319798E-01
(PID.TID 0000.0001) %MON land_grdW_min_S              =   2.8113689562657E-02
(PID.TID 0000.0001) %MON land_grdW_min_T              =   0.0000000000000E+00
(PID.TID 0000.0001) %MON land_grdW_min_N              =   0.0000000000000E+00
(PID.TID 0000.0001) // =======================================================
(PID.TID 0000.0001) // End MONITOR Land statistics
(PID.TID 0000.0001) // =======================================================
(PID.TID 0000.0001) // =======================================================
(PID.TID 0000.0001) // Begin MONITOR Therm.SeaIce statistics
(PID.TID 0000.0001) // =======================================================
(PID.TID 0000.0001) %MON thSI_time_sec                =   1.4400000000000E+04
(PID.TID 0000.0001) %MON thSI_Ice_Area_G              =   2.3267158907297E+11
(PID.TID 0000.0001) %MON thSI_Ice_Area_S              =   0.0000000000000E+00
(PID.TID 0000.0001) %MON thSI_Ice_Area_N              =   2.3267158907297E+11
(PID.TID 0000.0001) %MON thSI_IceH_ave_G              =   1.1323419056094E-01
(PID.TID 0000.0001) %MON thSI_IceH_ave_S              =   0.0000000000000E+00
(PID.TID 0000.0001) %MON thSI_IceH_ave_N              =   1.1323419056094E-01
(PID.TID 0000.0001) %MON thSI_IceH_max_S              =   0.0000000000000E+00
(PID.TID 0000.0001) %MON thSI_IceH_max_N              =   1.4930676852333E-01
(PID.TID 0000.0001) %MON thSI_SnwH_ave_G              =   0.0000000000000E+00
(PID.TID 0000.0001) %MON thSI_SnwH_ave_S              =   0.0000000000000E+00
(PID.TID 0000.0001) %MON thSI_SnwH_ave_N              =   0.0000000000000E+00
(PID.TID 0000.0001) %MON thSI_SnwH_max_S              =   0.0000000000000E+00
(PID.TID 0000.0001) %MON thSI_SnwH_max_N              =   0.0000000000000E+00
(PID.TID 0000.0001) %MON thSI_TotEnerg_G              =  -8.1431249060126E+18
(PID.TID 0000.0001) %MON thSI_Tsrf_ave_G              =  -8.0786060712505E+00
(PID.TID 0000.0001) %MON thSI_Tsrf_ave_S              =   0.0000000000000E+00
(PID.TID 0000.0001) %MON thSI_Tsrf_ave_N              =  -8.0786060712505E+00
(PID.TID 0000.0001) %MON thSI_Tsrf_min_S              =   0.0000000000000E+00
(PID.TID 0000.0001) %MON thSI_Tsrf_min_N              =  -9.5307039300788E+00
(PID.TID 0000.0001) %MON thSI_Tsrf_max_S              =   0.0000000000000E+00
(PID.TID 0000.0001) %MON thSI_Tsrf_max_N              =  -3.1006452776561E+00
(PID.TID 0000.0001) %MON thSI_Tic1_ave_G              =  -6.8778107085463E+00
(PID.TID 0000.0001) %MON thSI_Tic1_ave_S              =   0.0000000000000E+00
(PID.TID 0000.0001) %MON thSI_Tic1_ave_N              =  -6.8778107085463E+00
(PID.TID 0000.0001) %MON thSI_Tic1_min_S              =   0.0000000000000E+00
(PID.TID 0000.0001) %MON thSI_Tic1_min_N              =  -7.2122214939464E+00
(PID.TID 0000.0001) %MON thSI_Tic1_max_S              =   0.0000000000000E+00
(PID.TID 0000.0001) %MON thSI_Tic1_max_N              =  -2.7301766968783E+00
(PID.TID 0000.0001) %MON thSI_Tic2_ave_G              =  -3.3123167242619E+00
(PID.TID 0000.0001) %MON thSI_Tic2_ave_S              =   0.0000000000000E+00
(PID.TID 0000.0001) %MON thSI_Tic2_ave_N              =  -3.3123167242619E+00
(PID.TID 0000.0001) %MON thSI_Tic2_min_S              =   0.0000000000000E+00
(PID.TID 0000.0001) %MON thSI_Tic2_min_N              =  -3.4297531912947E+00
(PID.TID 0000.0001) %MON thSI_Tic2_max_S              =   0.0000000000000E+00
(PID.TID 0000.0001) %MON thSI_Tic2_max_N              =  -1.9871186420069E+00
(PID.TID 0000.0001) // =======================================================
(PID.TID 0000.0001) // End MONITOR Therm.SeaIce statistics
(PID.TID 0000.0001) // =======================================================
 cg2d: Sum(rhs),rhsMax =   3.25962901115417E-09  1.79038480007996E+04
(PID.TID 0000.0001)                    cg2d_init_res =    1.04882111593831E+04
(PID.TID 0000.0001)                       cg2d_iters =    16
(PID.TID 0000.0001)                         cg2d_res =    6.03666744467040E-11
(PID.TID 0000.0001) // =======================================================
(PID.TID 0000.0001) // Begin MONITOR dynamic field statistics
(PID.TID 0000.0001) // =======================================================
(PID.TID 0000.0001) %MON time_tsnumber                =                    33
(PID.TID 0000.0001) %MON time_secondsf                =   1.4850000000000E+04
(PID.TID 0000.0001) %MON dynstat_eta_max              =   3.0263255674223E+03
(PID.TID 0000.0001) %MON dynstat_eta_min              =  -7.5977750522913E+02
(PID.TID 0000.0001) %MON dynstat_eta_mean             =   6.4263031124062E-15
(PID.TID 0000.0001) %MON dynstat_eta_sd               =   4.4601237841715E+02
(PID.TID 0000.0001) %MON dynstat_eta_del2             =   3.6179618052468E+01
(PID.TID 0000.0001) %MON dynstat_uvel_max             =   4.5401269433102E+00
(PID.TID 0000.0001) %MON dynstat_uvel_min             =  -4.8415015981958E+00
(PID.TID 0000.0001) %MON dynstat_uvel_mean            =   6.0134433315239E-02
(PID.TID 0000.0001) %MON dynstat_uvel_sd              =   7.7335616735474E-01
(PID.TID 0000.0001) %MON dynstat_uvel_del2            =   2.9174374647607E-02
(PID.TID 0000.0001) %MON dynstat_vvel_max             =   4.7455513434163E+00
(PID.TID 0000.0001) %MON dynstat_vvel_min             =  -5.0182359210654E+00
(PID.TID 0000.0001) %MON dynstat_vvel_mean            =   2.2373214264959E-02
(PID.TID 0000.0001) %MON dynstat_vvel_sd              =   8.0111928030568E-01
(PID.TID 0000.0001) %MON dynstat_vvel_del2            =   2.8954153142128E-02
(PID.TID 0000.0001) %MON dynstat_wvel_max             =   1.9727949018261E-01
(PID.TID 0000.0001) %MON dynstat_wvel_min             =  -9.3120929007308E-02
(PID.TID 0000.0001) %MON dynstat_wvel_mean            =   4.6016988548413E-04
(PID.TID 0000.0001) %MON dynstat_wvel_sd              =   9.7112726267346E-03
(PID.TID 0000.0001) %MON dynstat_wvel_del2            =   2.0975803098335E-03
(PID.TID 0000.0001) %MON dynstat_theta_max            =   4.3805805793723E+02
(PID.TID 0000.0001) %MON dynstat_theta_min            =   2.8193447130853E+02
(PID.TID 0000.0001) %MON dynstat_theta_mean           =   3.3166799563212E+02
(PID.TID 0000.0001) %MON dynstat_theta_sd             =   4.7469631715486E+01
(PID.TID 0000.0001) %MON dynstat_theta_del2           =   3.2930697233416E-02
(PID.TID 0000.0001) %MON dynstat_salt_max             =   4.8455341095697E+00
(PID.TID 0000.0001) %MON dynstat_salt_min             =  -2.9062164567003E-02
(PID.TID 0000.0001) %MON dynstat_salt_mean            =   1.1718806030377E-01
(PID.TID 0000.0001) %MON dynstat_salt_sd              =   4.5089932290809E-01
(PID.TID 0000.0001) %MON dynstat_salt_del2            =   1.3512669750688E-02
(PID.TID 0000.0001) %MON advcfl_uvel_max              =   6.8280528478353E-03
(PID.TID 0000.0001) %MON advcfl_vvel_max              =   7.2463276461494E-03
(PID.TID 0000.0001) %MON advcfl_wvel_max              =   3.2282098393518E-03
(PID.TID 0000.0001) %MON advcfl_W_hf_max              =   1.9183148273815E-02
(PID.TID 0000.0001) %MON pe_b_mean                    =  -1.2118544533521E+00
(PID.TID 0000.0001) %MON ke_max                       =   1.3323218441661E+01
(PID.TID 0000.0001) %MON ke_mean                      =   6.1827460846905E-01
(PID.TID 0000.0001) %MON ke_vol                       =   4.9523908919847E+19
(PID.TID 0000.0001) %MON vort_r_min                   =  -1.8541958868129E-05
(PID.TID 0000.0001) %MON vort_r_max                   =   1.3448066385916E-05
(PID.TID 0000.0001) %MON vort_a_mean                  =   6.7242814765313E-08
(PID.TID 0000.0001) %MON vort_a_sd                    =   8.4010147206611E-05
(PID.TID 0000.0001) %MON vort_p_mean                  =   6.8939478980528E-08
(PID.TID 0000.0001) %MON vort_p_sd                    =   9.1670436729500E-05
(PID.TID 0000.0001) %MON surfExpan_theta_mean         =  -4.4923618256525E-02
(PID.TID 0000.0001) %MON surfExpan_salt_mean          =  -1.6804745831164E-03
(PID.TID 0000.0001) %MON surfExpan_Heat_mean          =   3.5412403231437E+00
(PID.TID 0000.0001) %MON En_Budget_T2PE_mean          =  -6.8855258589695E+00
(PID.TID 0000.0001) // =======================================================
(PID.TID 0000.0001) // End MONITOR dynamic field statistics
(PID.TID 0000.0001) // =======================================================
(PID.TID 0000.0001) // =======================================================
(PID.TID 0000.0001) // Begin MONITOR Land statistics
(PID.TID 0000.0001) // =======================================================
(PID.TID 0000.0001) %MON land_time_sec                =   1.4850000000000E+04
(PID.TID 0000.0001) %MON land_SnwH_ave_G              =   1.5321608419490E-01
(PID.TID 0000.0001) %MON land_SnwH_ave_S              =   5.5903425915090E-01
(PID.TID 0000.0001) %MON land_SnwH_ave_T              =   0.0000000000000E+00
(PID.TID 0000.0001) %MON land_SnwH_ave_N              =   1.2388433594570E-01
(PID.TID 0000.0001) %MON land_SnwH_max_S              =   9.9998192528349E-01
(PID.TID 0000.0001) %MON land_SnwH_max_T              =   0.0000000000000E+00
(PID.TID 0000.0001) %MON land_SnwH_max_N              =   9.9999782976830E-01
(PID.TID 0000.0001) %MON land_TotEnerg_G              =  -6.3608106241270E+21
(PID.TID 0000.0001) %MON land_TotEnerg_S              =  -5.0024788237501E+21
(PID.TID 0000.0001) %MON land_TotEnerg_T              =   7.2730818930333E+21
(PID.TID 0000.0001) %MON land_TotEnerg_N              =  -8.6314136934102E+21
(PID.TID 0000.0001) %MON land_Tsrf_ave_G              =  -8.6264168532793E+00
(PID.TID 0000.0001) %MON land_Tsrf_ave_S              =  -7.3933697251494E+00
(PID.TID 0000.0001) %MON land_Tsrf_ave_T              =   9.7904809602898E+00
(PID.TID 0000.0001) %MON land_Tsrf_ave_N              =  -2.1324672556774E+01
(PID.TID 0000.0001) %MON land_Tsrf_min_S              =  -3.3559656389391E+01
(PID.TID 0000.0001) %MON land_Tsrf_min_T              =  -2.7724298040535E+00
(PID.TID 0000.0001) %MON land_Tsrf_min_N              =  -5.2016108827674E+01
(PID.TID 0000.0001) %MON land_Tsrf_max_S              =   1.9996881309671E+01
(PID.TID 0000.0001) %MON land_Tsrf_max_T              =   1.9856653840160E+01
(PID.TID 0000.0001) %MON land_Tsrf_max_N              =   7.7269538616937E+00
(PID.TID 0000.0001) %MON land_Tgr1_ave_G              =  -7.4374161363916E+00
(PID.TID 0000.0001) %MON land_Tgr1_ave_S              =  -7.2879194158312E+00
(PID.TID 0000.0001) %MON land_Tgr1_ave_T              =   9.7904809602898E+00
(PID.TID 0000.0001) %MON land_Tgr1_ave_N              =  -1.8990194979022E+01
(PID.TID 0000.0001) %MON land_Tgr1_min_S              =  -3.9360879082627E+01
(PID.TID 0000.0001) %MON land_Tgr1_min_T              =  -2.7724298040535E+00
(PID.TID 0000.0001) %MON land_Tgr1_min_N              =  -5.4595518467137E+01
(PID.TID 0000.0001) %MON land_Tgr1_max_S              =   1.9996881309671E+01
(PID.TID 0000.0001) %MON land_Tgr1_max_T              =   1.9856653840160E+01
(PID.TID 0000.0001) %MON land_Tgr1_max_N              =   7.7269538616937E+00
(PID.TID 0000.0001) %MON land_Tgr2_ave_G              =   4.2023239708017E+00
(PID.TID 0000.0001) %MON land_Tgr2_ave_S              =  -1.8725111394453E+01
(PID.TID 0000.0001) %MON land_Tgr2_ave_T              =   2.2007874548192E+01
(PID.TID 0000.0001) %MON land_Tgr2_ave_N              =  -2.5017871907228E-01
(PID.TID 0000.0001) %MON land_Tgr2_min_S              =  -6.4748067695763E+01
(PID.TID 0000.0001) %MON land_Tgr2_min_T              =  -9.7030855322754E+00
(PID.TID 0000.0001) %MON land_Tgr2_min_N              =  -4.0201455946860E+01
(PID.TID 0000.0001) %MON land_Tgr2_max_S              =   2.3359466800707E+01
(PID.TID 0000.0001) %MON land_Tgr2_max_T              =   3.1348252542592E+01
(PID.TID 0000.0001) %MON land_Tgr2_max_N              =   2.9817270298390E+01
(PID.TID 0000.0001) %MON land_grdW_ave_G              =   4.8669899472618E-01
(PID.TID 0000.0001) %MON land_grdW_ave_S              =   3.0846474742982E-01
(PID.TID 0000.0001) %MON land_grdW_ave_T              =   5.6403871854359E-01
(PID.TID 0000.0001) %MON land_grdW_ave_N              =   4.9287190550784E-01
(PID.TID 0000.0001) %MON land_grdW_min_S              =   2.8198967523025E-02
(PID.TID 0000.0001) %MON land_grdW_min_T              =   0.0000000000000E+00
(PID.TID 0000.0001) %MON land_grdW_min_N              =   0.0000000000000E+00
(PID.TID 0000.0001) // =======================================================
(PID.TID 0000.0001) // End MONITOR Land statistics
(PID.TID 0000.0001) // =======================================================
(PID.TID 0000.0001) // =======================================================
(PID.TID 0000.0001) // Begin MONITOR Therm.SeaIce statistics
(PID.TID 0000.0001) // =======================================================
(PID.TID 0000.0001) %MON thSI_time_sec                =   1.4850000000000E+04
(PID.TID 0000.0001) %MON thSI_Ice_Area_G              =   2.3594979480016E+11
(PID.TID 0000.0001) %MON thSI_Ice_Area_S              =   0.0000000000000E+00
(PID.TID 0000.0001) %MON thSI_Ice_Area_N              =   2.3594979480016E+11
(PID.TID 0000.0001) %MON thSI_IceH_ave_G              =   1.1224620017269E-01
(PID.TID 0000.0001) %MON thSI_IceH_ave_S              =   0.0000000000000E+00
(PID.TID 0000.0001) %MON thSI_IceH_ave_N              =   1.1224620017269E-01
(PID.TID 0000.0001) %MON thSI_IceH_max_S              =   0.0000000000000E+00
(PID.TID 0000.0001) %MON thSI_IceH_max_N              =   1.4944114773608E-01
(PID.TID 0000.0001) %MON thSI_SnwH_ave_G              =   0.0000000000000E+00
(PID.TID 0000.0001) %MON thSI_SnwH_ave_S              =   0.0000000000000E+00
(PID.TID 0000.0001) %MON thSI_SnwH_ave_N              =   0.0000000000000E+00
(PID.TID 0000.0001) %MON thSI_SnwH_max_S              =   0.0000000000000E+00
(PID.TID 0000.0001) %MON thSI_SnwH_max_N              =   0.0000000000000E+00
(PID.TID 0000.0001) %MON thSI_TotEnerg_G              =  -8.1871153763401E+18
(PID.TID 0000.0001) %MON thSI_Tsrf_ave_G              =  -8.0474850209567E+00
(PID.TID 0000.0001) %MON thSI_Tsrf_ave_S              =   0.0000000000000E+00
(PID.TID 0000.0001) %MON thSI_Tsrf_ave_N              =  -8.0474850209567E+00
(PID.TID 0000.0001) %MON thSI_Tsrf_min_S              =   0.0000000000000E+00
(PID.TID 0000.0001) %MON thSI_Tsrf_min_N              =  -9.5725745996937E+00
(PID.TID 0000.0001) %MON thSI_Tsrf_max_S              =   0.0000000000000E+00
(PID.TID 0000.0001) %MON thSI_Tsrf_max_N              =  -3.1245216330018E+00
(PID.TID 0000.0001) %MON thSI_Tic1_ave_G              =  -6.9099088700706E+00
(PID.TID 0000.0001) %MON thSI_Tic1_ave_S              =   0.0000000000000E+00
(PID.TID 0000.0001) %MON thSI_Tic1_ave_N              =  -6.9099088700706E+00
(PID.TID 0000.0001) %MON thSI_Tic1_min_S              =   0.0000000000000E+00
(PID.TID 0000.0001) %MON thSI_Tic1_min_N              =  -7.2662692593845E+00
(PID.TID 0000.0001) %MON thSI_Tic1_max_S              =   0.0000000000000E+00
(PID.TID 0000.0001) %MON thSI_Tic1_max_N              =  -2.7481211503725E+00
(PID.TID 0000.0001) %MON thSI_Tic2_ave_G              =  -3.3294316673551E+00
(PID.TID 0000.0001) %MON thSI_Tic2_ave_S              =   0.0000000000000E+00
(PID.TID 0000.0001) %MON thSI_Tic2_ave_N              =  -3.3294316673551E+00
(PID.TID 0000.0001) %MON thSI_Tic2_min_S              =   0.0000000000000E+00
(PID.TID 0000.0001) %MON thSI_Tic2_min_N              =  -3.4538149297532E+00
(PID.TID 0000.0001) %MON thSI_Tic2_max_S              =   0.0000000000000E+00
(PID.TID 0000.0001) %MON thSI_Tic2_max_N              =  -1.9930765232132E+00
(PID.TID 0000.0001) // =======================================================
(PID.TID 0000.0001) // End MONITOR Therm.SeaIce statistics
(PID.TID 0000.0001) // =======================================================
 cg2d: Sum(rhs),rhsMax =   3.02679836750031E-09  1.76215362006121E+04
(PID.TID 0000.0001)                    cg2d_init_res =    1.03032037715817E+04
(PID.TID 0000.0001)                       cg2d_iters =    16
(PID.TID 0000.0001)                         cg2d_res =    5.85710165476714E-11
(PID.TID 0000.0001) // =======================================================
(PID.TID 0000.0001) // Begin MONITOR dynamic field statistics
(PID.TID 0000.0001) // =======================================================
(PID.TID 0000.0001) %MON time_tsnumber                =                    34
(PID.TID 0000.0001) %MON time_secondsf                =   1.5300000000000E+04
(PID.TID 0000.0001) %MON dynstat_eta_max              =   2.9752732571681E+03
(PID.TID 0000.0001) %MON dynstat_eta_min              =  -7.6130359699080E+02
(PID.TID 0000.0001) %MON dynstat_eta_mean             =  -6.4263031124062E-14
(PID.TID 0000.0001) %MON dynstat_eta_sd               =   4.3972157377216E+02
(PID.TID 0000.0001) %MON dynstat_eta_del2             =   3.6224590958438E+01
(PID.TID 0000.0001) %MON dynstat_uvel_max             =   4.4000434782967E+00
(PID.TID 0000.0001) %MON dynstat_uvel_min             =  -4.6554982030367E+00
(PID.TID 0000.0001) %MON dynstat_uvel_mean            =   6.7051837895245E-02
(PID.TID 0000.0001) %MON dynstat_uvel_sd              =   7.6472035425624E-01
(PID.TID 0000.0001) %MON dynstat_uvel_del2            =   2.9905555371324E-02
(PID.TID 0000.0001) %MON dynstat_vvel_max             =   4.5785836888684E+00
(PID.TID 0000.0001) %MON dynstat_vvel_min             =  -4.8071380282130E+00
(PID.TID 0000.0001) %MON dynstat_vvel_mean            =   2.2531818113923E-02
(PID.TID 0000.0001) %MON dynstat_vvel_sd              =   7.9354806642247E-01
(PID.TID 0000.0001) %MON dynstat_vvel_del2            =   2.9598842677090E-02
(PID.TID 0000.0001) %MON dynstat_wvel_max             =   1.8216439547836E-01
(PID.TID 0000.0001) %MON dynstat_wvel_min             =  -9.3723697845636E-02
(PID.TID 0000.0001) %MON dynstat_wvel_mean            =   4.1621632321887E-04
(PID.TID 0000.0001) %MON dynstat_wvel_sd              =   9.5214101772108E-03
(PID.TID 0000.0001) %MON dynstat_wvel_del2            =   2.1184300425768E-03
(PID.TID 0000.0001) %MON dynstat_theta_max            =   4.3807194297064E+02
(PID.TID 0000.0001) %MON dynstat_theta_min            =   2.8172202514199E+02
(PID.TID 0000.0001) %MON dynstat_theta_mean           =   3.3166569918319E+02
(PID.TID 0000.0001) %MON dynstat_theta_sd             =   4.7471734864957E+01
(PID.TID 0000.0001) %MON dynstat_theta_del2           =   3.3871842948318E-02
(PID.TID 0000.0001) %MON dynstat_salt_max             =   4.8771485483634E+00
(PID.TID 0000.0001) %MON dynstat_salt_min             =  -3.1482032380124E-02
(PID.TID 0000.0001) %MON dynstat_salt_mean            =   1.2047347995261E-01
(PID.TID 0000.0001) %MON dynstat_salt_sd              =   4.6202256667183E-01
(PID.TID 0000.0001) %MON dynstat_salt_del2            =   1.3824148107535E-02
(PID.TID 0000.0001) %MON advcfl_uvel_max              =   6.5657290653756E-03
(PID.TID 0000.0001) %MON advcfl_vvel_max              =   7.5493087624012E-03
(PID.TID 0000.0001) %MON advcfl_wvel_max              =   2.9808719260095E-03
(PID.TID 0000.0001) %MON advcfl_W_hf_max              =   1.9019675979089E-02
(PID.TID 0000.0001) %MON pe_b_mean                    =  -1.2054234494590E+00
(PID.TID 0000.0001) %MON ke_max                       =   1.2323593907956E+01
(PID.TID 0000.0001) %MON ke_mean                      =   6.0610946867130E-01
(PID.TID 0000.0001) %MON ke_vol                       =   4.9523908919847E+19
(PID.TID 0000.0001) %MON vort_r_min                   =  -1.7951376854467E-05
(PID.TID 0000.0001) %MON vort_r_max                   =   1.4082019336141E-05
(PID.TID 0000.0001) %MON vort_a_mean                  =   6.7242814765241E-08
(PID.TID 0000.0001) %MON vort_a_sd                    =   8.4012169101396E-05
(PID.TID 0000.0001) %MON vort_p_mean                  =   6.8939480153216E-08
(PID.TID 0000.0001) %MON vort_p_sd                    =   9.1658419725575E-05
(PID.TID 0000.0001) %MON surfExpan_theta_mean         =  -4.0465038168196E-02
(PID.TID 0000.0001) %MON surfExpan_salt_mean          =  -1.7373364944881E-03
(PID.TID 0000.0001) %MON surfExpan_Heat_mean          =   3.1775484566478E+00
(PID.TID 0000.0001) %MON En_Budget_T2PE_mean          =  -6.1970955187195E+00
(PID.TID 0000.0001) // =======================================================
(PID.TID 0000.0001) // End MONITOR dynamic field statistics
(PID.TID 0000.0001) // =======================================================
(PID.TID 0000.0001) // =======================================================
(PID.TID 0000.0001) // Begin MONITOR Land statistics
(PID.TID 0000.0001) // =======================================================
(PID.TID 0000.0001) %MON land_time_sec                =   1.5300000000000E+04
(PID.TID 0000.0001) %MON land_SnwH_ave_G              =   1.5321514854935E-01
(PID.TID 0000.0001) %MON land_SnwH_ave_S              =   5.5903341391753E-01
(PID.TID 0000.0001) %MON land_SnwH_ave_T              =   0.0000000000000E+00
(PID.TID 0000.0001) %MON land_SnwH_ave_N              =   1.2388274617440E-01
(PID.TID 0000.0001) %MON land_SnwH_max_S              =   9.9998135824121E-01
(PID.TID 0000.0001) %MON land_SnwH_max_T              =   0.0000000000000E+00
(PID.TID 0000.0001) %MON land_SnwH_max_N              =   9.9999776578762E-01
(PID.TID 0000.0001) %MON land_TotEnerg_G              =  -6.3617322946333E+21
(PID.TID 0000.0001) %MON land_TotEnerg_S              =  -5.0024830032709E+21
(PID.TID 0000.0001) %MON land_TotEnerg_T              =   7.2726816797288E+21
(PID.TID 0000.0001) %MON land_TotEnerg_N              =  -8.6319309710912E+21
(PID.TID 0000.0001) %MON land_Tsrf_ave_G              =  -8.6455533476054E+00
(PID.TID 0000.0001) %MON land_Tsrf_ave_S              =  -7.3941479946191E+00
(PID.TID 0000.0001) %MON land_Tsrf_ave_T              =   9.7488869018662E+00
(PID.TID 0000.0001) %MON land_Tsrf_ave_N              =  -2.1334767846546E+01
(PID.TID 0000.0001) %MON land_Tsrf_min_S              =  -3.3529433783035E+01
(PID.TID 0000.0001) %MON land_Tsrf_min_T              =  -2.7128413998206E+00
(PID.TID 0000.0001) %MON land_Tsrf_min_N              =  -5.2009628402835E+01
(PID.TID 0000.0001) %MON land_Tsrf_max_S              =   1.9976736628764E+01
(PID.TID 0000.0001) %MON land_Tsrf_max_T              =   1.9805755503805E+01
(PID.TID 0000.0001) %MON land_Tsrf_max_N              =   7.6597132504209E+00
(PID.TID 0000.0001) %MON land_Tgr1_ave_G              =  -7.4599112810879E+00
(PID.TID 0000.0001) %MON land_Tgr1_ave_S              =  -7.2954187457957E+00
(PID.TID 0000.0001) %MON land_Tgr1_ave_T              =   9.7488869018662E+00
(PID.TID 0000.0001) %MON land_Tgr1_ave_N              =  -1.9004800981749E+01
(PID.TID 0000.0001) %MON land_Tgr1_min_S              =  -3.9371496742265E+01
(PID.TID 0000.0001) %MON land_Tgr1_min_T              =  -2.7128413998206E+00
(PID.TID 0000.0001) %MON land_Tgr1_min_N              =  -5.4583180830061E+01
(PID.TID 0000.0001) %MON land_Tgr1_max_S              =   1.9976736628764E+01
(PID.TID 0000.0001) %MON land_Tgr1_max_T              =   1.9805755503805E+01
(PID.TID 0000.0001) %MON land_Tgr1_max_N              =   7.6597132504209E+00
(PID.TID 0000.0001) %MON land_Tgr2_ave_G              =   4.2021455576973E+00
(PID.TID 0000.0001) %MON land_Tgr2_ave_S              =  -1.8724919691205E+01
(PID.TID 0000.0001) %MON land_Tgr2_ave_T              =   2.2007677696137E+01
(PID.TID 0000.0001) %MON land_Tgr2_ave_N              =  -2.5046488267781E-01
(PID.TID 0000.0001) %MON land_Tgr2_min_S              =  -6.4747640081051E+01
(PID.TID 0000.0001) %MON land_Tgr2_min_T              =  -9.7029968716496E+00
(PID.TID 0000.0001) %MON land_Tgr2_min_N              =  -4.0201689380831E+01
(PID.TID 0000.0001) %MON land_Tgr2_max_S              =   2.3359392656150E+01
(PID.TID 0000.0001) %MON land_Tgr2_max_T              =   3.1347803882637E+01
(PID.TID 0000.0001) %MON land_Tgr2_max_N              =   2.9816706312524E+01
(PID.TID 0000.0001) %MON land_grdW_ave_G              =   4.8669184950241E-01
(PID.TID 0000.0001) %MON land_grdW_ave_S              =   3.0845741004679E-01
(PID.TID 0000.0001) %MON land_grdW_ave_T              =   5.6402139778952E-01
(PID.TID 0000.0001) %MON land_grdW_ave_N              =   4.9287161753923E-01
(PID.TID 0000.0001) %MON land_grdW_min_S              =   2.8283805862890E-02
(PID.TID 0000.0001) %MON land_grdW_min_T              =   0.0000000000000E+00
(PID.TID 0000.0001) %MON land_grdW_min_N              =   0.0000000000000E+00
(PID.TID 0000.0001) // =======================================================
(PID.TID 0000.0001) // End MONITOR Land statistics
(PID.TID 0000.0001) // =======================================================
(PID.TID 0000.0001) // =======================================================
(PID.TID 0000.0001) // Begin MONITOR Therm.SeaIce statistics
(PID.TID 0000.0001) // =======================================================
(PID.TID 0000.0001) %MON thSI_time_sec                =   1.5300000000000E+04
(PID.TID 0000.0001) %MON thSI_Ice_Area_G              =   2.3908017994892E+11
(PID.TID 0000.0001) %MON thSI_Ice_Area_S              =   0.0000000000000E+00
(PID.TID 0000.0001) %MON thSI_Ice_Area_N              =   2.3908017994892E+11
(PID.TID 0000.0001) %MON thSI_IceH_ave_G              =   1.1135812824040E-01
(PID.TID 0000.0001) %MON thSI_IceH_ave_S              =   0.0000000000000E+00
(PID.TID 0000.0001) %MON thSI_IceH_ave_N              =   1.1135812824040E-01
(PID.TID 0000.0001) %MON thSI_IceH_max_S              =   0.0000000000000E+00
(PID.TID 0000.0001) %MON thSI_IceH_max_N              =   1.4957742376948E-01
(PID.TID 0000.0001) %MON thSI_SnwH_ave_G              =   0.0000000000000E+00
(PID.TID 0000.0001) %MON thSI_SnwH_ave_S              =   0.0000000000000E+00
(PID.TID 0000.0001) %MON thSI_SnwH_ave_N              =   0.0000000000000E+00
(PID.TID 0000.0001) %MON thSI_SnwH_max_S              =   0.0000000000000E+00
(PID.TID 0000.0001) %MON thSI_SnwH_max_N              =   0.0000000000000E+00
(PID.TID 0000.0001) %MON thSI_TotEnerg_G              =  -8.2312416787944E+18
(PID.TID 0000.0001) %MON thSI_Tsrf_ave_G              =  -8.0179636150342E+00
(PID.TID 0000.0001) %MON thSI_Tsrf_ave_S              =   0.0000000000000E+00
(PID.TID 0000.0001) %MON thSI_Tsrf_ave_N              =  -8.0179636150342E+00
(PID.TID 0000.0001) %MON thSI_Tsrf_min_S              =   0.0000000000000E+00
(PID.TID 0000.0001) %MON thSI_Tsrf_min_N              =  -9.6105260956923E+00
(PID.TID 0000.0001) %MON thSI_Tsrf_max_S              =   0.0000000000000E+00
(PID.TID 0000.0001) %MON thSI_Tsrf_max_N              =  -3.1678326081475E+00
(PID.TID 0000.0001) %MON thSI_Tic1_ave_G              =  -6.9377341968819E+00
(PID.TID 0000.0001) %MON thSI_Tic1_ave_S              =   0.0000000000000E+00
(PID.TID 0000.0001) %MON thSI_Tic1_ave_N              =  -6.9377341968819E+00
(PID.TID 0000.0001) %MON thSI_Tic1_min_S              =   0.0000000000000E+00
(PID.TID 0000.0001) %MON thSI_Tic1_min_N              =  -7.3156414466337E+00
(PID.TID 0000.0001) %MON thSI_Tic1_max_S              =   0.0000000000000E+00
(PID.TID 0000.0001) %MON thSI_Tic1_max_N              =  -2.7803266113986E+00
(PID.TID 0000.0001) %MON thSI_Tic2_ave_G              =  -3.3446992916280E+00
(PID.TID 0000.0001) %MON thSI_Tic2_ave_S              =   0.0000000000000E+00
(PID.TID 0000.0001) %MON thSI_Tic2_ave_N              =  -3.3446992916280E+00
(PID.TID 0000.0001) %MON thSI_Tic2_min_S              =   0.0000000000000E+00
(PID.TID 0000.0001) %MON thSI_Tic2_min_N              =  -3.4759065029834E+00
(PID.TID 0000.0001) %MON thSI_Tic2_max_S              =   0.0000000000000E+00
(PID.TID 0000.0001) %MON thSI_Tic2_max_N              =  -2.0028607360483E+00
(PID.TID 0000.0001) // =======================================================
(PID.TID 0000.0001) // End MONITOR Therm.SeaIce statistics
(PID.TID 0000.0001) // =======================================================
 cg2d: Sum(rhs),rhsMax =  -4.65661287307739E-10  1.73996149014174E+04
(PID.TID 0000.0001)                    cg2d_init_res =    1.01222163187504E+04
(PID.TID 0000.0001)                       cg2d_iters =    16
(PID.TID 0000.0001)                         cg2d_res =    5.66681855439589E-11
(PID.TID 0000.0001) // =======================================================
(PID.TID 0000.0001) // Begin MONITOR dynamic field statistics
(PID.TID 0000.0001) // =======================================================
(PID.TID 0000.0001) %MON time_tsnumber                =                    35
(PID.TID 0000.0001) %MON time_secondsf                =   1.5750000000000E+04
(PID.TID 0000.0001) %MON dynstat_eta_max              =   2.9759712993324E+03
(PID.TID 0000.0001) %MON dynstat_eta_min              =  -7.6344583890287E+02
(PID.TID 0000.0001) %MON dynstat_eta_mean             =   7.7115637348875E-14
(PID.TID 0000.0001) %MON dynstat_eta_sd               =   4.3454480678692E+02
(PID.TID 0000.0001) %MON dynstat_eta_del2             =   3.6271339254958E+01
(PID.TID 0000.0001) %MON dynstat_uvel_max             =   4.2761427585411E+00
(PID.TID 0000.0001) %MON dynstat_uvel_min             =  -4.4140813335698E+00
(PID.TID 0000.0001) %MON dynstat_uvel_mean            =   7.3773133346878E-02
(PID.TID 0000.0001) %MON dynstat_uvel_sd              =   7.5613948302050E-01
(PID.TID 0000.0001) %MON dynstat_uvel_del2            =   3.0671407366233E-02
(PID.TID 0000.0001) %MON dynstat_vvel_max             =   4.4233759505795E+00
(PID.TID 0000.0001) %MON dynstat_vvel_min             =  -4.6056399717996E+00
(PID.TID 0000.0001) %MON dynstat_vvel_mean            =   2.3066568362428E-02
(PID.TID 0000.0001) %MON dynstat_vvel_sd              =   7.8519252126712E-01
(PID.TID 0000.0001) %MON dynstat_vvel_del2            =   3.0275551198028E-02
(PID.TID 0000.0001) %MON dynstat_wvel_max             =   1.6397516053937E-01
(PID.TID 0000.0001) %MON dynstat_wvel_min             =  -9.2945905165372E-02
(PID.TID 0000.0001) %MON dynstat_wvel_mean            =   3.7067443576212E-04
(PID.TID 0000.0001) %MON dynstat_wvel_sd              =   9.3507649687465E-03
(PID.TID 0000.0001) %MON dynstat_wvel_del2            =   2.1387722795589E-03
(PID.TID 0000.0001) %MON dynstat_theta_max            =   4.3807856104164E+02
(PID.TID 0000.0001) %MON dynstat_theta_min            =   2.8150976059795E+02
(PID.TID 0000.0001) %MON dynstat_theta_mean           =   3.3166338407951E+02
(PID.TID 0000.0001) %MON dynstat_theta_sd             =   4.7473846926385E+01
(PID.TID 0000.0001) %MON dynstat_theta_del2           =   3.4804271707139E-02
(PID.TID 0000.0001) %MON dynstat_salt_max             =   4.9075174951713E+00
(PID.TID 0000.0001) %MON dynstat_salt_min             =  -3.3954266556328E-02
(PID.TID 0000.0001) %MON dynstat_salt_mean            =   1.2374926188708E-01
(PID.TID 0000.0001) %MON dynstat_salt_sd              =   4.7305566752947E-01
(PID.TID 0000.0001) %MON dynstat_salt_del2            =   1.4132284442426E-02
(PID.TID 0000.0001) %MON advcfl_uvel_max              =   6.2252547084750E-03
(PID.TID 0000.0001) %MON advcfl_vvel_max              =   7.7159331190648E-03
(PID.TID 0000.0001) %MON advcfl_wvel_max              =   2.6832298997351E-03
(PID.TID 0000.0001) %MON advcfl_W_hf_max              =   1.8903656411672E-02
(PID.TID 0000.0001) %MON pe_b_mean                    =  -1.1983357893251E+00
(PID.TID 0000.0001) %MON ke_max                       =   1.1336209237502E+01
(PID.TID 0000.0001) %MON ke_mean                      =   5.9354663223070E-01
(PID.TID 0000.0001) %MON ke_vol                       =   4.9523908919847E+19
(PID.TID 0000.0001) %MON vort_r_min                   =  -1.7359135214454E-05
(PID.TID 0000.0001) %MON vort_r_max                   =   1.4735701500292E-05
(PID.TID 0000.0001) %MON vort_a_mean                  =   6.7242814765296E-08
(PID.TID 0000.0001) %MON vort_a_sd                    =   8.4014105012682E-05
(PID.TID 0000.0001) %MON vort_p_mean                  =   6.8939481051670E-08
(PID.TID 0000.0001) %MON vort_p_sd                    =   9.1647584857336E-05
(PID.TID 0000.0001) %MON surfExpan_theta_mean         =  -3.5897444068753E-02
(PID.TID 0000.0001) %MON surfExpan_salt_mean          =  -1.7822489324990E-03
(PID.TID 0000.0001) %MON surfExpan_Heat_mean          =   2.8036398878125E+00
(PID.TID 0000.0001) %MON En_Budget_T2PE_mean          =  -5.4895279399583E+00
(PID.TID 0000.0001) // =======================================================
(PID.TID 0000.0001) // End MONITOR dynamic field statistics
(PID.TID 0000.0001) // =======================================================
(PID.TID 0000.0001) // =======================================================
(PID.TID 0000.0001) // Begin MONITOR Land statistics
(PID.TID 0000.0001) // =======================================================
(PID.TID 0000.0001) %MON land_time_sec                =   1.5750000000000E+04
(PID.TID 0000.0001) %MON land_SnwH_ave_G              =   1.5321421501150E-01
(PID.TID 0000.0001) %MON land_SnwH_ave_S              =   5.5903257298924E-01
(PID.TID 0000.0001) %MON land_SnwH_ave_T              =   0.0000000000000E+00
(PID.TID 0000.0001) %MON land_SnwH_ave_N              =   1.2388115920546E-01
(PID.TID 0000.0001) %MON land_SnwH_max_S              =   9.9998078958314E-01
(PID.TID 0000.0001) %MON land_SnwH_max_T              =   0.0000000000000E+00
(PID.TID 0000.0001) %MON land_SnwH_max_N              =   9.9999770174478E-01
(PID.TID 0000.0001) %MON land_TotEnerg_G              =  -6.3626167902205E+21
(PID.TID 0000.0001) %MON land_TotEnerg_S              =  -5.0024834789728E+21
(PID.TID 0000.0001) %MON land_TotEnerg_T              =   7.2723068655666E+21
(PID.TID 0000.0001) %MON land_TotEnerg_N              =  -8.6324401768143E+21
(PID.TID 0000.0001) %MON land_Tsrf_ave_G              =  -8.6629246045445E+00
(PID.TID 0000.0001) %MON land_Tsrf_ave_S              =  -7.3917493302463E+00
(PID.TID 0000.0001) %MON land_Tsrf_ave_T              =   9.7104339506222E+00
(PID.TID 0000.0001) %MON land_Tsrf_ave_N              =  -2.1344474610044E+01
(PID.TID 0000.0001) %MON land_Tsrf_min_S              =  -3.3498493925743E+01
(PID.TID 0000.0001) %MON land_Tsrf_min_T              =  -2.8231653837959E+00
(PID.TID 0000.0001) %MON land_Tsrf_min_N              =  -5.2002349829701E+01
(PID.TID 0000.0001) %MON land_Tsrf_max_S              =   1.9960998503691E+01
(PID.TID 0000.0001) %MON land_Tsrf_max_T              =   1.9761459671818E+01
(PID.TID 0000.0001) %MON land_Tsrf_max_N              =   7.5976174749615E+00
(PID.TID 0000.0001) %MON land_Tgr1_ave_G              =  -7.4809733409511E+00
(PID.TID 0000.0001) %MON land_Tgr1_ave_S              =  -7.3018396316436E+00
(PID.TID 0000.0001) %MON land_Tgr1_ave_T              =   9.7104339506222E+00
(PID.TID 0000.0001) %MON land_Tgr1_ave_N              =  -1.9018999423446E+01
(PID.TID 0000.0001) %MON land_Tgr1_min_S              =  -3.9382066303482E+01
(PID.TID 0000.0001) %MON land_Tgr1_min_T              =  -2.8231653837959E+00
(PID.TID 0000.0001) %MON land_Tgr1_min_N              =  -5.4570856485993E+01
(PID.TID 0000.0001) %MON land_Tgr1_max_S              =   1.9960998503691E+01
(PID.TID 0000.0001) %MON land_Tgr1_max_T              =   1.9761459671818E+01
(PID.TID 0000.0001) %MON land_Tgr1_max_N              =   7.5976174749615E+00
(PID.TID 0000.0001) %MON land_Tgr2_ave_G              =   4.2019668984929E+00
(PID.TID 0000.0001) %MON land_Tgr2_ave_S              =  -1.8724728092294E+01
(PID.TID 0000.0001) %MON land_Tgr2_ave_T              =   2.2007480358831E+01
(PID.TID 0000.0001) %MON land_Tgr2_ave_N              =  -2.5075117867159E-01
(PID.TID 0000.0001) %MON land_Tgr2_min_S              =  -6.4747212667452E+01
(PID.TID 0000.0001) %MON land_Tgr2_min_T              =  -9.7029071589655E+00
(PID.TID 0000.0001) %MON land_Tgr2_min_N              =  -4.0201922586750E+01
(PID.TID 0000.0001) %MON land_Tgr2_max_S              =   2.3359317900521E+01
(PID.TID 0000.0001) %MON land_Tgr2_max_T              =   3.1347353796884E+01
(PID.TID 0000.0001) %MON land_Tgr2_max_N              =   2.9816138942575E+01
(PID.TID 0000.0001) %MON land_grdW_ave_G              =   4.8668474619707E-01
(PID.TID 0000.0001) %MON land_grdW_ave_S              =   3.0845009853057E-01
(PID.TID 0000.0001) %MON land_grdW_ave_T              =   5.6400418950444E-01
(PID.TID 0000.0001) %MON land_grdW_ave_N              =   4.9287132958452E-01
(PID.TID 0000.0001) %MON land_grdW_min_S              =   2.8368152683655E-02
(PID.TID 0000.0001) %MON land_grdW_min_T              =   0.0000000000000E+00
(PID.TID 0000.0001) %MON land_grdW_min_N              =   0.0000000000000E+00
(PID.TID 0000.0001) // =======================================================
(PID.TID 0000.0001) // End MONITOR Land statistics
(PID.TID 0000.0001) // =======================================================
(PID.TID 0000.0001) // =======================================================
(PID.TID 0000.0001) // Begin MONITOR Therm.SeaIce statistics
(PID.TID 0000.0001) // =======================================================
(PID.TID 0000.0001) %MON thSI_time_sec                =   1.5750000000000E+04
(PID.TID 0000.0001) %MON thSI_Ice_Area_G              =   2.4207467056709E+11
(PID.TID 0000.0001) %MON thSI_Ice_Area_S              =   0.0000000000000E+00
(PID.TID 0000.0001) %MON thSI_Ice_Area_N              =   2.4207467056709E+11
(PID.TID 0000.0001) %MON thSI_IceH_ave_G              =   1.1055869661389E-01
(PID.TID 0000.0001) %MON thSI_IceH_ave_S              =   0.0000000000000E+00
(PID.TID 0000.0001) %MON thSI_IceH_ave_N              =   1.1055869661389E-01
(PID.TID 0000.0001) %MON thSI_IceH_max_S              =   0.0000000000000E+00
(PID.TID 0000.0001) %MON thSI_IceH_max_N              =   1.4971543985797E-01
(PID.TID 0000.0001) %MON thSI_SnwH_ave_G              =   0.0000000000000E+00
(PID.TID 0000.0001) %MON thSI_SnwH_ave_S              =   0.0000000000000E+00
(PID.TID 0000.0001) %MON thSI_SnwH_ave_N              =   0.0000000000000E+00
(PID.TID 0000.0001) %MON thSI_SnwH_max_S              =   0.0000000000000E+00
(PID.TID 0000.0001) %MON thSI_SnwH_max_N              =   0.0000000000000E+00
(PID.TID 0000.0001) %MON thSI_TotEnerg_G              =  -8.2754900994643E+18
(PID.TID 0000.0001) %MON thSI_Tsrf_ave_G              =  -7.9896062108501E+00
(PID.TID 0000.0001) %MON thSI_Tsrf_ave_S              =   0.0000000000000E+00
(PID.TID 0000.0001) %MON thSI_Tsrf_ave_N              =  -7.9896062108501E+00
(PID.TID 0000.0001) %MON thSI_Tsrf_min_S              =   0.0000000000000E+00
(PID.TID 0000.0001) %MON thSI_Tsrf_min_N              =  -9.6434291558427E+00
(PID.TID 0000.0001) %MON thSI_Tsrf_max_S              =   0.0000000000000E+00
(PID.TID 0000.0001) %MON thSI_Tsrf_max_N              =  -3.2099786718198E+00
(PID.TID 0000.0001) %MON thSI_Tic1_ave_G              =  -6.9615327569600E+00
(PID.TID 0000.0001) %MON thSI_Tic1_ave_S              =   0.0000000000000E+00
(PID.TID 0000.0001) %MON thSI_Tic1_ave_N              =  -6.9615327569600E+00
(PID.TID 0000.0001) %MON thSI_Tic1_min_S              =   0.0000000000000E+00
(PID.TID 0000.0001) %MON thSI_Tic1_min_N              =  -7.3607871833763E+00
(PID.TID 0000.0001) %MON thSI_Tic1_max_S              =   0.0000000000000E+00
(PID.TID 0000.0001) %MON thSI_Tic1_max_N              =  -2.8117429272249E+00
(PID.TID 0000.0001) %MON thSI_Tic2_ave_G              =  -3.3581859230430E+00
(PID.TID 0000.0001) %MON thSI_Tic2_ave_S              =   0.0000000000000E+00
(PID.TID 0000.0001) %MON thSI_Tic2_ave_N              =  -3.3581859230430E+00
(PID.TID 0000.0001) %MON thSI_Tic2_min_S              =   0.0000000000000E+00
(PID.TID 0000.0001) %MON thSI_Tic2_min_N              =  -3.4961603026078E+00
(PID.TID 0000.0001) %MON thSI_Tic2_max_S              =   0.0000000000000E+00
(PID.TID 0000.0001) %MON thSI_Tic2_max_N              =  -2.0131587797555E+00
(PID.TID 0000.0001) // =======================================================
(PID.TID 0000.0001) // End MONITOR Therm.SeaIce statistics
(PID.TID 0000.0001) // =======================================================
 cg2d: Sum(rhs),rhsMax =   2.32830643653870E-10  1.72286099257510E+04
(PID.TID 0000.0001)                    cg2d_init_res =    9.95049303974432E+03
(PID.TID 0000.0001)                       cg2d_iters =    16
(PID.TID 0000.0001)                         cg2d_res =    5.55037643787392E-11
(PID.TID 0000.0001) // =======================================================
(PID.TID 0000.0001) // Begin MONITOR dynamic field statistics
(PID.TID 0000.0001) // =======================================================
(PID.TID 0000.0001) %MON time_tsnumber                =                    36
(PID.TID 0000.0001) %MON time_secondsf                =   1.6200000000000E+04
(PID.TID 0000.0001) %MON dynstat_eta_max              =   3.0019474090315E+03
(PID.TID 0000.0001) %MON dynstat_eta_min              =  -7.8638689001892E+02
(PID.TID 0000.0001) %MON dynstat_eta_mean             =   1.1567345602331E-13
(PID.TID 0000.0001) %MON dynstat_eta_sd               =   4.3046949538526E+02
(PID.TID 0000.0001) %MON dynstat_eta_del2             =   3.6316133023289E+01
(PID.TID 0000.0001) %MON dynstat_uvel_max             =   4.1656857340631E+00
(PID.TID 0000.0001) %MON dynstat_uvel_min             =  -4.1349508848783E+00
(PID.TID 0000.0001) %MON dynstat_uvel_mean            =   8.0196026222149E-02
(PID.TID 0000.0001) %MON dynstat_uvel_sd              =   7.4759494536955E-01
(PID.TID 0000.0001) %MON dynstat_uvel_del2            =   3.1453013119027E-02
(PID.TID 0000.0001) %MON dynstat_vvel_max             =   4.2547495489277E+00
(PID.TID 0000.0001) %MON dynstat_vvel_min             =  -4.4179098294585E+00
(PID.TID 0000.0001) %MON dynstat_vvel_mean            =   2.4018580777381E-02
(PID.TID 0000.0001) %MON dynstat_vvel_sd              =   7.7634342488483E-01
(PID.TID 0000.0001) %MON dynstat_vvel_del2            =   3.1014064910689E-02
(PID.TID 0000.0001) %MON dynstat_wvel_max             =   1.4355642313017E-01
(PID.TID 0000.0001) %MON dynstat_wvel_min             =  -9.1545186294108E-02
(PID.TID 0000.0001) %MON dynstat_wvel_mean            =   3.2504411110899E-04
(PID.TID 0000.0001) %MON dynstat_wvel_sd              =   9.2111728965975E-03
(PID.TID 0000.0001) %MON dynstat_wvel_del2            =   2.1627490053040E-03
(PID.TID 0000.0001) %MON dynstat_theta_max            =   4.3819952312045E+02
(PID.TID 0000.0001) %MON dynstat_theta_min            =   2.8129753252689E+02
(PID.TID 0000.0001) %MON dynstat_theta_mean           =   3.3166105174335E+02
(PID.TID 0000.0001) %MON dynstat_theta_sd             =   4.7475968278728E+01
(PID.TID 0000.0001) %MON dynstat_theta_del2           =   3.5728328832477E-02
(PID.TID 0000.0001) %MON dynstat_salt_max             =   4.9368592634960E+00
(PID.TID 0000.0001) %MON dynstat_salt_min             =  -3.6476039263104E-02
(PID.TID 0000.0001) %MON dynstat_salt_mean            =   1.2701551607312E-01
(PID.TID 0000.0001) %MON dynstat_salt_sd              =   4.8399931769437E-01
(PID.TID 0000.0001) %MON dynstat_salt_del2            =   1.4439386540261E-02
(PID.TID 0000.0001) %MON advcfl_uvel_max              =   6.0598315820549E-03
(PID.TID 0000.0001) %MON advcfl_vvel_max              =   7.7308236134052E-03
(PID.TID 0000.0001) %MON advcfl_wvel_max              =   2.6398079953212E-03
(PID.TID 0000.0001) %MON advcfl_W_hf_max              =   1.9928959028595E-02
(PID.TID 0000.0001) %MON pe_b_mean                    =  -1.1908185165871E+00
(PID.TID 0000.0001) %MON ke_max                       =   1.0410047621829E+01
(PID.TID 0000.0001) %MON ke_mean                      =   5.8080432799354E-01
(PID.TID 0000.0001) %MON ke_vol                       =   4.9523908919847E+19
(PID.TID 0000.0001) %MON vort_r_min                   =  -1.6781617707161E-05
(PID.TID 0000.0001) %MON vort_r_max                   =   1.5402629935527E-05
(PID.TID 0000.0001) %MON vort_a_mean                  =   6.7242814765360E-08
(PID.TID 0000.0001) %MON vort_a_sd                    =   8.4015948393066E-05
(PID.TID 0000.0001) %MON vort_p_mean                  =   6.8939481616546E-08
(PID.TID 0000.0001) %MON vort_p_sd                    =   9.1637885403011E-05
(PID.TID 0000.0001) %MON surfExpan_theta_mean         =  -3.1366086465263E-02
(PID.TID 0000.0001) %MON surfExpan_salt_mean          =  -1.8141719420275E-03
(PID.TID 0000.0001) %MON surfExpan_Heat_mean          =   2.4320397379310E+00
(PID.TID 0000.0001) %MON En_Budget_T2PE_mean          =  -4.7859353620160E+00
(PID.TID 0000.0001) // =======================================================
(PID.TID 0000.0001) // End MONITOR dynamic field statistics
(PID.TID 0000.0001) // =======================================================
(PID.TID 0000.0001) // =======================================================
(PID.TID 0000.0001) // Begin MONITOR Land statistics
(PID.TID 0000.0001) // =======================================================
(PID.TID 0000.0001) %MON land_time_sec                =   1.6200000000000E+04
(PID.TID 0000.0001) %MON land_SnwH_ave_G              =   1.5321328644350E-01
(PID.TID 0000.0001) %MON land_SnwH_ave_S              =   5.5903173556380E-01
(PID.TID 0000.0001) %MON land_SnwH_ave_T              =   0.0000000000000E+00
(PID.TID 0000.0001) %MON land_SnwH_ave_N              =   1.2387958100095E-01
(PID.TID 0000.0001) %MON land_SnwH_max_S              =   9.9998021925047E-01
(PID.TID 0000.0001) %MON land_SnwH_max_T              =   0.0000000000000E+00
(PID.TID 0000.0001) %MON land_SnwH_max_N              =   9.9999763763335E-01
(PID.TID 0000.0001) %MON land_TotEnerg_G              =  -6.3634669688391E+21
(PID.TID 0000.0001) %MON land_TotEnerg_S              =  -5.0024806466042E+21
(PID.TID 0000.0001) %MON land_TotEnerg_T              =   7.2719552293580E+21
(PID.TID 0000.0001) %MON land_TotEnerg_N              =  -8.6329415515930E+21
(PID.TID 0000.0001) %MON land_Tsrf_ave_G              =  -8.6784726026175E+00
(PID.TID 0000.0001) %MON land_Tsrf_ave_S              =  -7.3858074732440E+00
(PID.TID 0000.0001) %MON land_Tsrf_ave_T              =   9.6748841486194E+00
(PID.TID 0000.0001) %MON land_Tsrf_ave_N              =  -2.1353637169742E+01
(PID.TID 0000.0001) %MON land_Tsrf_min_S              =  -3.3466930427780E+01
(PID.TID 0000.0001) %MON land_Tsrf_min_T              =  -2.9305608222268E+00
(PID.TID 0000.0001) %MON land_Tsrf_min_N              =  -5.1994376732583E+01
(PID.TID 0000.0001) %MON land_Tsrf_max_S              =   1.9949179612253E+01
(PID.TID 0000.0001) %MON land_Tsrf_max_T              =   1.9723106224271E+01
(PID.TID 0000.0001) %MON land_Tsrf_max_N              =   7.5404552373401E+00
(PID.TID 0000.0001) %MON land_Tgr1_ave_G              =  -7.5006404403763E+00
(PID.TID 0000.0001) %MON land_Tgr1_ave_S              =  -7.3072986705576E+00
(PID.TID 0000.0001) %MON land_Tgr1_ave_T              =   9.6748841486194E+00
(PID.TID 0000.0001) %MON land_Tgr1_ave_N              =  -1.9032669529451E+01
(PID.TID 0000.0001) %MON land_Tgr1_min_S              =  -3.9392587391196E+01
(PID.TID 0000.0001) %MON land_Tgr1_min_T              =  -2.9305608222268E+00
(PID.TID 0000.0001) %MON land_Tgr1_min_N              =  -5.4558544736756E+01
(PID.TID 0000.0001) %MON land_Tgr1_max_S              =   1.9949179612253E+01
(PID.TID 0000.0001) %MON land_Tgr1_max_T              =   1.9723106224271E+01
(PID.TID 0000.0001) %MON land_Tgr1_max_N              =   7.5404552373401E+00
(PID.TID 0000.0001) %MON land_Tgr2_ave_G              =   4.2017879877898E+00
(PID.TID 0000.0001) %MON land_Tgr2_ave_S              =  -1.8724536582565E+01
(PID.TID 0000.0001) %MON land_Tgr2_ave_T              =   2.2007282582379E+01
(PID.TID 0000.0001) %MON land_Tgr2_ave_N              =  -2.5103765351364E-01
(PID.TID 0000.0001) %MON land_Tgr2_min_S              =  -6.4746785454129E+01
(PID.TID 0000.0001) %MON land_Tgr2_min_T              =  -9.7028164343969E+00
(PID.TID 0000.0001) %MON land_Tgr2_min_N              =  -4.0202155565227E+01
(PID.TID 0000.0001) %MON land_Tgr2_max_S              =   2.3359242615048E+01
(PID.TID 0000.0001) %MON land_Tgr2_max_T              =   3.1346902387403E+01
(PID.TID 0000.0001) %MON land_Tgr2_max_N              =   2.9815568320750E+01
(PID.TID 0000.0001) %MON land_grdW_ave_G              =   4.8667767988233E-01
(PID.TID 0000.0001) %MON land_grdW_ave_S              =   3.0844281049074E-01
(PID.TID 0000.0001) %MON land_grdW_ave_T              =   5.6398708330522E-01
(PID.TID 0000.0001) %MON land_grdW_ave_N              =   4.9287103953563E-01
(PID.TID 0000.0001) %MON land_grdW_min_S              =   2.8451948693727E-02
(PID.TID 0000.0001) %MON land_grdW_min_T              =   0.0000000000000E+00
(PID.TID 0000.0001) %MON land_grdW_min_N              =   0.0000000000000E+00
(PID.TID 0000.0001) // =======================================================
(PID.TID 0000.0001) // End MONITOR Land statistics
(PID.TID 0000.0001) // =======================================================
(PID.TID 0000.0001) // =======================================================
(PID.TID 0000.0001) // Begin MONITOR Therm.SeaIce statistics
(PID.TID 0000.0001) // =======================================================
(PID.TID 0000.0001) %MON thSI_time_sec                =   1.6200000000000E+04
(PID.TID 0000.0001) %MON thSI_Ice_Area_G              =   2.4494382192967E+11
(PID.TID 0000.0001) %MON thSI_Ice_Area_S              =   0.0000000000000E+00
(PID.TID 0000.0001) %MON thSI_Ice_Area_N              =   2.4494382192967E+11
(PID.TID 0000.0001) %MON thSI_IceH_ave_G              =   1.0983831151035E-01
(PID.TID 0000.0001) %MON thSI_IceH_ave_S              =   0.0000000000000E+00
(PID.TID 0000.0001) %MON thSI_IceH_ave_N              =   1.0983831151035E-01
(PID.TID 0000.0001) %MON thSI_IceH_max_S              =   0.0000000000000E+00
(PID.TID 0000.0001) %MON thSI_IceH_max_N              =   1.4985504959948E-01
(PID.TID 0000.0001) %MON thSI_SnwH_ave_G              =   0.0000000000000E+00
(PID.TID 0000.0001) %MON thSI_SnwH_ave_S              =   0.0000000000000E+00
(PID.TID 0000.0001) %MON thSI_SnwH_ave_N              =   0.0000000000000E+00
(PID.TID 0000.0001) %MON thSI_SnwH_max_S              =   0.0000000000000E+00
(PID.TID 0000.0001) %MON thSI_SnwH_max_N              =   0.0000000000000E+00
(PID.TID 0000.0001) %MON thSI_TotEnerg_G              =  -8.3198552462245E+18
(PID.TID 0000.0001) %MON thSI_Tsrf_ave_G              =  -7.9630824875999E+00
(PID.TID 0000.0001) %MON thSI_Tsrf_ave_S              =   0.0000000000000E+00
(PID.TID 0000.0001) %MON thSI_Tsrf_ave_N              =  -7.9630824875999E+00
(PID.TID 0000.0001) %MON thSI_Tsrf_min_S              =   0.0000000000000E+00
(PID.TID 0000.0001) %MON thSI_Tsrf_min_N              =  -9.6740125507106E+00
(PID.TID 0000.0001) %MON thSI_Tsrf_max_S              =   0.0000000000000E+00
(PID.TID 0000.0001) %MON thSI_Tsrf_max_N              =  -3.2518476434765E+00
(PID.TID 0000.0001) %MON thSI_Tic1_ave_G              =  -6.9817377161290E+00
(PID.TID 0000.0001) %MON thSI_Tic1_ave_S              =   0.0000000000000E+00
(PID.TID 0000.0001) %MON thSI_Tic1_ave_N              =  -6.9817377161290E+00
(PID.TID 0000.0001) %MON thSI_Tic1_min_S              =   0.0000000000000E+00
(PID.TID 0000.0001) %MON thSI_Tic1_min_N              =  -7.4019686450041E+00
(PID.TID 0000.0001) %MON thSI_Tic1_max_S              =   0.0000000000000E+00
(PID.TID 0000.0001) %MON thSI_Tic1_max_N              =  -2.8428860147440E+00
(PID.TID 0000.0001) %MON thSI_Tic2_ave_G              =  -3.3700610312051E+00
(PID.TID 0000.0001) %MON thSI_Tic2_ave_S              =   0.0000000000000E+00
(PID.TID 0000.0001) %MON thSI_Tic2_ave_N              =  -3.3700610312051E+00
(PID.TID 0000.0001) %MON thSI_Tic2_min_S              =   0.0000000000000E+00
(PID.TID 0000.0001) %MON thSI_Tic2_min_N              =  -3.5147023626380E+00
(PID.TID 0000.0001) %MON thSI_Tic2_max_S              =   0.0000000000000E+00
(PID.TID 0000.0001) %MON thSI_Tic2_max_N              =  -2.0233950040816E+00
(PID.TID 0000.0001) // =======================================================
(PID.TID 0000.0001) // End MONITOR Therm.SeaIce statistics
(PID.TID 0000.0001) // =======================================================
 cg2d: Sum(rhs),rhsMax =   2.32830643653870E-10  1.71008520774088E+04
(PID.TID 0000.0001)                    cg2d_init_res =    9.79071153099428E+03
(PID.TID 0000.0001)                       cg2d_iters =    16
(PID.TID 0000.0001)                         cg2d_res =    5.41854274322026E-11
(PID.TID 0000.0001) // =======================================================
(PID.TID 0000.0001) // Begin MONITOR dynamic field statistics
(PID.TID 0000.0001) // =======================================================
(PID.TID 0000.0001) %MON time_tsnumber                =                    37
(PID.TID 0000.0001) %MON time_secondsf                =   1.6650000000000E+04
(PID.TID 0000.0001) %MON dynstat_eta_max              =   3.0258079558543E+03
(PID.TID 0000.0001) %MON dynstat_eta_min              =  -8.5096490004871E+02
(PID.TID 0000.0001) %MON dynstat_eta_mean             =  -1.9278909337219E-14
(PID.TID 0000.0001) %MON dynstat_eta_sd               =   4.2745690142714E+02
(PID.TID 0000.0001) %MON dynstat_eta_del2             =   3.6345443769113E+01
(PID.TID 0000.0001) %MON dynstat_uvel_max             =   4.1665133024536E+00
(PID.TID 0000.0001) %MON dynstat_uvel_min             =  -3.8343700273458E+00
(PID.TID 0000.0001) %MON dynstat_uvel_mean            =   8.6225297226743E-02
(PID.TID 0000.0001) %MON dynstat_uvel_sd              =   7.3904587545683E-01
(PID.TID 0000.0001) %MON dynstat_uvel_del2            =   3.2237110809752E-02
(PID.TID 0000.0001) %MON dynstat_vvel_max             =   4.0776539626081E+00
(PID.TID 0000.0001) %MON dynstat_vvel_min             =  -4.2668479302920E+00
(PID.TID 0000.0001) %MON dynstat_vvel_mean            =   2.5419403997010E-02
(PID.TID 0000.0001) %MON dynstat_vvel_sd              =   7.6726334348867E-01
(PID.TID 0000.0001) %MON dynstat_vvel_del2            =   3.1795624735246E-02
(PID.TID 0000.0001) %MON dynstat_wvel_max             =   1.2175287320995E-01
(PID.TID 0000.0001) %MON dynstat_wvel_min             =  -9.5238577138233E-02
(PID.TID 0000.0001) %MON dynstat_wvel_mean            =   2.8047949558712E-04
(PID.TID 0000.0001) %MON dynstat_wvel_sd              =   9.1121406801132E-03
(PID.TID 0000.0001) %MON dynstat_wvel_del2            =   2.1912303058521E-03
(PID.TID 0000.0001) %MON dynstat_theta_max            =   4.3830337580027E+02
(PID.TID 0000.0001) %MON dynstat_theta_min            =   2.8108526491858E+02
(PID.TID 0000.0001) %MON dynstat_theta_mean           =   3.3165870296967E+02
(PID.TID 0000.0001) %MON dynstat_theta_sd             =   4.7478099537841E+01
(PID.TID 0000.0001) %MON dynstat_theta_del2           =   3.6649990382851E-02
(PID.TID 0000.0001) %MON dynstat_salt_max             =   4.9653591210493E+00
(PID.TID 0000.0001) %MON dynstat_salt_min             =  -3.9044455698485E-02
(PID.TID 0000.0001) %MON dynstat_salt_mean            =   1.3027232968816E-01
(PID.TID 0000.0001) %MON dynstat_salt_sd              =   4.9485500432716E-01
(PID.TID 0000.0001) %MON dynstat_salt_del2            =   1.4746105711492E-02
(PID.TID 0000.0001) %MON advcfl_uvel_max              =   6.2618993357299E-03
(PID.TID 0000.0001) %MON advcfl_vvel_max              =   7.5850744385631E-03
(PID.TID 0000.0001) %MON advcfl_wvel_max              =   2.7426181632658E-03
(PID.TID 0000.0001) %MON advcfl_W_hf_max              =   2.0960209263405E-02
(PID.TID 0000.0001) %MON pe_b_mean                    =  -1.1830546721734E+00
(PID.TID 0000.0001) %MON ke_max                       =   9.5802886276558E+00
(PID.TID 0000.0001) %MON ke_mean                      =   5.6805296775683E-01
(PID.TID 0000.0001) %MON ke_vol                       =   4.9523908919847E+19
(PID.TID 0000.0001) %MON vort_r_min                   =  -1.6232708955125E-05
(PID.TID 0000.0001) %MON vort_r_max                   =   1.6073826308296E-05
(PID.TID 0000.0001) %MON vort_a_mean                  =   6.7242814765318E-08
(PID.TID 0000.0001) %MON vort_a_sd                    =   8.4017692742834E-05
(PID.TID 0000.0001) %MON vort_p_mean                  =   6.8939481796302E-08
(PID.TID 0000.0001) %MON vort_p_sd                    =   9.1629261726147E-05
(PID.TID 0000.0001) %MON surfExpan_theta_mean         =  -2.6981948802203E-02
(PID.TID 0000.0001) %MON surfExpan_salt_mean          =  -1.8321996157761E-03
(PID.TID 0000.0001) %MON surfExpan_Heat_mean          =   2.0722988036288E+00
(PID.TID 0000.0001) %MON En_Budget_T2PE_mean          =  -4.1039566106962E+00
(PID.TID 0000.0001) // =======================================================
(PID.TID 0000.0001) // End MONITOR dynamic field statistics
(PID.TID 0000.0001) // =======================================================
(PID.TID 0000.0001) // =======================================================
(PID.TID 0000.0001) // Begin MONITOR Land statistics
(PID.TID 0000.0001) // =======================================================
(PID.TID 0000.0001) %MON land_time_sec                =   1.6650000000000E+04
(PID.TID 0000.0001) %MON land_SnwH_ave_G              =   1.5321236256767E-01
(PID.TID 0000.0001) %MON land_SnwH_ave_S              =   5.5903090077240E-01
(PID.TID 0000.0001) %MON land_SnwH_ave_T              =   0.0000000000000E+00
(PID.TID 0000.0001) %MON land_SnwH_ave_N              =   1.2387801128956E-01
(PID.TID 0000.0001) %MON land_SnwH_max_S              =   9.9997964718076E-01
(PID.TID 0000.0001) %MON land_SnwH_max_T              =   0.0000000000000E+00
(PID.TID 0000.0001) %MON land_SnwH_max_N              =   9.9999757344860E-01
(PID.TID 0000.0001) %MON land_TotEnerg_G              =  -6.3642854274729E+21
(PID.TID 0000.0001) %MON land_TotEnerg_S              =  -5.0024748599992E+21
(PID.TID 0000.0001) %MON land_TotEnerg_T              =   7.2716248038989E+21
(PID.TID 0000.0001) %MON land_TotEnerg_N              =  -8.6334353713726E+21
(PID.TID 0000.0001) %MON land_Tsrf_ave_G              =  -8.6921782862623E+00
(PID.TID 0000.0001) %MON land_Tsrf_ave_S              =  -7.3763501417910E+00
(PID.TID 0000.0001) %MON land_Tsrf_ave_T              =   9.6422443069406E+00
(PID.TID 0000.0001) %MON land_Tsrf_ave_N              =  -2.1362213120459E+01
(PID.TID 0000.0001) %MON land_Tsrf_min_S              =  -3.3434772825859E+01
(PID.TID 0000.0001) %MON land_Tsrf_min_T              =  -3.0351066330186E+00
(PID.TID 0000.0001) %MON land_Tsrf_min_N              =  -5.1985921883853E+01
(PID.TID 0000.0001) %MON land_Tsrf_max_S              =   1.9940820690132E+01
(PID.TID 0000.0001) %MON land_Tsrf_max_T              =   1.9690089179640E+01
(PID.TID 0000.0001) %MON land_Tsrf_max_N              =   7.4880181410672E+00
(PID.TID 0000.0001) %MON land_Tgr1_ave_G              =  -7.5189319749027E+00
(PID.TID 0000.0001) %MON land_Tgr1_ave_S              =  -7.3118996667839E+00
(PID.TID 0000.0001) %MON land_Tgr1_ave_T              =   9.6422443069406E+00
(PID.TID 0000.0001) %MON land_Tgr1_ave_N              =  -1.9045820813644E+01
(PID.TID 0000.0001) %MON land_Tgr1_min_S              =  -3.9403059891870E+01
(PID.TID 0000.0001) %MON land_Tgr1_min_T              =  -3.0351066330186E+00
(PID.TID 0000.0001) %MON land_Tgr1_min_N              =  -5.4546245092493E+01
(PID.TID 0000.0001) %MON land_Tgr1_max_S              =   1.9940820690132E+01
(PID.TID 0000.0001) %MON land_Tgr1_max_T              =   1.9690089179640E+01
(PID.TID 0000.0001) %MON land_Tgr1_max_N              =   7.4880181410672E+00
(PID.TID 0000.0001) %MON land_Tgr2_ave_G              =   4.2016088692451E+00
(PID.TID 0000.0001) %MON land_Tgr2_ave_S              =  -1.8724345148528E+01
(PID.TID 0000.0001) %MON land_Tgr2_ave_T              =   2.2007084414337E+01
(PID.TID 0000.0001) %MON land_Tgr2_ave_N              =  -2.5132425636430E-01
(PID.TID 0000.0001) %MON land_Tgr2_min_S              =  -6.4746358440236E+01
(PID.TID 0000.0001) %MON land_Tgr2_min_T              =  -9.7027247374930E+00
(PID.TID 0000.0001) %MON land_Tgr2_min_N              =  -4.0202388316787E+01
(PID.TID 0000.0001) %MON land_Tgr2_max_S              =   2.3359166876153E+01
(PID.TID 0000.0001) %MON land_Tgr2_max_T              =   3.1346449752188E+01
(PID.TID 0000.0001) %MON land_Tgr2_max_N              =   2.9814994574701E+01
(PID.TID 0000.0001) %MON land_grdW_ave_G              =   4.8667064709816E-01
(PID.TID 0000.0001) %MON land_grdW_ave_S              =   3.0843554390251E-01
(PID.TID 0000.0001) %MON land_grdW_ave_T              =   5.6397006992809E-01
(PID.TID 0000.0001) %MON land_grdW_ave_N              =   4.9287074734252E-01
(PID.TID 0000.0001) %MON land_grdW_min_S              =   2.8535126452031E-02
(PID.TID 0000.0001) %MON land_grdW_min_T              =   0.0000000000000E+00
(PID.TID 0000.0001) %MON land_grdW_min_N              =   0.0000000000000E+00
(PID.TID 0000.0001) // =======================================================
(PID.TID 0000.0001) // End MONITOR Land statistics
(PID.TID 0000.0001) // =======================================================
(PID.TID 0000.0001) // =======================================================
(PID.TID 0000.0001) // Begin MONITOR Therm.SeaIce statistics
(PID.TID 0000.0001) // =======================================================
(PID.TID 0000.0001) %MON thSI_time_sec                =   1.6650000000000E+04
(PID.TID 0000.0001) %MON thSI_Ice_Area_G              =   2.4769703025121E+11
(PID.TID 0000.0001) %MON thSI_Ice_Area_S              =   0.0000000000000E+00
(PID.TID 0000.0001) %MON thSI_Ice_Area_N              =   2.4769703025121E+11
(PID.TID 0000.0001) %MON thSI_IceH_ave_G              =   1.0918874107391E-01
(PID.TID 0000.0001) %MON thSI_IceH_ave_S              =   0.0000000000000E+00
(PID.TID 0000.0001) %MON thSI_IceH_ave_N              =   1.0918874107391E-01
(PID.TID 0000.0001) %MON thSI_IceH_max_S              =   0.0000000000000E+00
(PID.TID 0000.0001) %MON thSI_IceH_max_N              =   1.4999611577216E-01
(PID.TID 0000.0001) %MON thSI_SnwH_ave_G              =   0.0000000000000E+00
(PID.TID 0000.0001) %MON thSI_SnwH_ave_S              =   0.0000000000000E+00
(PID.TID 0000.0001) %MON thSI_SnwH_ave_N              =   0.0000000000000E+00
(PID.TID 0000.0001) %MON thSI_SnwH_max_S              =   0.0000000000000E+00
(PID.TID 0000.0001) %MON thSI_SnwH_max_N              =   0.0000000000000E+00
(PID.TID 0000.0001) %MON thSI_TotEnerg_G              =  -8.3643280201753E+18
(PID.TID 0000.0001) %MON thSI_Tsrf_ave_G              =  -7.9377373358484E+00
(PID.TID 0000.0001) %MON thSI_Tsrf_ave_S              =   0.0000000000000E+00
(PID.TID 0000.0001) %MON thSI_Tsrf_ave_N              =  -7.9377373358484E+00
(PID.TID 0000.0001) %MON thSI_Tsrf_min_S              =   0.0000000000000E+00
(PID.TID 0000.0001) %MON thSI_Tsrf_min_N              =  -9.7013080545233E+00
(PID.TID 0000.0001) %MON thSI_Tsrf_max_S              =   0.0000000000000E+00
(PID.TID 0000.0001) %MON thSI_Tsrf_max_N              =  -3.2931112979361E+00
(PID.TID 0000.0001) %MON thSI_Tic1_ave_G              =  -6.9986307209301E+00
(PID.TID 0000.0001) %MON thSI_Tic1_ave_S              =   0.0000000000000E+00
(PID.TID 0000.0001) %MON thSI_Tic1_ave_N              =  -6.9986307209301E+00
(PID.TID 0000.0001) %MON thSI_Tic1_min_S              =   0.0000000000000E+00
(PID.TID 0000.0001) %MON thSI_Tic1_min_N              =  -7.4394343100498E+00
(PID.TID 0000.0001) %MON thSI_Tic1_max_S              =   0.0000000000000E+00
(PID.TID 0000.0001) %MON thSI_Tic1_max_N              =  -2.8735978588315E+00
(PID.TID 0000.0001) %MON thSI_Tic2_ave_G              =  -3.3804596546914E+00
(PID.TID 0000.0001) %MON thSI_Tic2_ave_S              =   0.0000000000000E+00
(PID.TID 0000.0001) %MON thSI_Tic2_ave_N              =  -3.3804596546914E+00
(PID.TID 0000.0001) %MON thSI_Tic2_min_S              =   0.0000000000000E+00
(PID.TID 0000.0001) %MON thSI_Tic2_min_N              =  -3.5316492018875E+00
(PID.TID 0000.0001) %MON thSI_Tic2_max_S              =   0.0000000000000E+00
(PID.TID 0000.0001) %MON thSI_Tic2_max_N              =  -2.0334902492363E+00
(PID.TID 0000.0001) // =======================================================
(PID.TID 0000.0001) // End MONITOR Therm.SeaIce statistics
(PID.TID 0000.0001) // =======================================================
 cg2d: Sum(rhs),rhsMax =   1.16415321826935E-09  1.71479454395221E+04
(PID.TID 0000.0001)                    cg2d_init_res =    9.64290362814535E+03
(PID.TID 0000.0001)                       cg2d_iters =    16
(PID.TID 0000.0001)                         cg2d_res =    5.34326213770366E-11
(PID.TID 0000.0001) // =======================================================
(PID.TID 0000.0001) // Begin MONITOR dynamic field statistics
(PID.TID 0000.0001) // =======================================================
(PID.TID 0000.0001) %MON time_tsnumber                =                    38
(PID.TID 0000.0001) %MON time_secondsf                =   1.7100000000000E+04
(PID.TID 0000.0001) %MON dynstat_eta_max              =   3.0472043488323E+03
(PID.TID 0000.0001) %MON dynstat_eta_min              =  -9.0023332415390E+02
(PID.TID 0000.0001) %MON dynstat_eta_mean             =   7.7115637348875E-14
(PID.TID 0000.0001) %MON dynstat_eta_sd               =   4.2544921154344E+02
(PID.TID 0000.0001) %MON dynstat_eta_del2             =   3.6361088075671E+01
(PID.TID 0000.0001) %MON dynstat_uvel_max             =   4.3014514175422E+00
(PID.TID 0000.0001) %MON dynstat_uvel_min             =  -3.5917084187110E+00
(PID.TID 0000.0001) %MON dynstat_uvel_mean            =   9.1775590728009E-02
(PID.TID 0000.0001) %MON dynstat_uvel_sd              =   7.3044727635943E-01
(PID.TID 0000.0001) %MON dynstat_uvel_del2            =   3.3024363974335E-02
(PID.TID 0000.0001) %MON dynstat_vvel_max             =   3.8967073786964E+00
(PID.TID 0000.0001) %MON dynstat_vvel_min             =  -4.1718923356329E+00
(PID.TID 0000.0001) %MON dynstat_vvel_mean            =   2.7289985394253E-02
(PID.TID 0000.0001) %MON dynstat_vvel_sd              =   7.5816326962813E-01
(PID.TID 0000.0001) %MON dynstat_vvel_del2            =   3.2582795912492E-02
(PID.TID 0000.0001) %MON dynstat_wvel_max             =   1.1064685321995E-01
(PID.TID 0000.0001) %MON dynstat_wvel_min             =  -9.8545881120631E-02
(PID.TID 0000.0001) %MON dynstat_wvel_mean            =   2.3781057669507E-04
(PID.TID 0000.0001) %MON dynstat_wvel_sd              =   9.0598787915824E-03
(PID.TID 0000.0001) %MON dynstat_wvel_del2            =   2.2248801079464E-03
(PID.TID 0000.0001) %MON dynstat_theta_max            =   4.3838684537288E+02
(PID.TID 0000.0001) %MON dynstat_theta_min            =   2.8087291147291E+02
(PID.TID 0000.0001) %MON dynstat_theta_mean           =   3.3165633871070E+02
(PID.TID 0000.0001) %MON dynstat_theta_sd             =   4.7480240893668E+01
(PID.TID 0000.0001) %MON dynstat_theta_del2           =   3.7560389378923E-02
(PID.TID 0000.0001) %MON dynstat_salt_max             =   4.9931748701255E+00
(PID.TID 0000.0001) %MON dynstat_salt_min             =  -4.1656719646143E-02
(PID.TID 0000.0001) %MON dynstat_salt_mean            =   1.3351976714482E-01
(PID.TID 0000.0001) %MON dynstat_salt_sd              =   5.0562548930117E-01
(PID.TID 0000.0001) %MON dynstat_salt_del2            =   1.5052891937888E-02
(PID.TID 0000.0001) %MON advcfl_uvel_max              =   6.4646993346500E-03
(PID.TID 0000.0001) %MON advcfl_vvel_max              =   7.2769662017706E-03
(PID.TID 0000.0001) %MON advcfl_wvel_max              =   2.8452047970844E-03
(PID.TID 0000.0001) %MON advcfl_W_hf_max              =   2.1992726005798E-02
(PID.TID 0000.0001) %MON pe_b_mean                    =  -1.1751798468475E+00
(PID.TID 0000.0001) %MON ke_max                       =   9.2441514956572E+00
(PID.TID 0000.0001) %MON ke_mean                      =   5.5541277406511E-01
(PID.TID 0000.0001) %MON ke_vol                       =   4.9523908919847E+19
(PID.TID 0000.0001) %MON vort_r_min                   =  -1.5724105945399E-05
(PID.TID 0000.0001) %MON vort_r_max                   =   1.6738083385538E-05
(PID.TID 0000.0001) %MON vort_a_mean                  =   6.7242814765405E-08
(PID.TID 0000.0001) %MON vort_a_sd                    =   8.4019331794847E-05
(PID.TID 0000.0001) %MON vort_p_mean                  =   6.8939481548735E-08
(PID.TID 0000.0001) %MON vort_p_sd                    =   9.1621645169232E-05
(PID.TID 0000.0001) %MON surfExpan_theta_mean         =  -2.2824037619355E-02
(PID.TID 0000.0001) %MON surfExpan_salt_mean          =  -1.8355419044607E-03
(PID.TID 0000.0001) %MON surfExpan_Heat_mean          =   1.7311561044040E+00
(PID.TID 0000.0001) %MON En_Budget_T2PE_mean          =  -3.4560953427107E+00
(PID.TID 0000.0001) // =======================================================
(PID.TID 0000.0001) // End MONITOR dynamic field statistics
(PID.TID 0000.0001) // =======================================================
(PID.TID 0000.0001) // =======================================================
(PID.TID 0000.0001) // Begin MONITOR Land statistics
(PID.TID 0000.0001) // =======================================================
(PID.TID 0000.0001) %MON land_time_sec                =   1.7100000000000E+04
(PID.TID 0000.0001) %MON land_SnwH_ave_G              =   1.5321144333718E-01
(PID.TID 0000.0001) %MON land_SnwH_ave_S              =   5.5903006771119E-01
(PID.TID 0000.0001) %MON land_SnwH_ave_T              =   0.0000000000000E+00
(PID.TID 0000.0001) %MON land_SnwH_ave_N              =   1.2387645027121E-01
(PID.TID 0000.0001) %MON land_SnwH_max_S              =   9.9997907329996E-01
(PID.TID 0000.0001) %MON land_SnwH_max_T              =   0.0000000000000E+00
(PID.TID 0000.0001) %MON land_SnwH_max_N              =   9.9999750918914E-01
(PID.TID 0000.0001) %MON land_TotEnerg_G              =  -6.3650743231371E+21
(PID.TID 0000.0001) %MON land_TotEnerg_S              =  -5.0024664073906E+21
(PID.TID 0000.0001) %MON land_TotEnerg_T              =   7.2713138653974E+21
(PID.TID 0000.0001) %MON land_TotEnerg_N              =  -8.6339217811438E+21
(PID.TID 0000.0001) %MON land_Tsrf_ave_G              =  -8.7043235368792E+00
(PID.TID 0000.0001) %MON land_Tsrf_ave_S              =  -7.3634743644605E+00
(PID.TID 0000.0001) %MON land_Tsrf_ave_T              =   9.6120460717204E+00
(PID.TID 0000.0001) %MON land_Tsrf_ave_N              =  -2.1370419787898E+01
(PID.TID 0000.0001) %MON land_Tsrf_min_S              =  -3.3401982354318E+01
(PID.TID 0000.0001) %MON land_Tsrf_min_T              =  -3.1368793690718E+00
(PID.TID 0000.0001) %MON land_Tsrf_min_N              =  -5.1977331525702E+01
(PID.TID 0000.0001) %MON land_Tsrf_max_S              =   1.9935476708511E+01
(PID.TID 0000.0001) %MON land_Tsrf_max_T              =   1.9661851588811E+01
(PID.TID 0000.0001) %MON land_Tsrf_max_N              =   7.4400978176109E+00
(PID.TID 0000.0001) %MON land_Tgr1_ave_G              =  -7.5361212333150E+00
(PID.TID 0000.0001) %MON land_Tgr1_ave_S              =  -7.3157265742135E+00
(PID.TID 0000.0001) %MON land_Tgr1_ave_T              =   9.6120460717204E+00
(PID.TID 0000.0001) %MON land_Tgr1_ave_N              =  -1.9058657725172E+01
(PID.TID 0000.0001) %MON land_Tgr1_min_S              =  -3.9413485939832E+01
(PID.TID 0000.0001) %MON land_Tgr1_min_T              =  -3.1368793690718E+00
(PID.TID 0000.0001) %MON land_Tgr1_min_N              =  -5.4533957401286E+01
(PID.TID 0000.0001) %MON land_Tgr1_max_S              =   1.9935476708511E+01
(PID.TID 0000.0001) %MON land_Tgr1_max_T              =   1.9661851588811E+01
(PID.TID 0000.0001) %MON land_Tgr1_max_N              =   7.4400978176109E+00
(PID.TID 0000.0001) %MON land_Tgr2_ave_G              =   4.2014295392765E+00
(PID.TID 0000.0001) %MON land_Tgr2_ave_S              =  -1.8724153778032E+01
(PID.TID 0000.0001) %MON land_Tgr2_ave_T              =   2.2006885893223E+01
(PID.TID 0000.0001) %MON land_Tgr2_ave_N              =  -2.5161102402190E-01
(PID.TID 0000.0001) %MON land_Tgr2_min_S              =  -6.4745931624916E+01
(PID.TID 0000.0001) %MON land_Tgr2_min_T              =  -9.7026321071291E+00
(PID.TID 0000.0001) %MON land_Tgr2_min_N              =  -4.0202620841882E+01
(PID.TID 0000.0001) %MON land_Tgr2_max_S              =   2.3359090755580E+01
(PID.TID 0000.0001) %MON land_Tgr2_max_T              =   3.1345995986845E+01
(PID.TID 0000.0001) %MON land_Tgr2_max_N              =   2.9814417827794E+01
(PID.TID 0000.0001) %MON land_grdW_ave_G              =   4.8666364475102E-01
(PID.TID 0000.0001) %MON land_grdW_ave_S              =   3.0842829715302E-01
(PID.TID 0000.0001) %MON land_grdW_ave_T              =   5.6395314120947E-01
(PID.TID 0000.0001) %MON land_grdW_ave_N              =   4.9287045281698E-01
(PID.TID 0000.0001) %MON land_grdW_min_S              =   2.8617610230739E-02
(PID.TID 0000.0001) %MON land_grdW_min_T              =   0.0000000000000E+00
(PID.TID 0000.0001) %MON land_grdW_min_N              =   0.0000000000000E+00
(PID.TID 0000.0001) // =======================================================
(PID.TID 0000.0001) // End MONITOR Land statistics
(PID.TID 0000.0001) // =======================================================
(PID.TID 0000.0001) // =======================================================
(PID.TID 0000.0001) // Begin MONITOR Therm.SeaIce statistics
(PID.TID 0000.0001) // =======================================================
(PID.TID 0000.0001) %MON thSI_time_sec                =   1.7100000000000E+04
(PID.TID 0000.0001) %MON thSI_Ice_Area_G              =   2.5034269419964E+11
(PID.TID 0000.0001) %MON thSI_Ice_Area_S              =   0.0000000000000E+00
(PID.TID 0000.0001) %MON thSI_Ice_Area_N              =   2.5034269419964E+11
(PID.TID 0000.0001) %MON thSI_IceH_ave_G              =   1.0860287662761E-01
(PID.TID 0000.0001) %MON thSI_IceH_ave_S              =   0.0000000000000E+00
(PID.TID 0000.0001) %MON thSI_IceH_ave_N              =   1.0860287662761E-01
(PID.TID 0000.0001) %MON thSI_IceH_max_S              =   0.0000000000000E+00
(PID.TID 0000.0001) %MON thSI_IceH_max_N              =   1.5013850982658E-01
(PID.TID 0000.0001) %MON thSI_SnwH_ave_G              =   0.0000000000000E+00
(PID.TID 0000.0001) %MON thSI_SnwH_ave_S              =   0.0000000000000E+00
(PID.TID 0000.0001) %MON thSI_SnwH_ave_N              =   0.0000000000000E+00
(PID.TID 0000.0001) %MON thSI_SnwH_max_S              =   0.0000000000000E+00
(PID.TID 0000.0001) %MON thSI_SnwH_max_N              =   0.0000000000000E+00
(PID.TID 0000.0001) %MON thSI_TotEnerg_G              =  -8.4089000783316E+18
(PID.TID 0000.0001) %MON thSI_Tsrf_ave_G              =  -7.9134305002119E+00
(PID.TID 0000.0001) %MON thSI_Tsrf_ave_S              =   0.0000000000000E+00
(PID.TID 0000.0001) %MON thSI_Tsrf_ave_N              =  -7.9134305002119E+00
(PID.TID 0000.0001) %MON thSI_Tsrf_min_S              =   0.0000000000000E+00
(PID.TID 0000.0001) %MON thSI_Tsrf_min_N              =  -9.7255130169721E+00
(PID.TID 0000.0001) %MON thSI_Tsrf_max_S              =   0.0000000000000E+00
(PID.TID 0000.0001) %MON thSI_Tsrf_max_N              =  -3.3337280971590E+00
(PID.TID 0000.0001) %MON thSI_Tic1_ave_G              =  -7.0124747216879E+00
(PID.TID 0000.0001) %MON thSI_Tic1_ave_S              =   0.0000000000000E+00
(PID.TID 0000.0001) %MON thSI_Tic1_ave_N              =  -7.0124747216879E+00
(PID.TID 0000.0001) %MON thSI_Tic1_min_S              =   0.0000000000000E+00
(PID.TID 0000.0001) %MON thSI_Tic1_min_N              =  -7.4734188601023E+00
(PID.TID 0000.0001) %MON thSI_Tic1_max_S              =   0.0000000000000E+00
(PID.TID 0000.0001) %MON thSI_Tic1_max_N              =  -2.9038306354098E+00
(PID.TID 0000.0001) %MON thSI_Tic2_ave_G              =  -3.3895012064951E+00
(PID.TID 0000.0001) %MON thSI_Tic2_ave_S              =   0.0000000000000E+00
(PID.TID 0000.0001) %MON thSI_Tic2_ave_N              =  -3.3895012064951E+00
(PID.TID 0000.0001) %MON thSI_Tic2_min_S              =   0.0000000000000E+00
(PID.TID 0000.0001) %MON thSI_Tic2_min_N              =  -3.5471088789704E+00
(PID.TID 0000.0001) %MON thSI_Tic2_max_S              =   0.0000000000000E+00
(PID.TID 0000.0001) %MON thSI_Tic2_max_N              =  -2.0434254499646E+00
(PID.TID 0000.0001) // =======================================================
(PID.TID 0000.0001) // End MONITOR Therm.SeaIce statistics
(PID.TID 0000.0001) // =======================================================
 cg2d: Sum(rhs),rhsMax =   3.25962901115417E-09  1.72249078427219E+04
(PID.TID 0000.0001)                    cg2d_init_res =    9.50498420398610E+03
(PID.TID 0000.0001)                       cg2d_iters =    16
(PID.TID 0000.0001)                         cg2d_res =    5.34405076976436E-11
(PID.TID 0000.0001) // =======================================================
(PID.TID 0000.0001) // Begin MONITOR dynamic field statistics
(PID.TID 0000.0001) // =======================================================
(PID.TID 0000.0001) %MON time_tsnumber                =                    39
(PID.TID 0000.0001) %MON time_secondsf                =   1.7550000000000E+04
(PID.TID 0000.0001) %MON dynstat_eta_max              =   3.0652481678622E+03
(PID.TID 0000.0001) %MON dynstat_eta_min              =  -9.4894530549740E+02
(PID.TID 0000.0001) %MON dynstat_eta_mean             =   3.2131515562031E-14
(PID.TID 0000.0001) %MON dynstat_eta_sd               =   4.2437496528273E+02
(PID.TID 0000.0001) %MON dynstat_eta_del2             =   3.6358088700599E+01
(PID.TID 0000.0001) %MON dynstat_uvel_max             =   4.4363740174928E+00
(PID.TID 0000.0001) %MON dynstat_uvel_min             =  -3.3586317368759E+00
(PID.TID 0000.0001) %MON dynstat_uvel_mean            =   9.6773656894067E-02
(PID.TID 0000.0001) %MON dynstat_uvel_sd              =   7.2176773921894E-01
(PID.TID 0000.0001) %MON dynstat_uvel_del2            =   3.3828966355501E-02
(PID.TID 0000.0001) %MON dynstat_vvel_max             =   3.7160040631522E+00
(PID.TID 0000.0001) %MON dynstat_vvel_min             =  -4.1115269669064E+00
(PID.TID 0000.0001) %MON dynstat_vvel_mean            =   2.9639988051921E-02
(PID.TID 0000.0001) %MON dynstat_vvel_sd              =   7.4918835038206E-01
(PID.TID 0000.0001) %MON dynstat_vvel_del2            =   3.3403418782698E-02
(PID.TID 0000.0001) %MON dynstat_wvel_max             =   1.1461922515714E-01
(PID.TID 0000.0001) %MON dynstat_wvel_min             =  -1.0152351955445E-01
(PID.TID 0000.0001) %MON dynstat_wvel_mean            =   1.9758173856005E-04
(PID.TID 0000.0001) %MON dynstat_wvel_sd              =   9.0568780606701E-03
(PID.TID 0000.0001) %MON dynstat_wvel_del2            =   2.2691456725633E-03
(PID.TID 0000.0001) %MON dynstat_theta_max            =   4.3844760929016E+02
(PID.TID 0000.0001) %MON dynstat_theta_min            =   2.8066047102835E+02
(PID.TID 0000.0001) %MON dynstat_theta_mean           =   3.3165395945107E+02
(PID.TID 0000.0001) %MON dynstat_theta_sd             =   4.7482392754108E+01
(PID.TID 0000.0001) %MON dynstat_theta_del2           =   3.8449179391669E-02
(PID.TID 0000.0001) %MON dynstat_salt_max             =   5.0204414031965E+00
(PID.TID 0000.0001) %MON dynstat_salt_min             =  -4.4310169543956E-02
(PID.TID 0000.0001) %MON dynstat_salt_mean            =   1.3675788656433E-01
(PID.TID 0000.0001) %MON dynstat_salt_sd              =   5.1631178818953E-01
(PID.TID 0000.0001) %MON dynstat_salt_del2            =   1.5359441359666E-02
(PID.TID 0000.0001) %MON advcfl_uvel_max              =   6.6674760156959E-03
(PID.TID 0000.0001) %MON advcfl_vvel_max              =   6.8122349313028E-03
(PID.TID 0000.0001) %MON advcfl_wvel_max              =   2.9473515040407E-03
(PID.TID 0000.0001) %MON advcfl_W_hf_max              =   2.3021262550805E-02
(PID.TID 0000.0001) %MON pe_b_mean                    =  -1.1672864224271E+00
(PID.TID 0000.0001) %MON ke_max                       =   9.0937164390030E+00
(PID.TID 0000.0001) %MON ke_mean                      =   5.4295895060863E-01
(PID.TID 0000.0001) %MON ke_vol                       =   4.9523908919847E+19
(PID.TID 0000.0001) %MON vort_r_min                   =  -1.5265415015555E-05
(PID.TID 0000.0001) %MON vort_r_max                   =   1.7382423161605E-05
(PID.TID 0000.0001) %MON vort_a_mean                  =   6.7242814765284E-08
(PID.TID 0000.0001) %MON vort_a_sd                    =   8.4020859695189E-05
(PID.TID 0000.0001) %MON vort_p_mean                  =   6.8939480841020E-08
(PID.TID 0000.0001) %MON vort_p_sd                    =   9.1614960786292E-05
(PID.TID 0000.0001) %MON surfExpan_theta_mean         =  -1.8942930344149E-02
(PID.TID 0000.0001) %MON surfExpan_salt_mean          =  -1.8235185952189E-03
(PID.TID 0000.0001) %MON surfExpan_Heat_mean          =   1.4128721228981E+00
(PID.TID 0000.0001) %MON En_Budget_T2PE_mean          =  -2.8503213124107E+00
(PID.TID 0000.0001) // =======================================================
(PID.TID 0000.0001) // End MONITOR dynamic field statistics
(PID.TID 0000.0001) // =======================================================
(PID.TID 0000.0001) // =======================================================
(PID.TID 0000.0001) // Begin MONITOR Land statistics
(PID.TID 0000.0001) // =======================================================
(PID.TID 0000.0001) %MON land_time_sec                =   1.7550000000000E+04
(PID.TID 0000.0001) %MON land_SnwH_ave_G              =   1.5321052726571E-01
(PID.TID 0000.0001) %MON land_SnwH_ave_S              =   5.5902923547378E-01
(PID.TID 0000.0001) %MON land_SnwH_ave_T              =   0.0000000000000E+00
(PID.TID 0000.0001) %MON land_SnwH_ave_N              =   1.2387489527889E-01
(PID.TID 0000.0001) %MON land_SnwH_max_S              =   9.9997849751557E-01
(PID.TID 0000.0001) %MON land_SnwH_max_T              =   0.0000000000000E+00
(PID.TID 0000.0001) %MON land_SnwH_max_N              =   9.9999744492364E-01
(PID.TID 0000.0001) %MON land_TotEnerg_G              =  -6.3658357349682E+21
(PID.TID 0000.0001) %MON land_TotEnerg_S              =  -5.0024555067625E+21
(PID.TID 0000.0001) %MON land_TotEnerg_T              =   7.2710207793638E+21
(PID.TID 0000.0001) %MON land_TotEnerg_N              =  -8.6344010075695E+21
(PID.TID 0000.0001) %MON land_Tsrf_ave_G              =  -8.7147804680408E+00
(PID.TID 0000.0001) %MON land_Tsrf_ave_S              =  -7.3472711128016E+00
(PID.TID 0000.0001) %MON land_Tsrf_ave_T              =   9.5843313702400E+00
(PID.TID 0000.0001) %MON land_Tsrf_ave_N              =  -2.1378000888447E+01
(PID.TID 0000.0001) %MON land_Tsrf_min_S              =  -3.3368462436526E+01
(PID.TID 0000.0001) %MON land_Tsrf_min_T              =  -3.2359532673309E+00
(PID.TID 0000.0001) %MON land_Tsrf_min_N              =  -5.1976874653256E+01
(PID.TID 0000.0001) %MON land_Tsrf_max_S              =   1.9932704743162E+01
(PID.TID 0000.0001) %MON land_Tsrf_max_T              =   1.9637881294005E+01
(PID.TID 0000.0001) %MON land_Tsrf_max_N              =   7.4037344510943E+00
(PID.TID 0000.0001) %MON land_Tgr1_ave_G              =  -7.5520889269629E+00
(PID.TID 0000.0001) %MON land_Tgr1_ave_S              =  -7.3188433709621E+00
(PID.TID 0000.0001) %MON land_Tgr1_ave_T              =   9.5843313702400E+00
(PID.TID 0000.0001) %MON land_Tgr1_ave_N              =  -1.9070949865115E+01
(PID.TID 0000.0001) %MON land_Tgr1_min_S              =  -3.9423863512636E+01
(PID.TID 0000.0001) %MON land_Tgr1_min_T              =  -3.2359532673309E+00
(PID.TID 0000.0001) %MON land_Tgr1_min_N              =  -5.4521689562956E+01
(PID.TID 0000.0001) %MON land_Tgr1_max_S              =   1.9932704743162E+01
(PID.TID 0000.0001) %MON land_Tgr1_max_T              =   1.9637881294005E+01
(PID.TID 0000.0001) %MON land_Tgr1_max_N              =   7.4037344510943E+00
(PID.TID 0000.0001) %MON land_Tgr2_ave_G              =   4.2012502003667E+00
(PID.TID 0000.0001) %MON land_Tgr2_ave_S              =  -1.8723962459954E+01
(PID.TID 0000.0001) %MON land_Tgr2_ave_T              =   2.2006687109516E+01
(PID.TID 0000.0001) %MON land_Tgr2_ave_N              =  -2.5189761713610E-01
(PID.TID 0000.0001) %MON land_Tgr2_min_S              =  -6.4745505007305E+01
(PID.TID 0000.0001) %MON land_Tgr2_min_T              =  -9.7025385801832E+00
(PID.TID 0000.0001) %MON land_Tgr2_min_N              =  -4.0202853140912E+01
(PID.TID 0000.0001) %MON land_Tgr2_max_S              =   2.3359014320192E+01
(PID.TID 0000.0001) %MON land_Tgr2_max_T              =   3.1345541184586E+01
(PID.TID 0000.0001) %MON land_Tgr2_max_N              =   2.9813838199410E+01
(PID.TID 0000.0001) %MON land_grdW_ave_G              =   4.8665667054915E-01
(PID.TID 0000.0001) %MON land_grdW_ave_S              =   3.0842106894828E-01
(PID.TID 0000.0001) %MON land_grdW_ave_T              =   5.6393628974169E-01
(PID.TID 0000.0001) %MON land_grdW_ave_N              =   4.9287015675977E-01
(PID.TID 0000.0001) %MON land_grdW_min_S              =   2.8699316584404E-02
(PID.TID 0000.0001) %MON land_grdW_min_T              =   0.0000000000000E+00
(PID.TID 0000.0001) %MON land_grdW_min_N              =   0.0000000000000E+00
(PID.TID 0000.0001) // =======================================================
(PID.TID 0000.0001) // End MONITOR Land statistics
(PID.TID 0000.0001) // =======================================================
(PID.TID 0000.0001) // =======================================================
(PID.TID 0000.0001) // Begin MONITOR Therm.SeaIce statistics
(PID.TID 0000.0001) // =======================================================
(PID.TID 0000.0001) %MON thSI_time_sec                =   1.7550000000000E+04
(PID.TID 0000.0001) %MON thSI_Ice_Area_G              =   2.5288834949420E+11
(PID.TID 0000.0001) %MON thSI_Ice_Area_S              =   0.0000000000000E+00
(PID.TID 0000.0001) %MON thSI_Ice_Area_N              =   2.5288834949420E+11
(PID.TID 0000.0001) %MON thSI_IceH_ave_G              =   1.0807454449053E-01
(PID.TID 0000.0001) %MON thSI_IceH_ave_S              =   0.0000000000000E+00
(PID.TID 0000.0001) %MON thSI_IceH_ave_N              =   1.0807454449053E-01
(PID.TID 0000.0001) %MON thSI_IceH_max_S              =   0.0000000000000E+00
(PID.TID 0000.0001) %MON thSI_IceH_max_N              =   1.5028211131281E-01
(PID.TID 0000.0001) %MON thSI_SnwH_ave_G              =   0.0000000000000E+00
(PID.TID 0000.0001) %MON thSI_SnwH_ave_S              =   0.0000000000000E+00
(PID.TID 0000.0001) %MON thSI_SnwH_ave_N              =   0.0000000000000E+00
(PID.TID 0000.0001) %MON thSI_SnwH_max_S              =   0.0000000000000E+00
(PID.TID 0000.0001) %MON thSI_SnwH_max_N              =   0.0000000000000E+00
(PID.TID 0000.0001) %MON thSI_TotEnerg_G              =  -8.4535637720689E+18
(PID.TID 0000.0001) %MON thSI_Tsrf_ave_G              =  -7.8900485210943E+00
(PID.TID 0000.0001) %MON thSI_Tsrf_ave_S              =   0.0000000000000E+00
(PID.TID 0000.0001) %MON thSI_Tsrf_ave_N              =  -7.8900485210943E+00
(PID.TID 0000.0001) %MON thSI_Tsrf_min_S              =   0.0000000000000E+00
(PID.TID 0000.0001) %MON thSI_Tsrf_min_N              =  -9.7468224075576E+00
(PID.TID 0000.0001) %MON thSI_Tsrf_max_S              =   0.0000000000000E+00
(PID.TID 0000.0001) %MON thSI_Tsrf_max_N              =  -3.3736951158557E+00
(PID.TID 0000.0001) %MON thSI_Tic1_ave_G              =  -7.0235148128434E+00
(PID.TID 0000.0001) %MON thSI_Tic1_ave_S              =   0.0000000000000E+00
(PID.TID 0000.0001) %MON thSI_Tic1_ave_N              =  -7.0235148128434E+00
(PID.TID 0000.0001) %MON thSI_Tic1_min_S              =   0.0000000000000E+00
(PID.TID 0000.0001) %MON thSI_Tic1_min_N              =  -7.5041436857618E+00
(PID.TID 0000.0001) %MON thSI_Tic1_max_S              =   0.0000000000000E+00
(PID.TID 0000.0001) %MON thSI_Tic1_max_N              =  -2.9335761083562E+00
(PID.TID 0000.0001) %MON thSI_Tic2_ave_G              =  -3.3972943885277E+00
(PID.TID 0000.0001) %MON thSI_Tic2_ave_S              =   0.0000000000000E+00
(PID.TID 0000.0001) %MON thSI_Tic2_ave_N              =  -3.3972943885277E+00
(PID.TID 0000.0001) %MON thSI_Tic2_min_S              =   0.0000000000000E+00
(PID.TID 0000.0001) %MON thSI_Tic2_min_N              =  -3.5611817849333E+00
(PID.TID 0000.0001) %MON thSI_Tic2_max_S              =   0.0000000000000E+00
(PID.TID 0000.0001) %MON thSI_Tic2_max_N              =  -2.0531970874657E+00
(PID.TID 0000.0001) // =======================================================
(PID.TID 0000.0001) // End MONITOR Therm.SeaIce statistics
(PID.TID 0000.0001) // =======================================================
 cg2d: Sum(rhs),rhsMax =   1.86264514923096E-09  1.72801329783292E+04
(PID.TID 0000.0001)                    cg2d_init_res =    9.37354869577787E+03
(PID.TID 0000.0001)                       cg2d_iters =    16
(PID.TID 0000.0001)                         cg2d_res =    5.38517720561276E-11
(PID.TID 0000.0001) // =======================================================
(PID.TID 0000.0001) // Begin MONITOR dynamic field statistics
(PID.TID 0000.0001) // =======================================================
(PID.TID 0000.0001) %MON time_tsnumber                =                    40
(PID.TID 0000.0001) %MON time_secondsf                =   1.8000000000000E+04
(PID.TID 0000.0001) %MON dynstat_eta_max              =   3.0797135445437E+03
(PID.TID 0000.0001) %MON dynstat_eta_min              =  -9.8482833083203E+02
(PID.TID 0000.0001) %MON dynstat_eta_mean             =  -4.4984121786844E-14
(PID.TID 0000.0001) %MON dynstat_eta_sd               =   4.2415283323597E+02
(PID.TID 0000.0001) %MON dynstat_eta_del2             =   3.6338667235725E+01
(PID.TID 0000.0001) %MON dynstat_uvel_max             =   4.5705463703577E+00
(PID.TID 0000.0001) %MON dynstat_uvel_min             =  -3.2738750037648E+00
(PID.TID 0000.0001) %MON dynstat_uvel_mean            =   1.0115995477116E-01
(PID.TID 0000.0001) %MON dynstat_uvel_sd              =   7.1300320491989E-01
(PID.TID 0000.0001) %MON dynstat_uvel_del2            =   3.4642045869117E-02
(PID.TID 0000.0001) %MON dynstat_vvel_max             =   3.6405308639480E+00
(PID.TID 0000.0001) %MON dynstat_vvel_min             =  -4.1230249008741E+00
(PID.TID 0000.0001) %MON dynstat_vvel_mean            =   3.2467451700432E-02
(PID.TID 0000.0001) %MON dynstat_vvel_sd              =   7.4041416159978E-01
(PID.TID 0000.0001) %MON dynstat_vvel_del2            =   3.4246436717644E-02
(PID.TID 0000.0001) %MON dynstat_wvel_max             =   1.1856481440417E-01
(PID.TID 0000.0001) %MON dynstat_wvel_min             =  -1.0419526786445E-01
(PID.TID 0000.0001) %MON dynstat_wvel_mean            =   1.6009958481121E-04
(PID.TID 0000.0001) %MON dynstat_wvel_sd              =   9.1020184894661E-03
(PID.TID 0000.0001) %MON dynstat_wvel_del2            =   2.3223093719388E-03
(PID.TID 0000.0001) %MON dynstat_theta_max            =   4.3848436800413E+02
(PID.TID 0000.0001) %MON dynstat_theta_min            =   2.8044798514761E+02
(PID.TID 0000.0001) %MON dynstat_theta_mean           =   3.3165156592330E+02
(PID.TID 0000.0001) %MON dynstat_theta_sd             =   4.7484555036780E+01
(PID.TID 0000.0001) %MON dynstat_theta_del2           =   3.9307511326211E-02
(PID.TID 0000.0001) %MON dynstat_salt_max             =   5.0472743920092E+00
(PID.TID 0000.0001) %MON dynstat_salt_min             =  -4.7002397089578E-02
(PID.TID 0000.0001) %MON dynstat_salt_mean            =   1.3998673413955E-01
(PID.TID 0000.0001) %MON dynstat_salt_sd              =   5.2691413325399E-01
(PID.TID 0000.0001) %MON dynstat_salt_del2            =   1.5662600998973E-02
(PID.TID 0000.0001) %MON advcfl_uvel_max              =   6.9764183472806E-03
(PID.TID 0000.0001) %MON advcfl_vvel_max              =   6.2038531608473E-03
(PID.TID 0000.0001) %MON advcfl_wvel_max              =   3.0488095132501E-03
(PID.TID 0000.0001) %MON advcfl_W_hf_max              =   2.4041534944619E-02
(PID.TID 0000.0001) %MON pe_b_mean                    =  -1.1594333515784E+00
(PID.TID 0000.0001) %MON ke_max                       =   8.9844476242935E+00
(PID.TID 0000.0001) %MON ke_mean                      =   5.3073194591340E-01
(PID.TID 0000.0001) %MON ke_vol                       =   4.9523908919847E+19
(PID.TID 0000.0001) %MON vort_r_min                   =  -1.6194550172518E-05
(PID.TID 0000.0001) %MON vort_r_max                   =   1.7992743303842E-05
(PID.TID 0000.0001) %MON vort_a_mean                  =   6.7242814765395E-08
(PID.TID 0000.0001) %MON vort_a_sd                    =   8.4022271159283E-05
(PID.TID 0000.0001) %MON vort_p_mean                  =   6.8939479651836E-08
(PID.TID 0000.0001) %MON vort_p_sd                    =   9.1609129627459E-05
(PID.TID 0000.0001) %MON surfExpan_theta_mean         =  -1.5364985685763E-02
(PID.TID 0000.0001) %MON surfExpan_salt_mean          =  -1.7955625656645E-03
(PID.TID 0000.0001) %MON surfExpan_Heat_mean          =   1.1196624661554E+00
(PID.TID 0000.0001) %MON En_Budget_T2PE_mean          =  -2.2908178459984E+00
(PID.TID 0000.0001) // =======================================================
(PID.TID 0000.0001) // End MONITOR dynamic field statistics
(PID.TID 0000.0001) // =======================================================
(PID.TID 0000.0001) // =======================================================
(PID.TID 0000.0001) // Begin MONITOR Land statistics
(PID.TID 0000.0001) // =======================================================
(PID.TID 0000.0001) %MON land_time_sec                =   1.8000000000000E+04
(PID.TID 0000.0001) %MON land_SnwH_ave_G              =   1.5320961221488E-01
(PID.TID 0000.0001) %MON land_SnwH_ave_S              =   5.5902840321885E-01
(PID.TID 0000.0001) %MON land_SnwH_ave_T              =   0.0000000000000E+00
(PID.TID 0000.0001) %MON land_SnwH_ave_N              =   1.2387334232555E-01
(PID.TID 0000.0001) %MON land_SnwH_max_S              =   9.9997791971394E-01
(PID.TID 0000.0001) %MON land_SnwH_max_T              =   0.0000000000000E+00
(PID.TID 0000.0001) %MON land_SnwH_max_N              =   9.9999738059773E-01
(PID.TID 0000.0001) %MON land_TotEnerg_G              =  -6.3665714554452E+21
(PID.TID 0000.0001) %MON land_TotEnerg_S              =  -5.0024423416392E+21
(PID.TID 0000.0001) %MON land_TotEnerg_T              =   7.2707441754146E+21
(PID.TID 0000.0001) %MON land_TotEnerg_N              =  -8.6348732892206E+21
(PID.TID 0000.0001) %MON land_Tsrf_ave_G              =  -8.7239537712958E+00
(PID.TID 0000.0001) %MON land_Tsrf_ave_S              =  -7.3280057705695E+00
(PID.TID 0000.0001) %MON land_Tsrf_ave_T              =   9.5583949764819E+00
(PID.TID 0000.0001) %MON land_Tsrf_ave_N              =  -2.1385205616175E+01
(PID.TID 0000.0001) %MON land_Tsrf_min_S              =  -3.3334092408827E+01
(PID.TID 0000.0001) %MON land_Tsrf_min_T              =  -3.3723776506530E+00
(PID.TID 0000.0001) %MON land_Tsrf_min_N              =  -5.1969606587549E+01
(PID.TID 0000.0001) %MON land_Tsrf_max_S              =   1.9932056373335E+01
(PID.TID 0000.0001) %MON land_Tsrf_max_T              =   1.9617707416160E+01
(PID.TID 0000.0001) %MON land_Tsrf_max_N              =   7.3701462858466E+00
(PID.TID 0000.0001) %MON land_Tgr1_ave_G              =  -7.5671817566883E+00
(PID.TID 0000.0001) %MON land_Tgr1_ave_S              =  -7.3213031803677E+00
(PID.TID 0000.0001) %MON land_Tgr1_ave_T              =   9.5583949764819E+00
(PID.TID 0000.0001) %MON land_Tgr1_ave_N              =  -1.9082899756501E+01
(PID.TID 0000.0001) %MON land_Tgr1_min_S              =  -3.9434190531806E+01
(PID.TID 0000.0001) %MON land_Tgr1_min_T              =  -3.3723776506530E+00
(PID.TID 0000.0001) %MON land_Tgr1_min_N              =  -5.4509434912797E+01
(PID.TID 0000.0001) %MON land_Tgr1_max_S              =   1.9932056373335E+01
(PID.TID 0000.0001) %MON land_Tgr1_max_T              =   1.9617707416160E+01
(PID.TID 0000.0001) %MON land_Tgr1_max_N              =   7.3701462858466E+00
(PID.TID 0000.0001) %MON land_Tgr2_ave_G              =   4.2010707299049E+00
(PID.TID 0000.0001) %MON land_Tgr2_ave_S              =  -1.8723771184257E+01
(PID.TID 0000.0001) %MON land_Tgr2_ave_T              =   2.2006488037211E+01
(PID.TID 0000.0001) %MON land_Tgr2_ave_N              =  -2.5218426585920E-01
(PID.TID 0000.0001) %MON land_Tgr2_min_S              =  -6.4745078586524E+01
(PID.TID 0000.0001) %MON land_Tgr2_min_T              =  -9.7024441927922E+00
(PID.TID 0000.0001) %MON land_Tgr2_min_N              =  -4.0203085214240E+01
(PID.TID 0000.0001) %MON land_Tgr2_max_S              =   2.3358937631535E+01
(PID.TID 0000.0001) %MON land_Tgr2_max_T              =   3.1345085434836E+01
(PID.TID 0000.0001) %MON land_Tgr2_max_N              =   2.9813255805215E+01
(PID.TID 0000.0001) %MON land_grdW_ave_G              =   4.8664972278981E-01
(PID.TID 0000.0001) %MON land_grdW_ave_S              =   3.0841385824788E-01
(PID.TID 0000.0001) %MON land_grdW_ave_T              =   5.6391950904570E-01
(PID.TID 0000.0001) %MON land_grdW_ave_N              =   4.9286986044283E-01
(PID.TID 0000.0001) %MON land_grdW_min_S              =   2.8780154646908E-02
(PID.TID 0000.0001) %MON land_grdW_min_T              =   0.0000000000000E+00
(PID.TID 0000.0001) %MON land_grdW_min_N              =   0.0000000000000E+00
(PID.TID 0000.0001) // =======================================================
(PID.TID 0000.0001) // End MONITOR Land statistics
(PID.TID 0000.0001) // =======================================================
(PID.TID 0000.0001) // =======================================================
(PID.TID 0000.0001) // Begin MONITOR Therm.SeaIce statistics
(PID.TID 0000.0001) // =======================================================
(PID.TID 0000.0001) %MON thSI_time_sec                =   1.8000000000000E+04
(PID.TID 0000.0001) %MON thSI_Ice_Area_G              =   2.5534078173587E+11
(PID.TID 0000.0001) %MON thSI_Ice_Area_S              =   0.0000000000000E+00
(PID.TID 0000.0001) %MON thSI_Ice_Area_N              =   2.5534078173587E+11
(PID.TID 0000.0001) %MON thSI_IceH_ave_G              =   1.0759835508618E-01
(PID.TID 0000.0001) %MON thSI_IceH_ave_S              =   0.0000000000000E+00
(PID.TID 0000.0001) %MON thSI_IceH_ave_N              =   1.0759835508618E-01
(PID.TID 0000.0001) %MON thSI_IceH_max_S              =   0.0000000000000E+00
(PID.TID 0000.0001) %MON thSI_IceH_max_N              =   1.5042680736864E-01
(PID.TID 0000.0001) %MON thSI_SnwH_ave_G              =   0.0000000000000E+00
(PID.TID 0000.0001) %MON thSI_SnwH_ave_S              =   0.0000000000000E+00
(PID.TID 0000.0001) %MON thSI_SnwH_ave_N              =   0.0000000000000E+00
(PID.TID 0000.0001) %MON thSI_SnwH_max_S              =   0.0000000000000E+00
(PID.TID 0000.0001) %MON thSI_SnwH_max_N              =   0.0000000000000E+00
(PID.TID 0000.0001) %MON thSI_TotEnerg_G              =  -8.4983120848066E+18
(PID.TID 0000.0001) %MON thSI_Tsrf_ave_G              =  -7.8674989897235E+00
(PID.TID 0000.0001) %MON thSI_Tsrf_ave_S              =   0.0000000000000E+00
(PID.TID 0000.0001) %MON thSI_Tsrf_ave_N              =  -7.8674989897235E+00
(PID.TID 0000.0001) %MON thSI_Tsrf_min_S              =   0.0000000000000E+00
(PID.TID 0000.0001) %MON thSI_Tsrf_min_N              =  -9.7654235202198E+00
(PID.TID 0000.0001) %MON thSI_Tsrf_max_S              =   0.0000000000000E+00
(PID.TID 0000.0001) %MON thSI_Tsrf_max_N              =  -3.4130248413386E+00
(PID.TID 0000.0001) %MON thSI_Tic1_ave_G              =  -7.0319793133467E+00
(PID.TID 0000.0001) %MON thSI_Tic1_ave_S              =   0.0000000000000E+00
(PID.TID 0000.0001) %MON thSI_Tic1_ave_N              =  -7.0319793133467E+00
(PID.TID 0000.0001) %MON thSI_Tic1_min_S              =   0.0000000000000E+00
(PID.TID 0000.0001) %MON thSI_Tic1_min_N              =  -7.5330866498456E+00
(PID.TID 0000.0001) %MON thSI_Tic1_max_S              =   0.0000000000000E+00
(PID.TID 0000.0001) %MON thSI_Tic1_max_N              =  -2.9628412388035E+00
(PID.TID 0000.0001) %MON thSI_Tic2_ave_G              =  -3.4039390753189E+00
(PID.TID 0000.0001) %MON thSI_Tic2_ave_S              =   0.0000000000000E+00
(PID.TID 0000.0001) %MON thSI_Tic2_ave_N              =  -3.4039390753189E+00
(PID.TID 0000.0001) %MON thSI_Tic2_min_S              =   0.0000000000000E+00
(PID.TID 0000.0001) %MON thSI_Tic2_min_N              =  -3.5739612874344E+00
(PID.TID 0000.0001) %MON thSI_Tic2_max_S              =   0.0000000000000E+00
(PID.TID 0000.0001) %MON thSI_Tic2_max_N              =  -2.0628072192563E+00
(PID.TID 0000.0001) // =======================================================
(PID.TID 0000.0001) // End MONITOR Therm.SeaIce statistics
(PID.TID 0000.0001) // =======================================================
(PID.TID 0000.0001) %CHECKPOINT        40 ckptA
(PID.TID 0000.0001)   Seconds in section "ALL                    [THE_MODEL_MAIN]":
(PID.TID 0000.0001)           User time:   26.4799995422363
(PID.TID 0000.0001)         System time:  0.530000021681190
(PID.TID 0000.0001)     Wall clock time:   33.3541660308838
(PID.TID 0000.0001)          No. starts:           1
(PID.TID 0000.0001)           No. stops:           1
(PID.TID 0000.0001)   Seconds in section "INITIALISE_FIXED       [THE_MODEL_MAIN]":
(PID.TID 0000.0001)           User time:  0.370000004768372
(PID.TID 0000.0001)         System time:  9.999999962747097E-002
(PID.TID 0000.0001)     Wall clock time:   1.96288704872131
(PID.TID 0000.0001)          No. starts:           1
(PID.TID 0000.0001)           No. stops:           1
(PID.TID 0000.0001)   Seconds in section "THE_MAIN_LOOP          [THE_MODEL_MAIN]":
(PID.TID 0000.0001)           User time:   26.0199993848801
(PID.TID 0000.0001)         System time:  0.299999997019768
(PID.TID 0000.0001)     Wall clock time:   29.1194610595703
(PID.TID 0000.0001)          No. starts:           1
(PID.TID 0000.0001)           No. stops:           1
(PID.TID 0000.0001)   Seconds in section "INITIALISE_VARIA    [THE_MAIN_LOOP]":
(PID.TID 0000.0001)           User time:  0.310000002384186
(PID.TID 0000.0001)         System time:  0.109999999403954
(PID.TID 0000.0001)     Wall clock time:   1.59573698043823
(PID.TID 0000.0001)          No. starts:           1
(PID.TID 0000.0001)           No. stops:           1
(PID.TID 0000.0001)   Seconds in section "MAIN LOOP           [THE_MAIN_LOOP]":
(PID.TID 0000.0001)           User time:   25.7099993824959
(PID.TID 0000.0001)         System time:  0.189999997615814
(PID.TID 0000.0001)     Wall clock time:   27.5236620903015
(PID.TID 0000.0001)          No. starts:           1
(PID.TID 0000.0001)           No. stops:           1
(PID.TID 0000.0001)   Seconds in section "FORWARD_STEP        [THE_MAIN_LOOP]":
(PID.TID 0000.0001)           User time:   25.7099993824959
(PID.TID 0000.0001)         System time:  0.189999997615814
(PID.TID 0000.0001)     Wall clock time:   27.5228416919708
(PID.TID 0000.0001)          No. starts:          40
(PID.TID 0000.0001)           No. stops:          40
(PID.TID 0000.0001)   Seconds in section "LOAD_FIELDS_DRIVER  [FORWARD_STEP]":
(PID.TID 0000.0001)           User time:  9.999990463256836E-003
(PID.TID 0000.0001)         System time:  1.000000536441803E-002
(PID.TID 0000.0001)     Wall clock time:  4.670739173889160E-002
(PID.TID 0000.0001)          No. starts:          40
(PID.TID 0000.0001)           No. stops:          40
(PID.TID 0000.0001)   Seconds in section "EXTERNAL_FLDS_LOAD [LOAD_FLDS_DRIVER]":
(PID.TID 0000.0001)           User time:  0.000000000000000E+000
(PID.TID 0000.0001)         System time:  0.000000000000000E+000
(PID.TID 0000.0001)     Wall clock time:  7.827281951904297E-004
(PID.TID 0000.0001)          No. starts:          40
(PID.TID 0000.0001)           No. stops:          40
(PID.TID 0000.0001)   Seconds in section "CPL_EXPORT-IMPORT  [FORWARD_STEP]":
(PID.TID 0000.0001)           User time:  3.999996185302734E-002
(PID.TID 0000.0001)         System time:  1.000002026557922E-002
(PID.TID 0000.0001)     Wall clock time:  5.838966369628906E-002
(PID.TID 0000.0001)          No. starts:          40
(PID.TID 0000.0001)           No. stops:          40
(PID.TID 0000.0001)   Seconds in section "DO_ATMOSPHERIC_PHYS [FORWARD_STEP]":
(PID.TID 0000.0001)           User time:   3.98999977111816
(PID.TID 0000.0001)         System time:  2.000001072883606E-002
(PID.TID 0000.0001)     Wall clock time:   4.01861834526062
(PID.TID 0000.0001)          No. starts:          40
(PID.TID 0000.0001)           No. stops:          40
(PID.TID 0000.0001)   Seconds in section "AIM_DO_PHYSICS [DO_ATMOSPHERIC_PHYS]":
(PID.TID 0000.0001)           User time:   3.91999936103821
(PID.TID 0000.0001)         System time:  9.999990463256836E-003
(PID.TID 0000.0001)     Wall clock time:   3.95453238487244
(PID.TID 0000.0001)          No. starts:         240
(PID.TID 0000.0001)           No. stops:         240
(PID.TID 0000.0001)   Seconds in section "DO_OCEANIC_PHYS     [FORWARD_STEP]":
(PID.TID 0000.0001)           User time:  0.000000000000000E+000
(PID.TID 0000.0001)         System time:  0.000000000000000E+000
(PID.TID 0000.0001)     Wall clock time:  8.287429809570313E-004
(PID.TID 0000.0001)          No. starts:          40
(PID.TID 0000.0001)           No. stops:          40
(PID.TID 0000.0001)   Seconds in section "DYNAMICS            [FORWARD_STEP]":
(PID.TID 0000.0001)           User time:   4.58000075817108
(PID.TID 0000.0001)         System time:  0.000000000000000E+000
(PID.TID 0000.0001)     Wall clock time:   4.62516427040100
(PID.TID 0000.0001)          No. starts:          40
(PID.TID 0000.0001)           No. stops:          40
(PID.TID 0000.0001)   Seconds in section "UPDATE_R_STAR       [FORWARD_STEP]":
(PID.TID 0000.0001)           User time:  0.399997949600220
(PID.TID 0000.0001)         System time:  0.000000000000000E+000
(PID.TID 0000.0001)     Wall clock time:  0.351084232330322
(PID.TID 0000.0001)          No. starts:          40
(PID.TID 0000.0001)           No. stops:          40
(PID.TID 0000.0001)   Seconds in section "UPDATE_CG2D         [FORWARD_STEP]":
(PID.TID 0000.0001)           User time:  0.180000424385071
(PID.TID 0000.0001)         System time:  0.000000000000000E+000
(PID.TID 0000.0001)     Wall clock time:  0.178288698196411
(PID.TID 0000.0001)          No. starts:          40
(PID.TID 0000.0001)           No. stops:          40
(PID.TID 0000.0001)   Seconds in section "SOLVE_FOR_PRESSURE  [FORWARD_STEP]":
(PID.TID 0000.0001)           User time:   1.77000075578690
(PID.TID 0000.0001)         System time:  0.000000000000000E+000
(PID.TID 0000.0001)     Wall clock time:   1.80425810813904
(PID.TID 0000.0001)          No. starts:          40
(PID.TID 0000.0001)           No. stops:          40
(PID.TID 0000.0001)   Seconds in section "MOM_CORRECTION_STEP [FORWARD_STEP]":
(PID.TID 0000.0001)           User time:   3.16999781131744
(PID.TID 0000.0001)         System time:  9.999990463256836E-003
(PID.TID 0000.0001)     Wall clock time:   3.18511176109314
(PID.TID 0000.0001)          No. starts:          40
(PID.TID 0000.0001)           No. stops:          40
(PID.TID 0000.0001)   Seconds in section "SHAP_FILT_UV       [MOM_CORR_STEP]":
(PID.TID 0000.0001)           User time:   2.68000054359436
(PID.TID 0000.0001)         System time:  9.999990463256836E-003
(PID.TID 0000.0001)     Wall clock time:   2.70827388763428
(PID.TID 0000.0001)          No. starts:          40
(PID.TID 0000.0001)           No. stops:          40
(PID.TID 0000.0001)   Seconds in section "UPDATE_ETAH         [FORWARD_STEP]":
(PID.TID 0000.0001)           User time:  3.000068664550781E-002
(PID.TID 0000.0001)         System time:  0.000000000000000E+000
(PID.TID 0000.0001)     Wall clock time:  1.109623908996582E-002
(PID.TID 0000.0001)          No. starts:          40
(PID.TID 0000.0001)           No. stops:          40
(PID.TID 0000.0001)   Seconds in section "CALC_R_STAR         [FORWARD_STEP]":
(PID.TID 0000.0001)           User time:  0.239999771118164
(PID.TID 0000.0001)         System time:  0.000000000000000E+000
(PID.TID 0000.0001)     Wall clock time:  0.213828563690186
(PID.TID 0000.0001)          No. starts:          40
(PID.TID 0000.0001)           No. stops:          40
(PID.TID 0000.0001)   Seconds in section "BLOCKING_EXCHANGES  [FORWARD_STEP]":
(PID.TID 0000.0001)           User time:  0.529998540878296
(PID.TID 0000.0001)         System time:  0.000000000000000E+000
(PID.TID 0000.0001)     Wall clock time:  0.527448415756226
(PID.TID 0000.0001)          No. starts:          80
(PID.TID 0000.0001)           No. stops:          80
(PID.TID 0000.0001)   Seconds in section "THERMODYNAMICS      [FORWARD_STEP]":
(PID.TID 0000.0001)           User time:   2.21999919414520
(PID.TID 0000.0001)         System time:  0.000000000000000E+000
(PID.TID 0000.0001)     Wall clock time:   2.26116466522217
(PID.TID 0000.0001)          No. starts:          40
(PID.TID 0000.0001)           No. stops:          40
(PID.TID 0000.0001)   Seconds in section "TRC_CORRECTION_STEP [FORWARD_STEP]":
(PID.TID 0000.0001)           User time:   2.32000327110291
(PID.TID 0000.0001)         System time:  0.000000000000000E+000
(PID.TID 0000.0001)     Wall clock time:   2.31304740905762
(PID.TID 0000.0001)          No. starts:          40
(PID.TID 0000.0001)           No. stops:          40
(PID.TID 0000.0001)   Seconds in section "SHAP_FILT_TS       [TRC_CORR_STEP]":
(PID.TID 0000.0001)           User time:   2.23000144958496
(PID.TID 0000.0001)         System time:  0.000000000000000E+000
(PID.TID 0000.0001)     Wall clock time:   2.24293780326843
(PID.TID 0000.0001)          No. starts:          40
(PID.TID 0000.0001)           No. stops:          40
(PID.TID 0000.0001)   Seconds in section "DO_STATEVARS_TAVE   [FORWARD_STEP]":
(PID.TID 0000.0001)           User time:   1.78999805450439
(PID.TID 0000.0001)         System time:  0.000000000000000E+000
(PID.TID 0000.0001)     Wall clock time:   1.75269961357117
(PID.TID 0000.0001)          No. starts:          40
(PID.TID 0000.0001)           No. stops:          40
(PID.TID 0000.0001)   Seconds in section "MONITOR             [FORWARD_STEP]":
(PID.TID 0000.0001)           User time:   3.88000106811523
(PID.TID 0000.0001)         System time:  2.999998629093170E-002
(PID.TID 0000.0001)     Wall clock time:   3.92159414291382
(PID.TID 0000.0001)          No. starts:          40
(PID.TID 0000.0001)           No. stops:          40
(PID.TID 0000.0001)   Seconds in section "DO_THE_MODEL_IO     [FORWARD_STEP]":
(PID.TID 0000.0001)           User time:  0.550001382827759
(PID.TID 0000.0001)         System time:  0.109999984502792
(PID.TID 0000.0001)     Wall clock time:   2.23618865013123
(PID.TID 0000.0001)          No. starts:          40
(PID.TID 0000.0001)           No. stops:          40
(PID.TID 0000.0001)   Seconds in section "DO_WRITE_PICKUP     [FORWARD_STEP]":
(PID.TID 0000.0001)           User time:  0.000000000000000E+000
(PID.TID 0000.0001)         System time:  0.000000000000000E+000
(PID.TID 0000.0001)     Wall clock time:  8.816719055175781E-004
(PID.TID 0000.0001)          No. starts:          40
(PID.TID 0000.0001)           No. stops:          40
(PID.TID 0000.0001)   Seconds in section "DO_WRITE_PICKUP        [THE_MODEL_MAIN]":
(PID.TID 0000.0001)           User time:  9.000015258789063E-002
(PID.TID 0000.0001)         System time:  0.130000025033951
(PID.TID 0000.0001)     Wall clock time:   2.27172708511353
(PID.TID 0000.0001)          No. starts:           1
(PID.TID 0000.0001)           No. stops:           1
(PID.TID 0000.0001) // ======================================================
(PID.TID 0000.0001) // Tile <-> Tile communication statistics
(PID.TID 0000.0001) // ======================================================
(PID.TID 0000.0001) // o Tile number: 000001
(PID.TID 0000.0001) //         No. X exchanges =              0
(PID.TID 0000.0001) //            Max. X spins =              0
(PID.TID 0000.0001) //            Min. X spins =     1000000000
(PID.TID 0000.0001) //          Total. X spins =              0
(PID.TID 0000.0001) //            Avg. X spins =       0.00E+00
(PID.TID 0000.0001) //         No. Y exchanges =              0
(PID.TID 0000.0001) //            Max. Y spins =              0
(PID.TID 0000.0001) //            Min. Y spins =     1000000000
(PID.TID 0000.0001) //          Total. Y spins =              0
(PID.TID 0000.0001) //            Avg. Y spins =       0.00E+00
(PID.TID 0000.0001) // o Tile number: 000002
(PID.TID 0000.0001) //         No. X exchanges =              0
(PID.TID 0000.0001) //            Max. X spins =              0
(PID.TID 0000.0001) //            Min. X spins =     1000000000
(PID.TID 0000.0001) //          Total. X spins =              0
(PID.TID 0000.0001) //            Avg. X spins =       0.00E+00
(PID.TID 0000.0001) //         No. Y exchanges =              0
(PID.TID 0000.0001) //            Max. Y spins =              0
(PID.TID 0000.0001) //            Min. Y spins =     1000000000
(PID.TID 0000.0001) //          Total. Y spins =              0
(PID.TID 0000.0001) //            Avg. Y spins =       0.00E+00
(PID.TID 0000.0001) // o Tile number: 000003
(PID.TID 0000.0001) //         No. X exchanges =              0
(PID.TID 0000.0001) //            Max. X spins =              0
(PID.TID 0000.0001) //            Min. X spins =     1000000000
(PID.TID 0000.0001) //          Total. X spins =              0
(PID.TID 0000.0001) //            Avg. X spins =       0.00E+00
(PID.TID 0000.0001) //         No. Y exchanges =              0
(PID.TID 0000.0001) //            Max. Y spins =              0
(PID.TID 0000.0001) //            Min. Y spins =     1000000000
(PID.TID 0000.0001) //          Total. Y spins =              0
(PID.TID 0000.0001) //            Avg. Y spins =       0.00E+00
(PID.TID 0000.0001) // o Tile number: 000004
(PID.TID 0000.0001) //         No. X exchanges =              0
(PID.TID 0000.0001) //            Max. X spins =              0
(PID.TID 0000.0001) //            Min. X spins =     1000000000
(PID.TID 0000.0001) //          Total. X spins =              0
(PID.TID 0000.0001) //            Avg. X spins =       0.00E+00
(PID.TID 0000.0001) //         No. Y exchanges =              0
(PID.TID 0000.0001) //            Max. Y spins =              0
(PID.TID 0000.0001) //            Min. Y spins =     1000000000
(PID.TID 0000.0001) //          Total. Y spins =              0
(PID.TID 0000.0001) //            Avg. Y spins =       0.00E+00
(PID.TID 0000.0001) // o Tile number: 000005
(PID.TID 0000.0001) //         No. X exchanges =              0
(PID.TID 0000.0001) //            Max. X spins =              0
(PID.TID 0000.0001) //            Min. X spins =     1000000000
(PID.TID 0000.0001) //          Total. X spins =              0
(PID.TID 0000.0001) //            Avg. X spins =       0.00E+00
(PID.TID 0000.0001) //         No. Y exchanges =              0
(PID.TID 0000.0001) //            Max. Y spins =              0
(PID.TID 0000.0001) //            Min. Y spins =     1000000000
(PID.TID 0000.0001) //          Total. Y spins =              0
(PID.TID 0000.0001) //            Avg. Y spins =       0.00E+00
(PID.TID 0000.0001) // o Tile number: 000006
(PID.TID 0000.0001) //         No. X exchanges =              0
(PID.TID 0000.0001) //            Max. X spins =              0
(PID.TID 0000.0001) //            Min. X spins =     1000000000
(PID.TID 0000.0001) //          Total. X spins =              0
(PID.TID 0000.0001) //            Avg. X spins =       0.00E+00
(PID.TID 0000.0001) //         No. Y exchanges =              0
(PID.TID 0000.0001) //            Max. Y spins =              0
(PID.TID 0000.0001) //            Min. Y spins =     1000000000
(PID.TID 0000.0001) //          Total. Y spins =              0
(PID.TID 0000.0001) //            Avg. Y spins =       0.00E+00
(PID.TID 0000.0001) // o Thread number: 000001
(PID.TID 0000.0001) //            No. barriers =          58905
(PID.TID 0000.0001) //      Max. barrier spins =              1
(PID.TID 0000.0001) //      Min. barrier spins =              1
(PID.TID 0000.0001) //     Total barrier spins =          58905
(PID.TID 0000.0001) //      Avg. barrier spins =       1.00E+00
