(PID.TID 0000.0001) 
(PID.TID 0000.0001) // ======================================================
(PID.TID 0000.0001) //                      MITgcm UV
(PID.TID 0000.0001) //                      =========
(PID.TID 0000.0001) // ======================================================
(PID.TID 0000.0001) // execution environment starting up...
(PID.TID 0000.0001) 
(PID.TID 0000.0001) // MITgcmUV version:  checkpoint58a_post
(PID.TID 0000.0001) // Build user:        jmc
(PID.TID 0000.0001) // Build host:        myrinet-3-12
(PID.TID 0000.0001) // Build date:        Thu Mar  2 17:22:46 EST 2006
(PID.TID 0000.0001) 
(PID.TID 0000.0001) // =======================================================
(PID.TID 0000.0001) // Execution Environment parameter file "eedata"
(PID.TID 0000.0001) // =======================================================
(PID.TID 0000.0001) ># Example "eedata" file
(PID.TID 0000.0001) ># Lines beginning "#" are comments
(PID.TID 0000.0001) ># nTx - No. threads per process in X
(PID.TID 0000.0001) ># nTy - No. threads per process in Y
(PID.TID 0000.0001) > &EEPARMS
(PID.TID 0000.0001) > useCoupler=.TRUE.,
(PID.TID 0000.0001) > useCubedSphereExchange=.TRUE.,
(PID.TID 0000.0001) ># Activate one line below to support 2, 3 or 6 way multi-threading
(PID.TID 0000.0001) > nTx=1,
(PID.TID 0000.0001) >#nTx=2,
(PID.TID 0000.0001) >#nTx=3,
(PID.TID 0000.0001) >#nTx=6,
(PID.TID 0000.0001) > &
(PID.TID 0000.0001) ># Note: Some systems use & as the
(PID.TID 0000.0001) ># namelist terminator. Other systems
(PID.TID 0000.0001) ># use a / character (as shown here).
(PID.TID 0000.0001) 
(PID.TID 0000.0001) // =======================================================
(PID.TID 0000.0001) // Computational Grid Specification ( see files "SIZE.h" )
(PID.TID 0000.0001) //                                  ( and "eedata"       )
(PID.TID 0000.0001) // =======================================================
(PID.TID 0000.0001)      nPx =    1 ; /* No. processes in X */
(PID.TID 0000.0001)      nPy =    1 ; /* No. processes in Y */
(PID.TID 0000.0001)      nSx =    6 ; /* No. tiles in X per process */
(PID.TID 0000.0001)      nSy =    1 ; /* No. tiles in Y per process */
(PID.TID 0000.0001)      sNx =   32 ; /* Tile size in X */
(PID.TID 0000.0001)      sNy =   32 ; /* Tile size in Y */
(PID.TID 0000.0001)      OLx =    2 ; /* Tile overlap distance in X */
(PID.TID 0000.0001)      OLy =    2 ; /* Tile overlap distance in Y */
(PID.TID 0000.0001)      nTx =    1 ; /* No. threads in X per process */
(PID.TID 0000.0001)      nTy =    1 ; /* No. threads in Y per process */
(PID.TID 0000.0001)       Nr =    5 ; /* No. levels in the vertical   */
(PID.TID 0000.0001)       nX =  192 ; /* Total domain size in X ( = nPx*nSx*sNx ) */
(PID.TID 0000.0001)       nY =   32 ; /* Total domain size in Y ( = nPy*nSy*sNy ) */
(PID.TID 0000.0001)   nTiles =    6 ; /* Total no. tiles per process ( = nSx*nSy ) */
(PID.TID 0000.0001)   nProcs =    1 ; /* Total no. processes ( = nPx*nPy ) */
(PID.TID 0000.0001) nThreads =    1 ; /* Total no. threads per process ( = nTx*nTy ) */
(PID.TID 0000.0001) usingMPI =    F ; /* Flag used to control whether MPI is in use */
(PID.TID 0000.0001)                   /*  note: To execute a program with MPI calls */
(PID.TID 0000.0001)                   /*  it must be launched appropriately e.g     */
(PID.TID 0000.0001)                   /*  "mpirun -np 64 ......"                    */
(PID.TID 0000.0001) useCoupler=   T ; /* Flag used to control communications with */
(PID.TID 0000.0001)                   /*  other model components, through a coupler */
(PID.TID 0000.0001) 
(PID.TID 0000.0001) ======= Starting MPI parallel Run =========
(PID.TID 0000.0001)  My Processor Name =                                                     myrinet-3-07
(PID.TID 0000.0001)  Located at (  0,  0) on processor grid (0:  0,0:  0)
(PID.TID 0000.0001)  Origin at  (   1,   1) on global grid (1: 192,1:  32)
(PID.TID 0000.0001)  North neighbor = processor 0000
(PID.TID 0000.0001)  South neighbor = processor 0000
(PID.TID 0000.0001)   East neighbor = processor 0000
(PID.TID 0000.0001)   West neighbor = processor 0000
(PID.TID 0000.0001) // ======================================================
(PID.TID 0000.0001) // Mapping of tiles to threads
(PID.TID 0000.0001) // ======================================================
(PID.TID 0000.0001) // -o- Thread   1, tiles (   1:   6,   1:   1)
(PID.TID 0000.0001) 
(PID.TID 0000.0001) // ======================================================
(PID.TID 0000.0001) // Tile <-> Tile connectvity table
(PID.TID 0000.0001) // ======================================================
(PID.TID 0000.0001) // Tile number: 000001 (process no. = 000000)
(PID.TID 0000.0001) //        WEST: Tile = 000006, Process = 000000, Comm = put
(PID.TID 0000.0001) //                bi = 000006, bj = 000001
(PID.TID 0000.0001) //        EAST: Tile = 000002, Process = 000000, Comm = put
(PID.TID 0000.0001) //                bi = 000002, bj = 000001
(PID.TID 0000.0001) //       SOUTH: Tile = 000001, Process = 000000, Comm = put
(PID.TID 0000.0001) //                bi = 000001, bj = 000001
(PID.TID 0000.0001) //       NORTH: Tile = 000001, Process = 000000, Comm = put
(PID.TID 0000.0001) //                bi = 000001, bj = 000001
(PID.TID 0000.0001) // Tile number: 000002 (process no. = 000000)
(PID.TID 0000.0001) //        WEST: Tile = 000001, Process = 000000, Comm = put
(PID.TID 0000.0001) //                bi = 000001, bj = 000001
(PID.TID 0000.0001) //        EAST: Tile = 000003, Process = 000000, Comm = put
(PID.TID 0000.0001) //                bi = 000003, bj = 000001
(PID.TID 0000.0001) //       SOUTH: Tile = 000002, Process = 000000, Comm = put
(PID.TID 0000.0001) //                bi = 000002, bj = 000001
(PID.TID 0000.0001) //       NORTH: Tile = 000002, Process = 000000, Comm = put
(PID.TID 0000.0001) //                bi = 000002, bj = 000001
(PID.TID 0000.0001) // Tile number: 000003 (process no. = 000000)
(PID.TID 0000.0001) //        WEST: Tile = 000002, Process = 000000, Comm = put
(PID.TID 0000.0001) //                bi = 000002, bj = 000001
(PID.TID 0000.0001) //        EAST: Tile = 000004, Process = 000000, Comm = put
(PID.TID 0000.0001) //                bi = 000004, bj = 000001
(PID.TID 0000.0001) //       SOUTH: Tile = 000003, Process = 000000, Comm = put
(PID.TID 0000.0001) //                bi = 000003, bj = 000001
(PID.TID 0000.0001) //       NORTH: Tile = 000003, Process = 000000, Comm = put
(PID.TID 0000.0001) //                bi = 000003, bj = 000001
(PID.TID 0000.0001) // Tile number: 000004 (process no. = 000000)
(PID.TID 0000.0001) //        WEST: Tile = 000003, Process = 000000, Comm = put
(PID.TID 0000.0001) //                bi = 000003, bj = 000001
(PID.TID 0000.0001) //        EAST: Tile = 000005, Process = 000000, Comm = put
(PID.TID 0000.0001) //                bi = 000005, bj = 000001
(PID.TID 0000.0001) //       SOUTH: Tile = 000004, Process = 000000, Comm = put
(PID.TID 0000.0001) //                bi = 000004, bj = 000001
(PID.TID 0000.0001) //       NORTH: Tile = 000004, Process = 000000, Comm = put
(PID.TID 0000.0001) //                bi = 000004, bj = 000001
(PID.TID 0000.0001) // Tile number: 000005 (process no. = 000000)
(PID.TID 0000.0001) //        WEST: Tile = 000004, Process = 000000, Comm = put
(PID.TID 0000.0001) //                bi = 000004, bj = 000001
(PID.TID 0000.0001) //        EAST: Tile = 000006, Process = 000000, Comm = put
(PID.TID 0000.0001) //                bi = 000006, bj = 000001
(PID.TID 0000.0001) //       SOUTH: Tile = 000005, Process = 000000, Comm = put
(PID.TID 0000.0001) //                bi = 000005, bj = 000001
(PID.TID 0000.0001) //       NORTH: Tile = 000005, Process = 000000, Comm = put
(PID.TID 0000.0001) //                bi = 000005, bj = 000001
(PID.TID 0000.0001) // Tile number: 000006 (process no. = 000000)
(PID.TID 0000.0001) //        WEST: Tile = 000005, Process = 000000, Comm = put
(PID.TID 0000.0001) //                bi = 000005, bj = 000001
(PID.TID 0000.0001) //        EAST: Tile = 000001, Process = 000000, Comm = put
(PID.TID 0000.0001) //                bi = 000001, bj = 000001
(PID.TID 0000.0001) //       SOUTH: Tile = 000006, Process = 000000, Comm = put
(PID.TID 0000.0001) //                bi = 000006, bj = 000001
(PID.TID 0000.0001) //       NORTH: Tile = 000006, Process = 000000, Comm = put
(PID.TID 0000.0001) //                bi = 000006, bj = 000001
(PID.TID 0000.0001) 
(PID.TID 0000.0001) ===== W2 TILE TOPLOGY =====
(PID.TID 0000.0001)  TILE:    1
(PID.TID 0000.0001)       NEIGHBOUR    1 = TILE    3 Comm = PUT ( PROC =    1)
(PID.TID 0000.0001)       NEIGHBOUR    2 = TILE    6 Comm = PUT ( PROC =    1)
(PID.TID 0000.0001)       NEIGHBOUR    3 = TILE    2 Comm = PUT ( PROC =    1)
(PID.TID 0000.0001)       NEIGHBOUR    4 = TILE    5 Comm = PUT ( PROC =    1)
(PID.TID 0000.0001)  TILE:    2
(PID.TID 0000.0001)       NEIGHBOUR    1 = TILE    3 Comm = PUT ( PROC =    1)
(PID.TID 0000.0001)       NEIGHBOUR    2 = TILE    6 Comm = PUT ( PROC =    1)
(PID.TID 0000.0001)       NEIGHBOUR    3 = TILE    4 Comm = PUT ( PROC =    1)
(PID.TID 0000.0001)       NEIGHBOUR    4 = TILE    1 Comm = PUT ( PROC =    1)
(PID.TID 0000.0001)  TILE:    3
(PID.TID 0000.0001)       NEIGHBOUR    1 = TILE    5 Comm = PUT ( PROC =    1)
(PID.TID 0000.0001)       NEIGHBOUR    2 = TILE    2 Comm = PUT ( PROC =    1)
(PID.TID 0000.0001)       NEIGHBOUR    3 = TILE    4 Comm = PUT ( PROC =    1)
(PID.TID 0000.0001)       NEIGHBOUR    4 = TILE    1 Comm = PUT ( PROC =    1)
(PID.TID 0000.0001)  TILE:    4
(PID.TID 0000.0001)       NEIGHBOUR    1 = TILE    5 Comm = PUT ( PROC =    1)
(PID.TID 0000.0001)       NEIGHBOUR    2 = TILE    2 Comm = PUT ( PROC =    1)
(PID.TID 0000.0001)       NEIGHBOUR    3 = TILE    6 Comm = PUT ( PROC =    1)
(PID.TID 0000.0001)       NEIGHBOUR    4 = TILE    3 Comm = PUT ( PROC =    1)
(PID.TID 0000.0001)  TILE:    5
(PID.TID 0000.0001)       NEIGHBOUR    1 = TILE    1 Comm = PUT ( PROC =    1)
(PID.TID 0000.0001)       NEIGHBOUR    2 = TILE    4 Comm = PUT ( PROC =    1)
(PID.TID 0000.0001)       NEIGHBOUR    3 = TILE    6 Comm = PUT ( PROC =    1)
(PID.TID 0000.0001)       NEIGHBOUR    4 = TILE    3 Comm = PUT ( PROC =    1)
(PID.TID 0000.0001)  TILE:    6
(PID.TID 0000.0001)       NEIGHBOUR    1 = TILE    1 Comm = PUT ( PROC =    1)
(PID.TID 0000.0001)       NEIGHBOUR    2 = TILE    4 Comm = PUT ( PROC =    1)
(PID.TID 0000.0001)       NEIGHBOUR    3 = TILE    2 Comm = PUT ( PROC =    1)
(PID.TID 0000.0001)       NEIGHBOUR    4 = TILE    5 Comm = PUT ( PROC =    1)
(PID.TID 0000.0001) Tile    1(proc =   1) sends points i=  34:  -1, j=  31:  32
(PID.TID 0000.0001)                          to points i=  -1:   0, j=  -1:  34 in tile    3(proc =   1)
(PID.TID 0000.0001) Tile    1(proc =   1) sends points i=  -1:  34, j=   1:   2
(PID.TID 0000.0001)                          to points i=  -1:  34, j=  33:  34 in tile    6(proc =   1)
(PID.TID 0000.0001) Tile    1(proc =   1) sends points i=  31:  32, j=  -1:  34
(PID.TID 0000.0001)                          to points i=  -1:   0, j=  -1:  34 in tile    2(proc =   1)
(PID.TID 0000.0001) Tile    1(proc =   1) sends points i=   1:   2, j=  34:  -1
(PID.TID 0000.0001)                          to points i=  -1:  34, j=  33:  34 in tile    5(proc =   1)
(PID.TID 0000.0001) Tile    2(proc =   1) sends points i=  -1:  34, j=  31:  32
(PID.TID 0000.0001)                          to points i=  -1:  34, j=  -1:   0 in tile    3(proc =   1)
(PID.TID 0000.0001) Tile    2(proc =   1) sends points i=  34:  -1, j=   1:   2
(PID.TID 0000.0001)                          to points i=  33:  34, j=  -1:  34 in tile    6(proc =   1)
(PID.TID 0000.0001) Tile    2(proc =   1) sends points i=  31:  32, j=  34:  -1
(PID.TID 0000.0001)                          to points i=  -1:  34, j=  -1:   0 in tile    4(proc =   1)
(PID.TID 0000.0001) Tile    2(proc =   1) sends points i=   1:   2, j=  -1:  34
(PID.TID 0000.0001)                          to points i=  33:  34, j=  -1:  34 in tile    1(proc =   1)
(PID.TID 0000.0001) Tile    3(proc =   1) sends points i=  34:  -1, j=  31:  32
(PID.TID 0000.0001)                          to points i=  -1:   0, j=  -1:  34 in tile    5(proc =   1)
(PID.TID 0000.0001) Tile    3(proc =   1) sends points i=  -1:  34, j=   1:   2
(PID.TID 0000.0001)                          to points i=  -1:  34, j=  33:  34 in tile    2(proc =   1)
(PID.TID 0000.0001) Tile    3(proc =   1) sends points i=  31:  32, j=  -1:  34
(PID.TID 0000.0001)                          to points i=  -1:   0, j=  -1:  34 in tile    4(proc =   1)
(PID.TID 0000.0001) Tile    3(proc =   1) sends points i=   1:   2, j=  34:  -1
(PID.TID 0000.0001)                          to points i=  -1:  34, j=  33:  34 in tile    1(proc =   1)
(PID.TID 0000.0001) Tile    4(proc =   1) sends points i=  -1:  34, j=  31:  32
(PID.TID 0000.0001)                          to points i=  -1:  34, j=  -1:   0 in tile    5(proc =   1)
(PID.TID 0000.0001) Tile    4(proc =   1) sends points i=  34:  -1, j=   1:   2
(PID.TID 0000.0001)                          to points i=  33:  34, j=  -1:  34 in tile    2(proc =   1)
(PID.TID 0000.0001) Tile    4(proc =   1) sends points i=  31:  32, j=  34:  -1
(PID.TID 0000.0001)                          to points i=  -1:  34, j=  -1:   0 in tile    6(proc =   1)
(PID.TID 0000.0001) Tile    4(proc =   1) sends points i=   1:   2, j=  -1:  34
(PID.TID 0000.0001)                          to points i=  33:  34, j=  -1:  34 in tile    3(proc =   1)
(PID.TID 0000.0001) Tile    5(proc =   1) sends points i=  34:  -1, j=  31:  32
(PID.TID 0000.0001)                          to points i=  -1:   0, j=  -1:  34 in tile    1(proc =   1)
(PID.TID 0000.0001) Tile    5(proc =   1) sends points i=  -1:  34, j=   1:   2
(PID.TID 0000.0001)                          to points i=  -1:  34, j=  33:  34 in tile    4(proc =   1)
(PID.TID 0000.0001) Tile    5(proc =   1) sends points i=  31:  32, j=  -1:  34
(PID.TID 0000.0001)                          to points i=  -1:   0, j=  -1:  34 in tile    6(proc =   1)
(PID.TID 0000.0001) Tile    5(proc =   1) sends points i=   1:   2, j=  34:  -1
(PID.TID 0000.0001)                          to points i=  -1:  34, j=  33:  34 in tile    3(proc =   1)
(PID.TID 0000.0001) Tile    6(proc =   1) sends points i=  -1:  34, j=  31:  32
(PID.TID 0000.0001)                          to points i=  -1:  34, j=  -1:   0 in tile    1(proc =   1)
(PID.TID 0000.0001) Tile    6(proc =   1) sends points i=  34:  -1, j=   1:   2
(PID.TID 0000.0001)                          to points i=  33:  34, j=  -1:  34 in tile    4(proc =   1)
(PID.TID 0000.0001) Tile    6(proc =   1) sends points i=  31:  32, j=  34:  -1
(PID.TID 0000.0001)                          to points i=  -1:  34, j=  -1:   0 in tile    2(proc =   1)
(PID.TID 0000.0001) Tile    6(proc =   1) sends points i=   1:   2, j=  -1:  34
(PID.TID 0000.0001)                          to points i=  33:  34, j=  -1:  34 in tile    5(proc =   1)
(PID.TID 0000.0001) Tile    1(proc =   1)recv to points i=  -1:  34, j=  33:  34from tile   3(proc =   1)
(PID.TID 0000.0001) Tile    1(proc =   1)recv to points i=  -1:  34, j=  -1:   0from tile   6(proc =   1)
(PID.TID 0000.0001) Tile    1(proc =   1)recv to points i=  33:  34, j=  -1:  34from tile   2(proc =   1)
(PID.TID 0000.0001) Tile    1(proc =   1)recv to points i=  -1:   0, j=  -1:  34from tile   5(proc =   1)
(PID.TID 0000.0001) Tile    2(proc =   1)recv to points i=  -1:  34, j=  33:  34from tile   3(proc =   1)
(PID.TID 0000.0001) Tile    2(proc =   1)recv to points i=  -1:  34, j=  -1:   0from tile   6(proc =   1)
(PID.TID 0000.0001) Tile    2(proc =   1)recv to points i=  33:  34, j=  -1:  34from tile   4(proc =   1)
(PID.TID 0000.0001) Tile    2(proc =   1)recv to points i=  -1:   0, j=  -1:  34from tile   1(proc =   1)
(PID.TID 0000.0001) Tile    3(proc =   1)recv to points i=  -1:  34, j=  33:  34from tile   5(proc =   1)
(PID.TID 0000.0001) Tile    3(proc =   1)recv to points i=  -1:  34, j=  -1:   0from tile   2(proc =   1)
(PID.TID 0000.0001) Tile    3(proc =   1)recv to points i=  33:  34, j=  -1:  34from tile   4(proc =   1)
(PID.TID 0000.0001) Tile    3(proc =   1)recv to points i=  -1:   0, j=  -1:  34from tile   1(proc =   1)
(PID.TID 0000.0001) Tile    4(proc =   1)recv to points i=  -1:  34, j=  33:  34from tile   5(proc =   1)
(PID.TID 0000.0001) Tile    4(proc =   1)recv to points i=  -1:  34, j=  -1:   0from tile   2(proc =   1)
(PID.TID 0000.0001) Tile    4(proc =   1)recv to points i=  33:  34, j=  -1:  34from tile   6(proc =   1)
(PID.TID 0000.0001) Tile    4(proc =   1)recv to points i=  -1:   0, j=  -1:  34from tile   3(proc =   1)
(PID.TID 0000.0001) Tile    5(proc =   1)recv to points i=  -1:  34, j=  33:  34from tile   1(proc =   1)
(PID.TID 0000.0001) Tile    5(proc =   1)recv to points i=  -1:  34, j=  -1:   0from tile   4(proc =   1)
(PID.TID 0000.0001) Tile    5(proc =   1)recv to points i=  33:  34, j=  -1:  34from tile   6(proc =   1)
(PID.TID 0000.0001) Tile    5(proc =   1)recv to points i=  -1:   0, j=  -1:  34from tile   3(proc =   1)
(PID.TID 0000.0001) Tile    6(proc =   1)recv to points i=  -1:  34, j=  33:  34from tile   1(proc =   1)
(PID.TID 0000.0001) Tile    6(proc =   1)recv to points i=  -1:  34, j=  -1:   0from tile   4(proc =   1)
(PID.TID 0000.0001) Tile    6(proc =   1)recv to points i=  33:  34, j=  -1:  34from tile   2(proc =   1)
(PID.TID 0000.0001) Tile    6(proc =   1)recv to points i=  -1:   0, j=  -1:  34from tile   5(proc =   1)
(PID.TID 0000.0001) // =======================================================
(PID.TID 0000.0001) // Model parameter file "data"
(PID.TID 0000.0001) // =======================================================
(PID.TID 0000.0001) ># ====================
(PID.TID 0000.0001) ># | Model parameters |
(PID.TID 0000.0001) ># ====================
(PID.TID 0000.0001) >#
(PID.TID 0000.0001) ># Continuous equation parameters
(PID.TID 0000.0001) > &PARM01
(PID.TID 0000.0001) > tRef=289.6, 298.1, 314.5, 335.8, 437.4,
(PID.TID 0000.0001) > sRef=5*0.,
(PID.TID 0000.0001) > no_slip_sides=.FALSE.,
(PID.TID 0000.0001) > no_slip_bottom=.FALSE.,
(PID.TID 0000.0001) > buoyancyRelation='ATMOSPHERIC',
(PID.TID 0000.0001) > eosType='IDEALGAS',
(PID.TID 0000.0001) > atm_Rq=0.6078E-3,
(PID.TID 0000.0001) > Integr_GeoPot=2,
(PID.TID 0000.0001) > selectFindRoSurf=1,
(PID.TID 0000.0001) > rotationPeriod=86400.,
(PID.TID 0000.0001) > gravity=9.81,
(PID.TID 0000.0001) > rhonil=1.0,
(PID.TID 0000.0001) > rhoConst=1.0,
(PID.TID 0000.0001) > rhoConstFresh=1000.,
(PID.TID 0000.0001) > implicitFreeSurface=.TRUE.,
(PID.TID 0000.0001) > exactConserv=.TRUE.,
(PID.TID 0000.0001) > select_rStar=2,
(PID.TID 0000.0001) > nonlinFreeSurf=4,
(PID.TID 0000.0001) > hFacInf=0.2,
(PID.TID 0000.0001) > hFacSup=2.0,
(PID.TID 0000.0001) > uniformLin_PhiSurf=.FALSE.,
(PID.TID 0000.0001) > hFacMin=0.2,
(PID.TID 0000.0001) > saltAdvScheme=3,
(PID.TID 0000.0001) > vectorInvariantMomentum=.TRUE.,
(PID.TID 0000.0001) > useJamartWetPoints=.TRUE.,
(PID.TID 0000.0001) > staggerTimeStep=.TRUE.,
(PID.TID 0000.0001) > readBinaryPrec=64,
(PID.TID 0000.0001) > writeBinaryPrec=64,
(PID.TID 0000.0001) > &
(PID.TID 0000.0001) >
(PID.TID 0000.0001) ># Elliptic solver parameters
(PID.TID 0000.0001) > &PARM02
(PID.TID 0000.0001) > cg2dMaxIters=200,
(PID.TID 0000.0001) >#cg2dTargetResidual=1.E-12,
(PID.TID 0000.0001) > cg2dTargetResWunit=1.E-17,
(PID.TID 0000.0001) > &
(PID.TID 0000.0001) >
(PID.TID 0000.0001) ># Time stepping parameters
(PID.TID 0000.0001) > &PARM03
(PID.TID 0000.0001) > nIter0=0,
(PID.TID 0000.0001) > nTimeSteps=40,
(PID.TID 0000.0001) ># 10yr:
(PID.TID 0000.0001) >#endTime=311040000.,
(PID.TID 0000.0001) > deltaT=450.0,
(PID.TID 0000.0001) > abEps=0.1,
(PID.TID 0000.0001) > forcing_In_AB=.FALSE.,
(PID.TID 0000.0001) > cAdjFreq=0.,
(PID.TID 0000.0001) > pChkptFreq=2592000.,
(PID.TID 0000.0001) > taveFreq=2592000.,
(PID.TID 0000.0001) > dumpFreq=2592000.,
(PID.TID 0000.0001) > monitorFreq=86400.,
(PID.TID 0000.0001) > monitorFreq=1.,
(PID.TID 0000.0001) > &
(PID.TID 0000.0001) >
(PID.TID 0000.0001) ># Gridding parameters
(PID.TID 0000.0001) > &PARM04
(PID.TID 0000.0001) > usingCurvilinearGrid=.TRUE.,
(PID.TID 0000.0001) > delR=100.E2, 250.E2, 300.E2, 200.E2, 150.E2,
(PID.TID 0000.0001) > Ro_SeaLevel=1.E5,
(PID.TID 0000.0001) > rSphere=6370.E3,
(PID.TID 0000.0001) > &
(PID.TID 0000.0001) >
(PID.TID 0000.0001) ># Input datasets
(PID.TID 0000.0001) > &PARM05
(PID.TID 0000.0001) > topoFile='topo.cpl_FM.bin',
(PID.TID 0000.0001) > &
(PID.TID 0000.0001) 
(PID.TID 0000.0001) S/R INI_PARMS ; starts to read PARM01
(PID.TID 0000.0001) S/R INI_PARMS ; read PARM01 : OK
(PID.TID 0000.0001) S/R INI_PARMS ; starts to read PARM02
(PID.TID 0000.0001) S/R INI_PARMS ; read PARM02 : OK
(PID.TID 0000.0001) S/R INI_PARMS ; starts to read PARM03
(PID.TID 0000.0001) S/R INI_PARMS ; read PARM03 : OK
(PID.TID 0000.0001) S/R INI_PARMS ; starts to read PARM04
(PID.TID 0000.0001) S/R INI_PARMS ; read PARM04 : OK
(PID.TID 0000.0001) S/R INI_PARMS ; starts to read PARM05
(PID.TID 0000.0001) S/R INI_PARMS ; read PARM05 : OK
(PID.TID 0000.0001)  PACKAGES_BOOT: opening data.pkg
(PID.TID 0000.0001)  OPEN_COPY_DATA_FILE: opening file data.pkg
(PID.TID 0000.0001) // =======================================================
(PID.TID 0000.0001) // Parameter file "data.pkg"
(PID.TID 0000.0001) // =======================================================
(PID.TID 0000.0001) ># Packages
(PID.TID 0000.0001) >#     useAIM  :: use Atmospheric Intermediate complexity Model
(PID.TID 0000.0001) >#     useLand :: use (simple) Land package to compute surf. BC over land
(PID.TID 0000.0001) >#   useThSIce :: use Therm. SeaIce package (+slab ocean)
(PID.TID 0000.0001) > &PACKAGES
(PID.TID 0000.0001) > useAIM=.TRUE.,
(PID.TID 0000.0001) > useLand=.TRUE.,
(PID.TID 0000.0001) > useThSIce=.TRUE.,
(PID.TID 0000.0001) > useSHAP_FILT=.TRUE.,
(PID.TID 0000.0001) >#useMNC=.TRUE.,
(PID.TID 0000.0001) > &
(PID.TID 0000.0001) 
(PID.TID 0000.0001)  PACKAGES_BOOT: finished reading data.pkg
(PID.TID 0000.0001)  SHAP_FILT_READPARMS: opening data.shap
(PID.TID 0000.0001)  OPEN_COPY_DATA_FILE: opening file data.shap
(PID.TID 0000.0001) // =======================================================
(PID.TID 0000.0001) // Parameter file "data.shap"
(PID.TID 0000.0001) // =======================================================
(PID.TID 0000.0001) ># Shapiro Filter parameters
(PID.TID 0000.0001) > &SHAP_PARM01
(PID.TID 0000.0001) > shap_filt_uvStar=.FALSE.,
(PID.TID 0000.0001) > shap_filt_TrStagg=.TRUE.,
(PID.TID 0000.0001) > Shap_funct=2,
(PID.TID 0000.0001) > nShapT=4,
(PID.TID 0000.0001) > nShapUV=4,
(PID.TID 0000.0001) > nShapTrPhys=1,
(PID.TID 0000.0001) > nShapUVPhys=0,
(PID.TID 0000.0001) > Shap_TrLength=140000.,
(PID.TID 0000.0001) >#Shap_uvLength=140000.,
(PID.TID 0000.0001) > Shap_Trtau=5400.,
(PID.TID 0000.0001) > Shap_uvtau=1800.,
(PID.TID 0000.0001) >#Shap_diagFreq=2592000.,
(PID.TID 0000.0001) > &
(PID.TID 0000.0001) 
(PID.TID 0000.0001)  SHAP_FILT_READPARMS: finished reading data.shap
(PID.TID 0000.0001) Shap_funct =   /* select Shapiro filter function */
(PID.TID 0000.0001)                       2
(PID.TID 0000.0001)     ;
(PID.TID 0000.0001) nShapT =   /* power of Shapiro filter for Temperat */
(PID.TID 0000.0001)                       4
(PID.TID 0000.0001)     ;
(PID.TID 0000.0001) nShapS =   /* power of Shapiro filter for Salinity */
(PID.TID 0000.0001)                       4
(PID.TID 0000.0001)     ;
(PID.TID 0000.0001) nShapUV =   /* power of Shapiro filter for momentum */
(PID.TID 0000.0001)                       4
(PID.TID 0000.0001)     ;
(PID.TID 0000.0001) shap_filt_uvStar = /* apply filter before Press. Solver */
(PID.TID 0000.0001)                   F
(PID.TID 0000.0001)     ;
(PID.TID 0000.0001) shap_filt_TrStagg = /* filter T,S before calc PhiHyd (staggerTimeStep) */
(PID.TID 0000.0001)                   T
(PID.TID 0000.0001)     ;
(PID.TID 0000.0001) Shap_alwaysExchUV = /* always exch(U,V)    nShapUV times*/
(PID.TID 0000.0001)                   T
(PID.TID 0000.0001)     ;
(PID.TID 0000.0001) Shap_alwaysExchTr = /* always exch(Tracer) nShapTr times*/
(PID.TID 0000.0001)                   F
(PID.TID 0000.0001)     ;
(PID.TID 0000.0001) nShapTrPhys =   /* power of physical-space filter (Tracer) */
(PID.TID 0000.0001)                       1
(PID.TID 0000.0001)     ;
(PID.TID 0000.0001) nShapUVPhys =   /* power of physical-space filter (Momentum) */
(PID.TID 0000.0001)                       0
(PID.TID 0000.0001)     ;
(PID.TID 0000.0001) Shap_Trtau =   /* time scale of Shapiro filter (Tracer) */
(PID.TID 0000.0001)                 5.400000000000001E+03
(PID.TID 0000.0001)     ;
(PID.TID 0000.0001) Shap_TrLength =   /* Length scale of Shapiro filter (Tracer) */
(PID.TID 0000.0001)                 1.400000000000000E+05
(PID.TID 0000.0001)     ;
(PID.TID 0000.0001) Shap_uvtau =   /* time scale of Shapiro filter (Momentum) */
(PID.TID 0000.0001)                 1.800000000000000E+03
(PID.TID 0000.0001)     ;
(PID.TID 0000.0001) Shap_uvLength =   /* Length scale of Shapiro filter (Momentum) */
(PID.TID 0000.0001)                 0.000000000000000E+00
(PID.TID 0000.0001)     ;
(PID.TID 0000.0001) Shap_noSlip =  /* No-slip parameter (0=Free-slip ; 1=No-slip)*/
(PID.TID 0000.0001)                 0.000000000000000E+00
(PID.TID 0000.0001)     ;
(PID.TID 0000.0001) Shap_diagFreq =   /* Frequency^-1 for diagnostic output (s)*/
(PID.TID 0000.0001)                 0.000000000000000E+00
(PID.TID 0000.0001)     ;
(PID.TID 0000.0001)  THSICE_READPARMS: opening data.ice
(PID.TID 0000.0001)  OPEN_COPY_DATA_FILE: opening file data.ice
(PID.TID 0000.0001) // =======================================================
(PID.TID 0000.0001) // Parameter file "data.ice"
(PID.TID 0000.0001) // =======================================================
(PID.TID 0000.0001) > &THSICE_CONST
(PID.TID 0000.0001) > Tf0kel  = 273.15,
(PID.TID 0000.0001) > rhosw   = 1030.,
(PID.TID 0000.0001) >#- with LANL albedo:
(PID.TID 0000.0001) >#albWarmSnow=0.75,
(PID.TID 0000.0001) >#- for full ice-fraction :
(PID.TID 0000.0001) >#icemaskmin = 1.,
(PID.TID 0000.0001) >#himin0     = 0.01,
(PID.TID 0000.0001) >#frac_energy= 0.,
(PID.TID 0000.0001) >#hihig      =100.,
(PID.TID 0000.0001) >#- with fractional ice:
(PID.TID 0000.0001) > iceMaskmin = 0.01,
(PID.TID 0000.0001) > himin0     = 0.1,
(PID.TID 0000.0001) > hiMax      = 10.,
(PID.TID 0000.0001) > hsMax      = 10.,
(PID.TID 0000.0001) >#albIceMax  =0.7,
(PID.TID 0000.0001) >#albIceMin  =0.7,
(PID.TID 0000.0001) > &
(PID.TID 0000.0001) >
(PID.TID 0000.0001) > &THSICE_PARM01
(PID.TID 0000.0001) >#startIceModel=1,
(PID.TID 0000.0001) >#stepFwd_oceMxL=.TRUE.,
(PID.TID 0000.0001) > ocean_deltaT=3600.,
(PID.TID 0000.0001) >#tauRelax_MxL=5184000.,
(PID.TID 0000.0001) > stressReduction=0.,
(PID.TID 0000.0001) >#thSIce_taveFreq=2592000.,
(PID.TID 0000.0001) > thSIce_diagFreq=5184000.,
(PID.TID 0000.0001) >#thSIce_monFreq=864000.,
(PID.TID 0000.0001) >#thSIce_diagFreq=0.,
(PID.TID 0000.0001) > &
(PID.TID 0000.0001) >
(PID.TID 0000.0001) 
(PID.TID 0000.0001)  THSICE_READPARMS: read THSICE_CONST
(PID.TID 0000.0001)  THSICE_READPARMS: read THSICE_PARM01
 ThSI: rhos    =   330.000000000000     
 ThSI: rhoi    =   900.000000000000     
 ThSI: rhosw   =   1030.00000000000     
 ThSI: rhofw   =   1000.00000000000     
 ThSI: rhoiw   =   130.000000000000     
 ThSI: cpice   =   2106.00000000000     
 ThSI: cpwater =   3994.00000000000     
 ThSI: kice    =   2.03000000000000     
 ThSI: ksnow   =  0.300000000000000     
 ThSI: transcoef=   6.00000000000000D-003
 ThSI: Lfresh  =   334000.000000000     
 ThSI: qsnow   =   334000.000000000     
 ThSI: albColdSnow=  0.850000000000000     
 ThSI: albWarmSnow=  0.700000000000000     
 ThSI: albOldSnow =  0.550000000000000     
 ThSI: hNewSnowAge=   2.00000000000000D-003
 ThSI: albIceMax =  0.650000000000000     
 ThSI: albIceMin =  0.200000000000000     
 ThSI: hAlbIce   =  0.500000000000000     
 ThSI: hAlbSnow  =  0.300000000000000     
 ThSI: i0      =  0.300000000000000     
 ThSI: ksolar  =   1.50000000000000     
 ThSI: saltice =   4.00000000000000     
 ThSI: S_winton=   1.00000000000000     
 ThSI: mu_Tf   =   5.40000000000000D-002
 ThSI: Tf0kel  =   273.150000000000     
 ThSI: Tmlt1   =  -5.40000000000000D-002
 ThSI: himin   =   1.00000000000000D-002
 ThSI: Terrmax =  0.500000000000000     
 ThSI: nitMaxTsf=          20
 ThSI: hiMax   =   10.0000000000000     
 ThSI: hsMax   =   10.0000000000000     
 ThSI: iceMaskmax=   1.00000000000000     
 ThSI: iceMaskmin=   1.00000000000000D-002
 ThSI: himin0  =  0.100000000000000     
 ThSI: frac_energy  0.400000000000000     
 ThSI: hihig   =   2.50000000000000     
 ThSI: stressReduction =   0.00000000000000D+000
 ThSI: thSIce_deltaT =   450.000000000000     
 ThSI: ocean_deltaT  =   3600.00000000000     
 ThSI: stepFwd_oceMxL= F
 ThSI: tauRelax_MxL  =   0.00000000000000D+000
 ThSI: hMxL_default  =   50.0000000000000     
 ThSI: sMxL_default  =   35.0000000000000     
 ThSI: vMxL_default  =   5.00000000000000D-002
 ThSI: thSIce_taveFreq=   2592000.00000000     
 ThSI: thSIce_diagFreq=   5184000.00000000     
 ThSI: thSIce_monFreq =   1.00000000000000     
 ThSI: startIceModel =           0
(PID.TID 0000.0001)  CPL_READPARMS: opening data.cpl
(PID.TID 0000.0001)  OPEN_COPY_DATA_FILE: opening file data.cpl
(PID.TID 0000.0001) // =======================================================
(PID.TID 0000.0001) // Parameter file "data.cpl"
(PID.TID 0000.0001) // =======================================================
(PID.TID 0000.0001) ># Coupling package parameters, ATM component:
(PID.TID 0000.0001) ># cpl_earlyExpImpCall :: call coupler early in the time stepping call sequence
(PID.TID 0000.0001) >#     cpl_oldPickup  :: restart from an old pickup (= until ckpt 52m_post)
(PID.TID 0000.0001) >#     useImportMxlD  :: True => use Imported Mix.Layer Detph from coupler
(PID.TID 0000.0001) >#     useImportSST   :: True => use the Imported SST from coupler
(PID.TID 0000.0001) >#     useImportSSS   :: True => use the Imported SSS from coupler
(PID.TID 0000.0001) >#     useImportVsq   :: True => use the Imported Surf. velocity^2
(PID.TID 0000.0001) >#     cpl_atmSendFrq :: Frequency^-1 for sending data to coupler (s)
(PID.TID 0000.0001) > &CPL_ATM_PARAM
(PID.TID 0000.0001) ># cpl_earlyExpImpCall=.FALSE.,
(PID.TID 0000.0001) ># cpl_oldPickup=.TRUE.,
(PID.TID 0000.0001) ># useImportMxlD=.FALSE.,
(PID.TID 0000.0001) ># useImportSST =.FALSE.,
(PID.TID 0000.0001) ># useImportSSS =.FALSE.,
(PID.TID 0000.0001) ># useImportVsq =.FALSE.,
(PID.TID 0000.0001) >  cpl_atmSendFrq=3600.,
(PID.TID 0000.0001) > &
(PID.TID 0000.0001) >
(PID.TID 0000.0001) 
(PID.TID 0000.0001)  CPL_READPARMS: finished reading data.cpl
(PID.TID 0000.0001) 
(PID.TID 0000.0001) // ===================================
(PID.TID 0000.0001) // Coupling package parameters :
(PID.TID 0000.0001) // ===================================
(PID.TID 0000.0001) cpl_earlyExpImpCall= /* call coupler early in the time-stepping */
(PID.TID 0000.0001)                   T
(PID.TID 0000.0001)     ;
(PID.TID 0000.0001) cpl_oldPickup = /* restart from old pickup on/off flag */
(PID.TID 0000.0001)                   F
(PID.TID 0000.0001)     ;
(PID.TID 0000.0001) useImportMxlD = /* use Imported MxL. Depth from Coupler flag */
(PID.TID 0000.0001)                   T
(PID.TID 0000.0001)     ;
(PID.TID 0000.0001) useImportSST = /* use Imported SST from Coupler on/off flag */
(PID.TID 0000.0001)                   T
(PID.TID 0000.0001)     ;
(PID.TID 0000.0001) useImportSSS = /* use Imported SSS from Coupler on/off flag */
(PID.TID 0000.0001)                   T
(PID.TID 0000.0001)     ;
(PID.TID 0000.0001) useImportVsq = /* use Imported surf.Vel^2 from Coupler flag */
(PID.TID 0000.0001)                   T
(PID.TID 0000.0001)     ;
(PID.TID 0000.0001) cpl_atmSendFrq = /* Frequency^o-1 for sending data to Coupler (s) */
(PID.TID 0000.0001)                 3.600000000000000E+03
(PID.TID 0000.0001)     ;
(PID.TID 0000.0001) cplSendFrq_iter =   /* send data to coupler every "cplSendFrq" iter */
(PID.TID 0000.0001)                       8
(PID.TID 0000.0001)     ;
(PID.TID 0000.0001) tile:   1 ; Read from file tile001.mitgrid
(PID.TID 0000.0001)   => XC YC DXF DYF RA XG YG DXV DYU RAZ DXC DYC RAW RAS DXG DYG
(PID.TID 0000.0001) tile:   2 ; Read from file tile002.mitgrid
(PID.TID 0000.0001)   => XC YC DXF DYF RA XG YG DXV DYU RAZ DXC DYC RAW RAS DXG DYG
(PID.TID 0000.0001) tile:   3 ; Read from file tile003.mitgrid
(PID.TID 0000.0001)   => XC YC DXF DYF RA XG YG DXV DYU RAZ DXC DYC RAW RAS DXG DYG
(PID.TID 0000.0001) tile:   4 ; Read from file tile004.mitgrid
(PID.TID 0000.0001)   => XC YC DXF DYF RA XG YG DXV DYU RAZ DXC DYC RAW RAS DXG DYG
(PID.TID 0000.0001) tile:   5 ; Read from file tile005.mitgrid
(PID.TID 0000.0001)   => XC YC DXF DYF RA XG YG DXV DYU RAZ DXC DYC RAW RAS DXG DYG
(PID.TID 0000.0001) tile:   6 ; Read from file tile006.mitgrid
(PID.TID 0000.0001)   => XC YC DXF DYF RA XG YG DXV DYU RAZ DXC DYC RAW RAS DXG DYG
(PID.TID 0000.0001) %MON XC_max                       =   1.7854351589505E+02
(PID.TID 0000.0001) %MON XC_min                       =  -1.7854351589505E+02
(PID.TID 0000.0001) %MON XC_mean                      =  -4.6999441375798E-15
(PID.TID 0000.0001) %MON XC_sd                        =   1.0355545336287E+02
(PID.TID 0000.0001) %MON XG_max                       =   1.8000000000000E+02
(PID.TID 0000.0001) %MON XG_min                       =  -1.7708797161002E+02
(PID.TID 0000.0001) %MON XG_mean                      =   1.8796250616675E+00
(PID.TID 0000.0001) %MON XG_sd                        =   1.0410625309932E+02
(PID.TID 0000.0001) %MON DXC_max                      =   3.2375185836900E+05
(PID.TID 0000.0001) %MON DXC_min                      =   1.1142031410131E+05
(PID.TID 0000.0001) %MON DXC_mean                     =   2.8605689051214E+05
(PID.TID 0000.0001) %MON DXC_sd                       =   3.4042087138252E+04
(PID.TID 0000.0001) %MON DXF_max                      =   3.2369947500827E+05
(PID.TID 0000.0001) %MON DXF_min                      =   1.2020820513318E+05
(PID.TID 0000.0001) %MON DXF_mean                     =   2.8605437324820E+05
(PID.TID 0000.0001) %MON DXF_sd                       =   3.4050524252539E+04
(PID.TID 0000.0001) %MON DXG_max                      =   3.2375195872773E+05
(PID.TID 0000.0001) %MON DXG_min                      =   1.0098378008791E+05
(PID.TID 0000.0001) %MON DXG_mean                     =   2.8603818508931E+05
(PID.TID 0000.0001) %MON DXG_sd                       =   3.4140406908005E+04
(PID.TID 0000.0001) %MON DXV_max                      =   3.2380418162750E+05
(PID.TID 0000.0001) %MON DXV_min                      =   8.0152299824136E+04
(PID.TID 0000.0001) %MON DXV_mean                     =   2.8603970633619E+05
(PID.TID 0000.0001) %MON DXV_sd                       =   3.4145142117723E+04
(PID.TID 0000.0001) %MON YC_max                       =   8.7940663871963E+01
(PID.TID 0000.0001) %MON YC_min                       =  -8.7940663871963E+01
(PID.TID 0000.0001) %MON YC_mean                      =   0.0000000000000E+00
(PID.TID 0000.0001) %MON YC_sd                        =   3.8676242969072E+01
(PID.TID 0000.0001) %MON YG_max                       =   9.0000000000000E+01
(PID.TID 0000.0001) %MON YG_min                       =  -9.0000000000000E+01
(PID.TID 0000.0001) %MON YG_mean                      =  -1.2094344438470E-15
(PID.TID 0000.0001) %MON YG_sd                        =   3.9086186579984E+01
(PID.TID 0000.0001) %MON DYC_max                      =   3.2375185836900E+05
(PID.TID 0000.0001) %MON DYC_min                      =   1.1142031410131E+05
(PID.TID 0000.0001) %MON DYC_mean                     =   2.8605689051214E+05
(PID.TID 0000.0001) %MON DYC_sd                       =   3.4042087138252E+04
(PID.TID 0000.0001) %MON DYF_max                      =   3.2369947500827E+05
(PID.TID 0000.0001) %MON DYF_min                      =   1.2020820513318E+05
(PID.TID 0000.0001) %MON DYF_mean                     =   2.8605437324820E+05
(PID.TID 0000.0001) %MON DYF_sd                       =   3.4050524252539E+04
(PID.TID 0000.0001) %MON DYG_max                      =   3.2375195872773E+05
(PID.TID 0000.0001) %MON DYG_min                      =   1.0098378008791E+05
(PID.TID 0000.0001) %MON DYG_mean                     =   2.8603818508931E+05
(PID.TID 0000.0001) %MON DYG_sd                       =   3.4140406908005E+04
(PID.TID 0000.0001) %MON DYU_max                      =   3.2380418162750E+05
(PID.TID 0000.0001) %MON DYU_min                      =   8.0152299824136E+04
(PID.TID 0000.0001) %MON DYU_mean                     =   2.8603970633619E+05
(PID.TID 0000.0001) %MON DYU_sd                       =   3.4145142117723E+04
(PID.TID 0000.0001) %MON RA_max                       =   1.0479260248419E+11
(PID.TID 0000.0001) %MON RA_min                       =   1.4019007022556E+10
(PID.TID 0000.0001) %MON RA_mean                      =   8.2992246709265E+10
(PID.TID 0000.0001) %MON RA_sd                        =   1.7509089299457E+10
(PID.TID 0000.0001) %MON RAW_max                      =   1.0480965274559E+11
(PID.TID 0000.0001) %MON RAW_min                      =   1.2166903467143E+10
(PID.TID 0000.0001) %MON RAW_mean                     =   8.2992246709235E+10
(PID.TID 0000.0001) %MON RAW_sd                       =   1.7481917919656E+10
(PID.TID 0000.0001) %MON RAS_max                      =   1.0480965274559E+11
(PID.TID 0000.0001) %MON RAS_min                      =   1.2166903467143E+10
(PID.TID 0000.0001) %MON RAS_mean                     =   8.2992246709235E+10
(PID.TID 0000.0001) %MON RAS_sd                       =   1.7481917919656E+10
(PID.TID 0000.0001) %MON RAZ_max                      =   1.0484349334619E+11
(PID.TID 0000.0001) %MON RAZ_min                      =   8.8317900612505E+09
(PID.TID 0000.0001) %MON RAZ_mean                     =   8.2992246709235E+10
(PID.TID 0000.0001) %MON RAZ_sd                       =   1.7482297311044E+10
(PID.TID 0000.0001) %MON AngleCS_max                  =   1.0000000000000E+00
(PID.TID 0000.0001) %MON AngleCS_min                  =   1.0000000000000E+00
(PID.TID 0000.0001) %MON AngleCS_mean                 =   1.0000000000000E+00
(PID.TID 0000.0001) %MON AngleCS_sd                   =   0.0000000000000E+00
(PID.TID 0000.0001) %MON AngleSN_max                  =   0.0000000000000E+00
(PID.TID 0000.0001) %MON AngleSN_min                  =   0.0000000000000E+00
(PID.TID 0000.0001) %MON AngleSN_mean                 =   0.0000000000000E+00
(PID.TID 0000.0001) %MON AngleSN_sd                   =   0.0000000000000E+00
(PID.TID 0000.0001) 
(PID.TID 0000.0001) INI_PHIREF: PhiRef/g [m] at level Center (integer)
(PID.TID 0000.0001)                      and at level Interface (half-int.) :
(PID.TID 0000.0001)  K=  0.5  ;  r=  100000.0  ;  phiRef/g=       0.000
(PID.TID 0000.0001)  K=  1.0  ;  r=   95000.0  ;  phiRef/g=     431.199
(PID.TID 0000.0001)  K=  1.5  ;  r=   90000.0  ;  phiRef/g=    1256.487
(PID.TID 0000.0001)  K=  2.0  ;  r=   77500.0  ;  phiRef/g=    2105.998
(PID.TID 0000.0001)  K=  2.5  ;  r=   65000.0  ;  phiRef/g=    3775.246
(PID.TID 0000.0001)  K=  3.0  ;  r=   50000.0  ;  phiRef/g=    5536.327
(PID.TID 0000.0001)  K=  3.5  ;  r=   35000.0  ;  phiRef/g=    7908.298
(PID.TID 0000.0001)  K=  4.0  ;  r=   25000.0  ;  phiRef/g=   10440.915
(PID.TID 0000.0001)  K=  4.5  ;  r=   15000.0  ;  phiRef/g=   13806.721
(PID.TID 0000.0001)  K=  5.0  ;  r=    7500.0  ;  phiRef/g=   18190.889
(PID.TID 0000.0001)  K=  5.5  ;  r=       0.0  ;  phiRef/g=   39547.504
(PID.TID 0000.0001) // =======================================================
(PID.TID 0000.0001) // Field Bottom depths (ini_depths) at iteration          1
(PID.TID 0000.0001) // CMIN =          1.000000000000000E+32
(PID.TID 0000.0001) // CMAX =         -1.000000000000000E+32
(PID.TID 0000.0001) // CINT =          0.000000000000000E+00
(PID.TID 0000.0001) // SYMBOLS (CMIN->CMAX): -abcdefghijklmnopqrstuvwxyz+
(PID.TID 0000.0001) //                  0.0: .
(PID.TID 0000.0001) // RANGE I (Lo:Hi:Step):(  -1: 194:   1)
(PID.TID 0000.0001) // RANGE J (Lo:Hi:Step):(  34:  -1:  -1)
(PID.TID 0000.0001) // RANGE K (Lo:Hi:Step):(   1:   1:   1)
(PID.TID 0000.0001) // =======================================================
(PID.TID 0000.0001) // =======================================================
(PID.TID 0000.0001) // END OF FIELD                                          =
(PID.TID 0000.0001) // =======================================================
(PID.TID 0000.0001) 
(PID.TID 0000.0001)  MDSREADFIELD: opening global file: topo.cpl_FM.bin
(PID.TID 0000.0001) // =======================================================
(PID.TID 0000.0001) // Field Model R_low (ini_masks_etc) at iteration          1
(PID.TID 0000.0001) // CMIN =          1.000000000000000E+32
(PID.TID 0000.0001) // CMAX =         -1.000000000000000E+32
(PID.TID 0000.0001) // CINT =          0.000000000000000E+00
(PID.TID 0000.0001) // SYMBOLS (CMIN->CMAX): -abcdefghijklmnopqrstuvwxyz+
(PID.TID 0000.0001) //                  0.0: .
(PID.TID 0000.0001) // RANGE I (Lo:Hi:Step):(  -1: 194:   1)
(PID.TID 0000.0001) // RANGE J (Lo:Hi:Step):(  34:  -1:  -1)
(PID.TID 0000.0001) // RANGE K (Lo:Hi:Step):(   1:   1:   1)
(PID.TID 0000.0001) // =======================================================
(PID.TID 0000.0001) // =======================================================
(PID.TID 0000.0001) // END OF FIELD                                          =
(PID.TID 0000.0001) // =======================================================
(PID.TID 0000.0001) 
(PID.TID 0000.0001) // =======================================================
(PID.TID 0000.0001) // Field Model Ro_surf (ini_masks_etc) at iteration          1
(PID.TID 0000.0001) // CMIN =          4.905667583685931E+04
(PID.TID 0000.0001) // CMAX =          1.000000000000000E+05
(PID.TID 0000.0001) // CINT =          1.886789783820026E+03
(PID.TID 0000.0001) // SYMBOLS (CMIN->CMAX): -abcdefghijklmnopqrstuvwxyz+
(PID.TID 0000.0001) //                  0.0: .
(PID.TID 0000.0001) // RANGE I (Lo:Hi:Step):(  -1: 194:   1)
(PID.TID 0000.0001) // RANGE J (Lo:Hi:Step):(  34:  -1:  -1)
(PID.TID 0000.0001) // RANGE K (Lo:Hi:Step):(   1:   1:   1)
(PID.TID 0000.0001) // =======================================================
(PID.TID 0000.0001) K =   1
(PID.TID 0000.0001) //                I=8       I=18      I=28      I=34      I=44      I=54      I=64      I=70      I=80      I=90      I=96      I=106     I=116     I=126     I=132     I=142     I=152     I=162     I=168     I=178     I=188
(PID.TID 0000.0001) // |--J--|*01234567|901234567|901234567|901234123|567890123|567890123|567890123|563456789|123456789|123456789|123456785|789012345|789012345|789012345|789078901|345678901|345678901|345678901|901234567|901234567|901234567|901234
(PID.TID 0000.0001) //     34 ++++++++++++++++++zxwwwwwy++++nmnounnounny+zzzzzxxwwrnmmmqsuvvxxw+++++++++++++++++++++xxyzyxwtmlnnoy+++++++++++++++++++++++++++++++++++++++++++++++++++++++++++++++yxxwwxy++++++++++++++++++++++++++++++++++++++++++++++
(PID.TID 0000.0001) //     33 ++++++++++++++++++wttvwww++ywqstuuuouuuooy+yyzzyxwwqoomlmqtvutwyy++++++++++++++++++++xxxyyyxwunmnopx+++++++++++++++++++++++++++++++++++++++++++++++++++++++++++++++zyxwwwwy+++++++++++++++++++++++++++++++++++++++++++++
(PID.TID 0000.0001) //     32 ++++++++++++++++++wy+y+ww+xsrtwxyxvoyxvonrywwzywommlmpppqtttsuy++yy++yyy++++++++++++yxxyyxxxxvqmnpqw+++++++++++++++++++++++++++++++++++++++++++++++++++++++++++++++zyxwwwww+++++++++++++++++++++++++++++++++++++++++++++
(PID.TID 0000.0001) //     31 ++++++++++++++++wv++++++y+yxywxxyywqyywqnotsswwphglqttrnnqssswz++++++++++++++++++++zxxxyyxxyxwuport++++++++++++++++++++++++++++++++++++++++++++++++++++++++++++++++zyyxwwwww++++++++++++++++++++++++++++++++++++++++++++
(PID.TID 0000.0001) //     30 ++++++++++++++++w+++++++++++++wwxzyuxzyumnstsspmfdhmlhgfekosuxz+++++++++++++++++++++xxxyzyyyxwwsptx+++++++++++++++++++++++++++++++++++++++++++++++++++++++++++++zzzzyyxxwxxwwy++++++++++++++++++++++++++++++++++++++++++
(PID.TID 0000.0001) //     29 ++++++++++++++++++wwx+++++++++wwxyzxxyzxrnosspllkeabbaabdhmsvyzz++++++++++++++++++zxwwx++zyyxxwtps++++++++++++++++++++++++++++++++++++++++++++++++++++++++++++++yyzzyxxxxxxxxxz+++++++++++++++++++++++++++++++++++++++++
(PID.TID 0000.0001) //     28 +++++++++++++++xsvwxxxy+zzzzywwwwxyzwxyzypnorqnrwnc--aaabelsvxyx++++++++++++++++++zxxxx+++zyxxwvpr++++++++++++++++++++++++++++++++++++++++++++++++++++++++++++++yyzzyyxxyyyyyyzz++++++++++++++++++++++++++++++++++++++++
(PID.TID 0000.0001) //     27 +++++++++++++++vvwxxxxxxzzzyxwwvvwxyvwxyz+++trrwzwkdabccbenvwxxw++++++++++++++++++++xxyz++zyxxxwst+++++++++++++++++++++++++++++++++++++++++++++++++++++++++++++ywyz+zyxxyzz++zzz++++++++++++++++++++++++++++++++++++++++
(PID.TID 0000.0001) //     26 ++++++++++++++yxxyxwwwwxyyxxyxyyvwwxvwwxz++++yyyyyxvnmmmhhnuwxxy++++++++++++++++++++++++++zyxxxwss++++++++++++++++++++++++++++++++++++++++++++++++++++++++++++ywwx++zyyyxxxz++++z+++z+++++++++++++++++++++++++++++++++++
(PID.TID 0000.0001) //     25 +++++++++++++yyyyyxvuvwwwxwxyxy+vvwxvvwxzzx++++zxxxyxywwqorwxyy+++++++++++++++++++++++x++yyyxxxwss++++++++++++++++++++++++++++++++++++++++++++++++++++++++++++ywvwz+zzzwmkmrwyyzz+++z+++++++++++++++++++++++++++++++++++
(PID.TID 0000.0001) //     24 +++++++++++++yyyyyxwwwwstwwxyxy+wswxwswxyzz+++++xxxxy++xutvx++++++++++++++++++++++++++xx+yyzyxxvst++++++++++++++++++++++++++++++++++++++++++++++++++++++++++++ywxz++zzukgfghkqvxzz++zz++++++++++++++++++++++++++++++++++
(PID.TID 0000.0001) //     23 +++++++++++++zyyyyxxwwxxwwwxxxw++pvw+pvwxz++++++yxxy+++ywwwx+++++++++++++++++++++++oq+++xxzzyyxvsr++++++++++++++++++++++++++++++++++++++++++++++z+++++++++++++trwy+++wher+yumhkrwxy+wxy+++++++++++++++ww++++++++++++++++
(PID.TID 0000.0001) //     22 +++++++++++++zyyyyxyxxyyxwwwxxvr++wy++wy++++++++yxy+++++yxxw+++++++++++++++++++++++vlr+++x++zzywusw+++++++++++++++++++++++++++++++++++++++++++++xy++++++++++++wpqvy+xrht++++++xuuvwwuvww+++++++++++++lhhknw+++++++++++++
(PID.TID 0000.0001) //     21 +++++++++++++yxxyyyyxxyyxwwwxxrnv+++v++++++++++++yy++++++zyxy++++++++++++++++++++++vkkn++++++++xuutw++++++++++++++++++++++++++++++++++++++++++++xxx++++++++++++ywqsuop++++++++++++wu++wuwy++++++++++pkhghkklw+++++++++++
(PID.TID 0000.0001) //     20 +++++++++++++yxxyyyxxwxxxwwxxxpmqvwxqvwx+++++++++y++++++++++++++++++++++++++++++++++khknwt++++++wwwx++++++++++++++++++++++++++++++++++++++++++++xxxxxz++++++++++++wuw+++++++++++++++++++++++++x+++++okhhhhklr+++++++++++
(PID.TID 0000.0001) //     19 ++++++++++++++yyyyyyxwwwxwwxxwrnqwxyqwxy+++++++++++++++++y+++++++++++++++++++++++x++qlkmxx++++++xyy+++++++++++++++++++++++++++++++++++++++++++++yyxxwxz+++++++y++++++++++++++++++++++++++++++++ws++xqkhgghlow+++++++++++
(PID.TID 0000.0001) //     18 +++++++++++++++++++++wwxxxxwwwutwxz+wxz+++++++++++++++++yy++++yy++++++++w++++z++++++++rs++++++++++++++++++++++++++++++++++++++++++++++++++++++++yyyyxxz++++++y++++++++++++++++++++++++++++++++++xv+xqlhgfghkr+++++++++++
(PID.TID 0000.0001) //     17 +++++++++++++++++++++yxxyyxwturuy+++y++++++++++++++++++++yy++ywy++++++++v+++zy++++++++++++++++++++y+++++++++++++++++++++++++++++++++++++++++++++xxyzzyz++++zw+++++++++++++++++++++++++++++++++++xuwupkhgffghkq++++++++++
(PID.TID 0000.0001) //     16 +++++++++++++++++++++zxxxxxvrtqtz+++z+++++++++++++++++++++y++yy++++++z+++wwzz++++++++++++++++++++xxy++++++++++++++++++++++++++++++++++++++++++++xxyyyzz++++yw+++++++++++++++++++++++++++++++++++xsonnkhhggghho++++++++++
(PID.TID 0000.0001) //     15 zzzy++++++++++++++++++yxxxxvsusv+++++++++++++++++++++++++++z++++++++++yw+ytxy++xw++++++++++++++++wwx++++++++++++++++++++++++++++++++++++++++y+++yxxxxyz++++y+++++++++++++++++++++++++++++++++++++uoqsvkkhhhhkp++++++++++
(PID.TID 0000.0001) //     14 yyyxxy++++++++++++++++ywwwwvtttw++++++++++++++++++++++++++++++++++++++++++twxzzxwwwx++++++++++++zxwx+++++++++++++++++++++++++++++++++++++++++yy+xxwwxxxyz++v+++++++++++++++++++++++++++++++++++++woux+xmkhhklv++++++++++
(PID.TID 0000.0001) //     13 yxxxx++++++++++++++++++vvvvutsux+++++++++++++++++++++++++++++++++++++++++yvwxz++zzyy+++++++++++zyxwxx+++++++++++++++++++++++++++++++++++++++++++wvuttvwwvqot++++++++++++++++++++++++++++++++++++++vwy++plkkko+++++++++++
(PID.TID 0000.0001) //     12 xwwwy+++++++++++++++++xsuvuuuuwx++++++++++++++++++++++++++++++++++++++++++wwxzzzzzyy+++++++z+++xwwv++x++++++++++++++++++++++++++++++++++++++++++uqnmlossqoq++++++++++++++++++++++++++++++++++++++++++++qlkklw+++++++++++
(PID.TID 0000.0001) //     11 wwww++++++++++++++++++wtvvvvvvwy+++y+++y++++++++++++++++++++++++++zzzz+++wwwxyzzzzzz+++++zzyzywvtrv+++++++++++++++++++++++++++++++++++++++++++++pmmllnqpqw+++++++++++++++++++++++++++++++++++++++++++++qmmmq++++++++++++
(PID.TID 0000.0001) //     10 wwwx++++++++++++++++++xuvwwvuwy+++xw++xw+++++++++++++++++++++++++zyyyyzzywwwxyzzzzzzzzy++zxxxywvtsx+++++++++++++++++++++++++++++++++++++++++++++onnnoquw++++++++++++++++++++++++++++++++++++++++++++++++ww++++++++++++++
(PID.TID 0000.0001) //      9 wwwy+++++++++++++++++++tuvwvvw++++w+++w+++++++++++++++++++++++++zzyxyyyy+++yzzzzzzzzyxxzzywwxxyxxwx+++++++++++++++++++++++++++++++++++++++++++++rponrwy+++++++++++++++++++++++++++++++++++++++++++++++++++++++++++++++++
(PID.TID 0000.0001) //      8 wwy++++++++++++++++++++tuvvvwy++++x+++x+++++++++++++++++++++++yxxyxxxxyyyx+++zzzzzzyxyz+zzwwxxyxxwwxy+++++++++++++++++++++++++++++++++++++++++++tqposx++++++++++++++++++++++++++++++++++++++++++++++++++++++++++++++++++
(PID.TID 0000.0001) //      7 w++++++++++++++++++++++wvvusuz++++y+++y+++++++++++++++++++++++yxxxxxxxyzxsy++zzzzzzyyzzzzzxxxxwwwvvvxx+++++++++++++++++++++++++++++++++yxxxyy++++wxyy+++++++++++++++++++++++++++++++++++++++++++++++++++++++++++++++++++
(PID.TID 0000.0001) //      6 +++++++++++++++++++++++ywusqw+++++++++++++++++++++++++++++++++yxxxxxxxz+yrw++wzzzzyxyzzzzzxxxwuuwwxwxx++++++++++++++++++++++++++++++++zyyyyxxy++++++++++++++++++++++++++++++++++++++++++++++++++++++++++++++++++++++++++
(PID.TID 0000.0001) //      5 ++++++++++++++++++++++++vtrv++++++++++++++++++++++++++++++++++yxxyyyyyzzwtq++py++zyxzzzzzyxxxwsuwwxxxx+++++++++++++++++++++++++++++++yyxyzzzyy++++++++++++++++++++++++++++++++++++++++++++++++++++++++++++++++++++++++++
(PID.TID 0000.0001) //      4 ++++++++++++++++++++++++yyy+++++++++++++++++++++++++++++++++++yyyzzzzzzyxwsnnny++zyyyyzzywvtuvtvwwxxwx+++y+++y++++++++++++++++++w+++xxyyzzzzzz++++++++++++++++++++++++++++++++++++++++++++++++++++++++++++++++++++++++++
(PID.TID 0000.0001) //      3 +++++++++++++++++++++++++++++++++++++++++++++++++++++++++++++++++++++zzyxxtmnvz+zzzyxxxxwqpnotsuvwyxwy++++y+++y++++++++++++++++wv+++zyzzzzzyz+++++++++++++++++++++++++++++++++++++++++++++++++++++++++++++++++++++++++++
(PID.TID 0000.0001) //      2 ++++++++++++++++++++++++++++++++++++++++++++++++++++++++++++++++++++++zyyyunny+zzzzzxxwwrnmmmqsuvvxxw+++++y+++y++++++++++++++++w++++zyyz+zyyy+++++++++++++++++++++++++++++++++++++++++++++++++++++++++++++++++++++++++++
(PID.TID 0000.0001) //      1 ++++++++++++++++++++++++++++++++++++++++++++++++++++++++++++++++++++++++yxuooy+yyzzyxwwqoomlmqtvutwyy+++++y+++y++++++++++++++++y++++zyyyzzzzz+++++++++++++++++++++++++++++++++++++++++++++++++++++++++++y+++++++++++++++
(PID.TID 0000.0001) //      0 ++++++++++++++++++++++++++++++++++++++++++++++++++++++++++++++++++++++++wvvonrywwzywommlmpppqtttsuy++yy++yy++yy+++++++++++++++z++++zyyxxxyzz++++++++++++++++++++++++++++++++++++++++++++++++++++++++++++y+++++++yyz++++z
(PID.TID 0000.0001) //     -1 ++++++++++++++++++++++++++++++++++++++++++++++++++++++++++++++++++++++++qowqnotsswwphglqttrnnqssswz++++++++++++++++++++++++++++++++zyyxxxyz++++++++++++++++++++++++++++++++++++++++++++++++++++++++++++y+++++++yxyzzyz+y
(PID.TID 0000.0001) // =======================================================
(PID.TID 0000.0001) // END OF FIELD                                          =
(PID.TID 0000.0001) // =======================================================
(PID.TID 0000.0001) 
(PID.TID 0000.0001) // =======================================================
(PID.TID 0000.0001) // Field hFacC at iteration          1
(PID.TID 0000.0001) // CMIN =          2.000000000000000E-01
(PID.TID 0000.0001) // CMAX =          1.000000000000000E+00
(PID.TID 0000.0001) // CINT =          2.962962962962963E-02
(PID.TID 0000.0001) // SYMBOLS (CMIN->CMAX): -abcdefghijklmnopqrstuvwxyz+
(PID.TID 0000.0001) //                  0.0: .
(PID.TID 0000.0001) // RANGE I (Lo:Hi:Step):(  -1: 194:   1)
(PID.TID 0000.0001) // RANGE J (Lo:Hi:Step):(  34:  -1:  -1)
(PID.TID 0000.0001) // RANGE K (Lo:Hi:Step):(   1:   1:   1)
(PID.TID 0000.0001) // =======================================================
(PID.TID 0000.0001) K =   1
(PID.TID 0000.0001) //                I=8       I=18      I=28      I=34      I=44      I=54      I=64      I=70      I=80      I=90      I=96      I=106     I=116     I=126     I=132     I=142     I=152     I=162     I=168     I=178     I=188
(PID.TID 0000.0001) // |--J--|*01234567|901234567|901234567|901234123|567890123|567890123|567890123|563456789|123456789|123456789|123456785|789012345|789012345|789012345|789078901|345678901|345678901|345678901|901234567|901234567|901234567|901234
(PID.TID 0000.0001) //     34 ++++++++++++++++++qe--bbap++++...........k+vtutskgc-..........hj-+++++++++++++++++++++hiorojd......k+++++++++++++++++++++++++++++++++++++++++++++++++++++++++++++++mgecdel++++++++++++++++++++++++++++++++++++++++++++++
(PID.TID 0000.0001) //     33 ++++++++++++++++++b...bac++k-............k+pqvspec-...........elk++++++++++++++++++++ihknomid......e+++++++++++++++++++++++++++++++++++++++++++++++++++++++++++++++tnhdc--l+++++++++++++++++++++++++++++++++++++++++++++
(PID.TID 0000.0001) //     32 ++++++++++++++++++ak+k+c-+e...bilg..lg....kaaro-..............k++kl++kkk++++++++++++mgillkije......d++++++++++++++++++++++++++++++++++++++++++++++++++++++++++++++ysnheba--+++++++++++++++++++++++++++++++++++++++++++++
(PID.TID 0000.0001) //     31 ++++++++++++++++-.++++++k+kfkdeipp-.pp-......db..............ar++++++++++++++++++++vkfilljikga.....+++++++++++++++++++++++++++++++++++++++++++++++++++++++++++++++yspmhbadcc++++++++++++++++++++++++++++++++++++++++++++
(PID.TID 0000.0001) //     30 ++++++++++++++++c+++++++++++++-citk.itk......................ju+++++++++++++++++++++hfipsnkmhc-...k+++++++++++++++++++++++++++++++++++++++++++++++++++++++++++++wuvrmlkgdhha-l++++++++++++++++++++++++++++++++++++++++++
(PID.TID 0000.0001) //     29 ++++++++++++++++++baf+++++++++-bfmvkfmvk.....................ouw++++++++++++++++++rkddi++tpoifa...++++++++++++++++++++++++++++++++++++++++++++++++++++++++++++++qoutnjjgfijgfhr+++++++++++++++++++++++++++++++++++++++++
(PID.TID 0000.0001) //     28 +++++++++++++++e..-fhjm+uuvtl---bfnwbfnwl.......-............kki++++++++++++++++++rjeej+++uoigc...++++++++++++++++++++++++++++++++++++++++++++++++++++++++++++++lovwolkjnpooqqrv++++++++++++++++++++++++++++++++++++++++
(PID.TID 0000.0001) //     27 +++++++++++++++..egiifekstspjd-..beo.beot+++...bta..........bjhd++++++++++++++++++++kint++xpige-..+++++++++++++++++++++++++++++++++++++++++++++++++++++++++++++ldmwytniiouwxxxvw++++++++++++++++++++++++++++++++++++++++
(PID.TID 0000.0001) //     26 ++++++++++++++kfimidbcdgkmiknill.-bj.-bjw++++llpmpe.........bfgl++++++++++++++++++++++++++vpjiga..++++++++++++++++++++++++++++++++++++++++++++++++++++++++++++m--iyzvnmnffiszxxxv+++v+++++++++++++++++++++++++++++++++++
(PID.TID 0000.0001) //     25 +++++++++++++qmmonf...b-agcgnil+..bj..bjutg++++vhhknhkc-...-ill+++++++++++++++++++++++j++qopkih-..++++++++++++++++++++++++++++++++++++++++++++++++++++++++++++l-.euzwtr-....dlpus+++s+++++++++++++++++++++++++++++++++++
(PID.TID 0000.0001) //     24 ++++++++++++xplmnng--a-..achmil+-.-i-.-inus+++++ighho++e...h++++++++++++++++++++++++++jh+pqslih...++++++++++++++++++++++++++++++++++++++++++++++++++++++++++++lbkrxxxu.........isw++sw++++++++++++++++++++++++++++++++++
(PID.TID 0000.0001) //     23 ++++++++++++ysnmmlhf-bifdcbgijc++..c+..cht++++++lgil+++ob-bg+++++++++++++++++++++++..+++jjrwpli...++++++++++++++++++++++++++++++++++++++++++++++v+++++++++++++..-qyyxc...+l.....afm+afm+++++++++++++++-c++++++++++++++++
(PID.TID 0000.0001) //     22 ++++++++++++ysonmmjkfhmnia-cfi..++al++al++++++++ofk+++++nigc+++++++++++++++++++++++...+++h++rrna..a+++++++++++++++++++++++++++++++++++++++++++++km++++++++++++e...nxi...++++++e...-d..-d+++++++++++++.....-+++++++++++++
(PID.TID 0000.0001) //     21 ++++++++++++yojkmnmlhjmmha-cfe...+++.++++++++++++ll++++++spjl++++++++++++++++++++++....++++++++j...a++++++++++++++++++++++++++++++++++++++++++++fgi++++++++++++l-.....++++++++++++e.++e.-l++++++++++........-+++++++++++
(PID.TID 0000.0001) //     20 +++++++++++++lfhlnljecfiidbgie....af..af+++++++++l+++++++++y++++++++++++++++++++++++....-.++++++-cej++++++++++++++++++++++++++++++++++++++++++++iihhjr++++++++++++-.c+++++++++++++++++++++++++j+++++.........+++++++++++
(PID.TID 0000.0001) //     19 ++++++++++++++lkoqpqi--bfdcegd...-fm.-fm+++++++++++++++++q+++++++++++++++++++++++j++....jj++++++kmp+++++++++++++++++++++++++++++++++++++++++++++llkidfsz++++++l++++++++++++++++++++++++++++++++b.++j........a+++++++++++
(PID.TID 0000.0001) //     18 +++++++++++++++++++++bbehgeb--..-kr+-kr+++++++++++++++++ll++++ll++++++++-++++t++++++++..++++++++++++++++++++++++++++++++++++++++++++++++++++++++llnoihr++++++l++++++++++++++++++++++++++++++++++j.+j.........+++++++++++
(PID.TID 0000.0001) //     17 +++++++++++++++++++++lghlkh-....lx++lx+++++++++++++++++++lp++lal++++++++.+++ro++++++++++++++++++++o+++++++++++++++++++++++++++++++++++++++++++++jkorrqv++++tc+++++++++++++++++++++++++++++++++++j.a...........++++++++++
(PID.TID 0000.0001) //     16 yy+++++++++++++++++++rhhkkg.....r+++r+++++++++++++++++++++l++pl++++++r+++abqw++++++++++++++++++++fim++++++++++++++++++++++++++++++++++++++++++++iimoorwz+++n-+++++++++++++++++++++++++++++++++++j.............++++++++++
(PID.TID 0000.0001) //     15 sstm++++++++++++++++++lfghe.....+++++++++++++++++++++++++++s++++++++++l-+k.eq++fc++++++++++++++++dbj++++++++++++++++++++++++++++++++++++++++o+++kjijkntx+++l+++++++++++++++++++++++++++++++++++++.............++++++++++
(PID.TID 0000.0001) //     14 pnnghl++++++++++++++++l--aa....a++++++++++++++++++++++++++++++++++++++++++.-kxwjccbj++++++++++++ufah+++++++++++++++++++++++++++++++++++++++++kl+geddegins++.+++++++++++++++++++++++++++++++++++++a..i+j.......++++++++++
(PID.TID 0000.0001) //     13 mhhei++++++++++++++++++........e+++++++++++++++++++++++++++++++++++++++++k.-guy+vsll+++++++++++uqe-jj+++++++++++++++++++++++++++++++++++++++++++a.....--....++++++++++++++++++++++++++++++++++++++.cn++......+++++++++++
(PID.TID 0000.0001) //     12 hedcn+++++++++++++++++g.......-g+++++++++++++++++++++++++++++++++++++x++++bbgsvwwuqp+++++++r+++gb-.++k++++++++++++++++++++++++++++++++++++++++++...........++++++++++++++++++++++++++++++++++++++++++++.....a+++++++++++
(PID.TID 0000.0001) //     11 bbcd++++++++++++++++++c.......al+++l+++l++++++++++++++++++++++++++sttt+++cabfqstuutu+++++wsqtna....+++++++++++++++++++++++++++++++++++++++++++++.........b+++++++++++++++++++++++++++++++++++++++++++++.....++++++++++++
(PID.TID 0000.0001) //     10 aa-e++++++++++++++++++e..--..-k+++gd++gd+++++++++++++++++++++++++vkknpswk-cafqsrrttuusqxytiijkb...j+++++++++++++++++++++++++++++++++++++++++++++.......-++++++++++++++++++++++++++++++++++++++++++++++++-a++++++++++++++
(PID.TID 0000.0001) //      9 d--l+++++++++++++++++++...-..c++++a+++a+++++++++++++++++++++++++urlkkmoq+++prtsrsuttmghtxnabejljh-j+++++++++++++++++++++++++++++++++++++++++++++.....-l+++++++++++++++++++++++++++++++++++++++++++++++++++++++++++++++++
(PID.TID 0000.0001) //      8 c-l++++++++++++++++++++.....-o++++f+++f+++++++++++++++++++++++ohilkihhmpke++yvsstutqjnsxxrddfikie--ko+++++++++++++++++++++++++++++++++++++++++++.....f++++++++++++++++++++++++++++++++++++++++++++++++++++++++++++++++++
(PID.TID 0000.0001) //      7 c++++++++++++++++++++++a.....s++++l+++l+++++++++++++++++++++++nggiigfhouf.k++rvtstsnmuxwvshghgc--...ek+++++++++++++++++++++++++++++++++piffkk++++dekk+++++++++++++++++++++++++++++++++++++++++++++++++++++++++++++++++++
(PID.TID 0000.0001) //      6 +++++++++++++++++++++++l-...a+++++++++++++++++++++++++++++++++nhhiiggjtyk.-++-swwumhowxwwtiihb..-bfafk++++++++++++++++++++++++++++++++sklnlifm++++++++++++++++++++++++++++++++++++++++++++++++++++++++++++++++++++++++++
(PID.TID 0000.0001) //      5 ++++++++++++++++++++++++....++++++++++++++++++++++++++++++++++oijlnmnqvxd..++.l+zuliquvxwqkhe-..-bjgge+++++++++++++++++++++++++++++++nmjottuqp++++++++++++++++++++++++++++++++++++++++++++++++++++++++++++++++++++++++++
(PID.TID 0000.0001) //      4 ++++++++++++++++++++++++kkk+++++++++++++++++++++++++++++++++++qmosuutttqeb....m++toooorul-......--jgck+++k+++k++++++++++++++++++-+++jglpsuuvvu++++++++++++++++++++++++++++++++++++++++++++++++++++++++++++++++++++++++++
(PID.TID 0000.0001) //      3 +++++++++++++++++++++++++++++++++++++++++++++++++++++++++++++++++++++vrnii....tyvtrqjhhh-........-kjak++++k+++k++++++++++++++++-.++xtprtvwtpr+++++++++++++++++++++++++++++++++++++++++++++++++++++++++++++++++++++++++++
(PID.TID 0000.0001) //      2 ++++++++++++++++++++++++++++++++++++++++++++++++++++++++++++++++++++++sppl...k+vtutskgc-..........hj-+++++k+++k++++++++++++++++-++++wqpuyxqnp+++++++++++++++++++++++++++++++++++++++++++++++++++++++++++++++++++++++++++
(PID.TID 0000.0001) //      1 ++++++++++++++++++++++++++++++++++++++++++++++++++++++++++++++++++++++++pg...k+pqvspec-...........elk+++++k+++k++++++++++++++++l++++somotvtrs+++++++++++++++++++++++++++++++++++++++++++++++++++++++++++l+++++++++++++++
(PID.TID 0000.0001) //      0 ++++++++++++++++++++++++++++++++++++++++++++++++++++++++++++++++++++++++-.....kaaro-..............k++kl++kk++kk+++++++++++++++r+++xtpmhhjqtv++++++++++++++++++++++++++++++++++++++++++++++++++++++++++++k+++++++mpu++++s
(PID.TID 0000.0001) //     -1 ++++++++++++++++++++++++++++++++++++++++++++++++++++++++++++++++++++++++..-......db..............ar++++++++++++++++++++++++++++++++tnkhfgnt++++++++++++++++++++++++++++++++++++++++++++++++++++++++++++o+++++++kfqvrps+p
(PID.TID 0000.0001) // =======================================================
(PID.TID 0000.0001) // END OF FIELD                                          =
(PID.TID 0000.0001) // =======================================================
(PID.TID 0000.0001) 
(PID.TID 0000.0001) // =======================================================
(PID.TID 0000.0001) // Field hFacW at iteration          1
(PID.TID 0000.0001) // CMIN =          2.000000000000000E-01
(PID.TID 0000.0001) // CMAX =          1.000000000000000E+00
(PID.TID 0000.0001) // CINT =          2.962962962962963E-02
(PID.TID 0000.0001) // SYMBOLS (CMIN->CMAX): -abcdefghijklmnopqrstuvwxyz+
(PID.TID 0000.0001) //                  0.0: .
(PID.TID 0000.0001) // RANGE I (Lo:Hi:Step):(  -1: 194:   1)
(PID.TID 0000.0001) // RANGE J (Lo:Hi:Step):(  34:  -1:  -1)
(PID.TID 0000.0001) // RANGE K (Lo:Hi:Step):(   1:   1:   1)
(PID.TID 0000.0001) // =======================================================
(PID.TID 0000.0001) K =   1
(PID.TID 0000.0001) //                I=8       I=18      I=28      I=34      I=44      I=54      I=64      I=70      I=80      I=90      I=96      I=106     I=116     I=126     I=132     I=142     I=152     I=162     I=168     I=178     I=188
(PID.TID 0000.0001) // |--J--|*01234567|901234567|901234567|901234123|567890123|567890123|567890123|563456789|123456789|123456789|123456785|789012345|789012345|789012345|789078901|345678901|345678901|345678901|901234567|901234567|901234567|901234
(PID.TID 0000.0001) //     34 ++++++++++++++++++qe---baap+++............kvtttskgc-...........h--++++k+++++++++++++++hhioojd.......k++++++++++++++++++++++++++++++++++++++++++++++++++++++++++++++mgeccdel+++++++++++++++++++++++++++++++++++++++++++++
(PID.TID 0000.0001) //     33 ++++++++++++++++++b....aac+k-.............kppqspec-............ekk++++k++++++++++++++ihhknmid.......e++++++++++++++++++++++++++++++++++++++++++++++++++++++++++++++tnhdc---l++++++++++++++++++++++++++++++++++++++++++++
(PID.TID 0000.0001) //     32 ++++++++++++++++++aakkkc--e....big..ig.....aaao-...............k+kkl+kkk++++++++++++mggilkiie.......d+++++++++++++++++++++++++++++++++++++++++++++++++++++++++++++ysnheba---++++++++++++++++++++++++++++++++++++++++++++
(PID.TID 0000.0001) //     31 ++++++++++++++++-..+++++kkkffddeip-.ip-.......b...............ar+++++++++++++++++++vkffiljiiga......++++++++++++++++++++++++++++++++++++++++++++++++++++++++++++++yspmhbaaccc+++++++++++++++++++++++++++++++++++++++++++
(PID.TID 0000.0001) //     30 ++++++++++++++++cc++++++++++++--cik.cik.......................ju++++++++++++++++++++hffipnkkhc-....k++++++++++++++++++++++++++++++++++++++++++++++++++++++++++++wuurmlkgddha--l+++++++++++++++++++++++++++++++++++++++++
(PID.TID 0000.0001) //     29 ++++++++++++++++++baaf++++++++--bfmkbfmk......................ouw+++++++++++++++++rkdddi+tpoifa....+++++++++++++++++++++++++++++++++++++++++++++++++++++++++++++qootnjjgffigffhr++++++++++++++++++++++++++++++++++++++++
(PID.TID 0000.0001) //     28 +++++++++++++++e...-fhjmuuutl----bfn-bfnl.....................kii+++++++++++++++++rjeeej++uoigc....+++++++++++++++++++++++++++++++++++++++++++++++++++++++++++++llovolkjjnoooqqrv+++v+++++++++++++++++++++++++++++++++++
(PID.TID 0000.0001) //     27 +++++++++++++++...egifeeksspjd-...be..beot++....ba...........bhdd+++++++++++++++++++kiint+xpige-...++++++++++++++++++++++++++++++++++++++++++++++++++++++++++++lddmwtniiiouwxxvvw+++w+++++++++++++++++++++++++++++++++++
(PID.TID 0000.0001) //     26 ++++++++++++++kffiidbbcdgkiikiil..-b..-bjw+++lllmme..........bfgl+++++++++++++++++++++++++vpjiga...+++++++++++++++++++++++++++++++++++++++++++++++++++++++++++m---iyvnmmfffisxxxvv++vv++++++++++++++++++++++++++++++++++
(PID.TID 0000.0001) //     25 +++++++++++++qmmmnf....--accgiil...b...bjtgg+++vhhhkhhc-....-ill++++++++++++++++++++++jj+qookih-...+++++++++++++++++++++++++++++++++++++++++++++++++++++++++++l-..euwtr-.....dlpss++ss++++++++++++++++++++++++++++++++++
(PID.TID 0000.0001) //     24 ++++++++++++xpllmng----...achiil-..--..-inss++++igghho+e....h+++++++++++++++++++++++++jhhppqlih....+++++++++++++++++++++++++++++++++++++++++++++++++++++++++++lbbkrxxu..........isw+isw+++++++++++++++++++++++++++++++++
(PID.TID 0000.0001) //     23 ++++++++++++ysnmmlhf--bfdcbbgicc+...+...cht+++++lggil++ob--bg++++++++++++++++++++++...++jjjrpli....+++++++++++++++++++++++++++++++++++++++++++++vv++++++++++++...-qyxc....l......afm.afm++++++++++++++--c+++++++++++++++
(PID.TID 0000.0001) //     22 ++++++++++++ysonmmjjffhmia--cf...+aa.+aal+++++++offk++++nigcc++++++++++++++++++++++....++hh+rrna...a++++++++++++++++++++++++++++++++++++++++++++hkm+++++++++++e....ni....+++++e....-...-d++++++++++++......-++++++++++++
(PID.TID 0000.0001) //     21 ++++++++++++yojjkmmlhhjmha--ce....++..+++++++++++lll+++++spjjl+++++++++++++++++++++.....+++++++j....a+++++++++++++++++++++++++++++++++++++++++++ffgi+++++++++++l-......+++++++++++e.++e..-l+++++++++.........-++++++++++
(PID.TID 0000.0001) //     20 +++++++++++++lffhlljeccfidbbge.....a...af++++++++ll++++++++yy+++++++++++++++++++++++.......+++++--cej+++++++++++++++++++++++++++++++++++++++++++iihhhjr+++++++++++-..c++++++++++++++++++++++++jj++++..........++++++++++
(PID.TID 0000.0001) //     19 ++++++++++++++lkkoppi---bdcced....-f..-fm++++++++++++++++qq++++++++++++++++++++++jj+.....jj+++++kkmp++++++++++++++++++++++++++++++++++++++++++++llkiddfsz+++++ll+++++++++++++++++++++++++++++++b..+j.........a++++++++++
(PID.TID 0000.0001) //     18 w++++++++++++++++++++bbbegeb--...-kr.-kr++++++++++++++++lll+++lll+++++++--+++tt+++++++...+++++++++++++++++++++++++++++++++++++++++++++++++++++++lllnihhr+++++ll+++++++++++++++++++++++++++++++++j..j..........++++++++++
(PID.TID 0000.0001) //     17 u++++++++++++++++++++lgghkh-.....lx+.lx++++++++++++++++++llp+laal+++++++..++roo+++++++++++++++++++oo++++++++++++++++++++++++++++++++++++++++++++jjkorqqv+++tcc++++++++++++++++++++++++++++++++++j..............+++++++++
(PID.TID 0000.0001) //     16 vyy++++++++++++++++++rhhhkg......r++.r++++++++++++++++++++ll+pll+++++rr++aabqw+++++++++++++++++++ffim+++++++++++++++++++++++++++++++++++++++++++iiimoorwz++n--++++++++++++++++++++++++++++++++++j..............+++++++++
(PID.TID 0000.0001) //     15 rssmm+++++++++++++++++lffge......+++.++++++++++++++++++++++ss+++++++++l-+k..eq+fcc+++++++++++++++dbbj+++++++++++++++++++++++++++++++++++++++oo++kjiijkntx++ll++++++++++++++++++++++++++++++++++++..............+++++++++
(PID.TID 0000.0001) //     14 mnngghl+++++++++++++++l---a.....a+++a+++++++++++++++++++++++++++++++++++++..-kwjccbbj+++++++++++ufaah++++++++++++++++++++++++++++++++++++++++kklgedddegins+..++++++++++++++++++++++++++++++++++++a...ij........+++++++++
(PID.TID 0000.0001) //     13 lhheei+++++++++++++++++.........e+++e++++++++++++++++++++++++++++++++++++k..-guyvslll++++++++++uqe--jj++++++++++++++++++++++++++++++++++++++++++a......-.....+++++++++++++++++++++++++++++++++++++..cn+.......++++++++++
(PID.TID 0000.0001) //     12 hedccn++++++++++++++++g........-g+++g++++++++++++++++++++++++++++++++xx+++bbbgsvwuqpp++++++rr++gb-..+kk+++++++++++++++++++++++++++++++++++++++++............+++++++++++++++++++++++++++++++++++++++++++......a++++++++++
(PID.TID 0000.0001) //     11 bbbcd+++++++++++++++++c........al++ll++ll+++++++++++++++++++++++++ssttt++caabfqstuttu++++wsqqna.....++++++++++++++++++++++++++++++++++++++++++++..........b++++++++++++++++++++++++++++++++++++++++++++......+++++++++++
(PID.TID 0000.0001) //     10 aa--e+++++++++++++++++e...-...-k++gd++gdd++++++++++++++++++++++++vkkknpsk--aafqrrrttusqqxtiiijb....j++++++++++++++++++++++++++++++++++++++++++++........-+++++++++++++++++++++++++++++++++++++++++++++++--a+++++++++++++
(PID.TID 0000.0001) //      9 d---l++++++++++++++++++.......c+++aa++aa++++++++++++++++++++++++urlkkkmo+++pprsrrsttmgghtnaabejjh--j++++++++++++++++++++++++++++++++++++++++++++......-l++++++++++++++++++++++++++++++++++++++++++++++++++++++++++++++++
(PID.TID 0000.0001) //      8 c--l+++++++++++++++++++......-o+++ff++ff++++++++++++++++++++++ohhikihhhmkee+yvsssttqjjnsxrdddfiie---ko++++++++++++++++++++++++++++++++++++++++++......f+++++++++++++++++++++++++++++++++++++++++++++++++++++++++++++++++
(PID.TID 0000.0001) //      7 ac+++++++++++++++++++++a......s+++ll++ll++++++++++++++++++++++ngggigffhof..k+rrtsssnmmuwvshgggc--....ek++++++++++++++++++++++++++++++++pifffkk+++ddekk++++++++++++++++++++++++++++++++++++++++++++++++++++++++++++++++++
(PID.TID 0000.0001) //      6 -++++++++++++++++++++++l-....a++++++++++++++++++++++++++++++++nhhhigggjtk..-+--swumhhowwwtiihb...-baafk+++++++++++++++++++++++++++++++skklliffm+++++++++++++++++++++++++++++++++++++++++++++++++++++++++++++++++++++++++
(PID.TID 0000.0001) //      5 l+++++++++++++++++++++++.....+++++++++++++++++++++++++++++++++oiijlmmnqvd...+..lzuliiquvwqkhe-...-bggee++++++++++++++++++++++++++++++nmjjottqpp+++++++++++++++++++++++++++++++++++++++++++++++++++++++++++++++++++++++++
(PID.TID 0000.0001) //      4 ++++++++++++++++++++++++kkkk++++++++++++++++++++++++++++++++++qmmosutttq-b.....m+tooooorl-.......--gcck++kk++kk+++++++++++++++++--++jgglpsuuvuu+++++++++++++++++++++++++++++++++++++++++++++++++++++++++++++++++++++++++
(PID.TID 0000.0001) //      3 +++++++++++++++++++++++++++++++++++++++++++++++++++++++++++++++++++++vrnci.....tvtrqjhhh-.........-jaak+++kk++kk+++++++++++++++-..+xtpprtvtppr++++++++++++++++++++++++++++++++++++++++++++++++++++++++++++++++++++++++++
(PID.TID 0000.0001) //      2 ++++++++++++++++++++++++++++++++++++++++++++++++++++++++++++++++++++++spil....kvtttskgc-...........h--++++kk++kk+++++++++++++++--+++wqppuxqnnp++++++++++++++++++++++++++++++++++++++++++++++++++++++++++++++++++++++++++
(PID.TID 0000.0001) //      1 ++++++++++++++++++++++++++++++++++++++++++++++++++++++++++++++++++++++++pg....kppqspec-............ekk++++kk++kk+++++++++++++++ll+++sommottrrs++++++++++++++++++++++++++++++++++++++++++++++++++++++++++ll++++++++++++++
(PID.TID 0000.0001) //      0 ++++++++++++++++++++++++++++++++++++++++++++++++++++++++++++++++++++++++-......aaao-...............k+kkl+kkk+kkk++++++++++++++rr++xtpmhhhjqtv+++++++++++++++++++++++++++++++++++++++++++++++++++++++++++kk++++++mmpu+++s
(PID.TID 0000.0001) //     -1 ++++++++++++++++++++++++++++++++++++++++++++++++++++++++++++++++++++++++..-.......b...............ar+++++++++++++++++++++++++++++++tnkhffgnt+++++++++++++++++++++++++++++++++++++++++++++++++++++++++++oo++++++kffqrppsp
(PID.TID 0000.0001) // =======================================================
(PID.TID 0000.0001) // END OF FIELD                                          =
(PID.TID 0000.0001) // =======================================================
(PID.TID 0000.0001) 
(PID.TID 0000.0001) // =======================================================
(PID.TID 0000.0001) // Field hFacS at iteration          1
(PID.TID 0000.0001) // CMIN =          2.000000000000000E-01
(PID.TID 0000.0001) // CMAX =          1.000000000000000E+00
(PID.TID 0000.0001) // CINT =          2.962962962962963E-02
(PID.TID 0000.0001) // SYMBOLS (CMIN->CMAX): -abcdefghijklmnopqrstuvwxyz+
(PID.TID 0000.0001) //                  0.0: .
(PID.TID 0000.0001) // RANGE I (Lo:Hi:Step):(  -1: 194:   1)
(PID.TID 0000.0001) // RANGE J (Lo:Hi:Step):(  34:  -1:  -1)
(PID.TID 0000.0001) // RANGE K (Lo:Hi:Step):(   1:   1:   1)
(PID.TID 0000.0001) // =======================================================
(PID.TID 0000.0001) K =   1
(PID.TID 0000.0001) //                I=8       I=18      I=28      I=34      I=44      I=54      I=64      I=70      I=80      I=90      I=96      I=106     I=116     I=126     I=132     I=142     I=152     I=162     I=168     I=178     I=188
(PID.TID 0000.0001) // |--J--|*01234567|901234567|901234567|901234123|567890123|567890123|567890123|563456789|123456789|123456789|123456785|789012345|789012345|789012345|789078901|345678901|345678901|345678901|901234567|901234567|901234567|901234
(PID.TID 0000.0001) //     34 ++++++++++++++++++b...baap+k-........g...k+pquspec-...........ej-+++++k++++++++++++++ihinomid......e+++++++++++++++++++++++++++++++++++++++++++++++++++++++++++++++mgecc--l+++++++++++++++++++++++++++++++++++++++++++++
(PID.TID 0000.0001) //     33 ++++++++++++++++++a...ba-+e...............kaaro-..............elkkl++kkk++++++++++++mghklkiid......d++++++++++++++++++++++++++++++++++++++++++++++++++++++++++++++ysnhdb---+++++++++++++++++++++++++++++++++++++++++++++
(PID.TID 0000.0001) //     32 ++++++++++++++++-.ak+k+c-+e...bilg..lg.......db...............k++kl++kkk+++++++++++vkfilljije......d++++++++++++++++++++++++++++++++++++++++++++++++++++++++++++++ysnheba--c++++++++++++++++++++++++++++++++++++++++++++
(PID.TID 0000.0001) //     31 ++++++++++++++++-.++++++k+kfkd-cip-.ip-......................ar++++++++++++++++++++vhfilljikga.....+++++++++++++++++++++++++++++++++++++++++++++++++++++++++++++wuvrmlhbadca-l++++++++++++++++++++++++++++++++++++++++++
(PID.TID 0000.0001) //     30 ++++++++++++++++c+baf+++++++++-bfmk.fmk......................juw++++++++++++++++++rkddipsnkmhc-...k+++++++++++++++++++++++++++++++++++++++++++++++++++++++++++++qourmjjgdhha-hr+++++++++++++++++++++++++++++++++++++++++
(PID.TID 0000.0001) //     29 +++++++++++++++e..-afjm+uuvtl---bfnkbfnk.....................kki++++++++++++++++++rjddi++tpoifa...++++++++++++++++++++++++++++++++++++++++++++++++++++++++++++++loutnjjgfijgfhrv++++++++++++++++++++++++++++++++++++++++
(PID.TID 0000.0001) //     28 +++++++++++++++...-fhfekstspj--..beo.beol.......-............jhd++++++++++++++++++rjeejt++uoigc...+++++++++++++++++++++++++++++++++++++++++++++++++++++++++++++ldmvwoliinpooqqrv++++++++++++++++++++++++++++++++++++++++
(PID.TID 0000.0001) //     27 ++++++++++++++k..egdbcdgkmikjd-..-bj.-bjt+++...bma..........bfgd++++++++++++++++++++kint++vpige-..++++++++++++++++++++++++++++++++++++++++++++++++++++++++++++m--iwytniiffisxxvwv+++v+++++++++++++++++++++++++++++++++++
(PID.TID 0000.0001) //     26 +++++++++++++qkfimf...b-agcgnill..bj..bjutg++llphhe.........bfgl++++++++++++++++++++++j++qopjig-..++++++++++++++++++++++++++++++++++++++++++++++++++++++++++++l-.euzvnm-....dlpus+++s+++++++++++++++++++++++++++++++++++
(PID.TID 0000.0001) //     25 ++++++++++++xplmnnf...-..acgmil+..-i..-intg++++vhghhhkc-...-ill+++++++++++++++++++++++jh+popkih...++++++++++++++++++++++++++++++++++++++++++++++++++++++++++++l-.euxwt.........isw++sw++++++++++++++++++++++++++++++++++
(PID.TID 0000.0001) //     24 ++++++++++++xplmmlg--a-..abgiic+-..c-..chts+++++ighho++e...g+++++++++++++++++++++++..+jhjjqslih...++++++++++++++++++++++++++++++++++++++++++++++v+++++++++++++..-qxxxc..........afm+afm+++++++++++++++-c++++++++++++++++
(PID.TID 0000.0001) //     23 ++++++++++++ysnmmlhf-bifda-cfi..+..c+..cht++++++lfil+++ob-bc+++++++++++++++++++++++...++jhrwpli...a+++++++++++++++++++++++++++++++++++++++++++++km++++++++++++....nxi....+l.......-d..-d+++++++++++++.....-+++++++++++++
(PID.TID 0000.0001) //     22 ++++++++++++yojkmmjkfhmmha-cfe...+al.+al++++++++ofk+++++nigcl++++++++++++++++++++++....++h++rrna...a++++++++++++++++++++++++++++++++++++++++++++fgi+++++++++++e.........++++++e...-...-.-l++++++++++........-+++++++++++
(PID.TID 0000.0001) //     21 ++++++++++++ylfhlnljecfiha-cfe....af..af+++++++++ll++++++spjl++++++++++++++++++++++.....-.+++++j...a++++++++++++++++++++++++++++++++++++++++++++fghhjr+++++++++l-.....++++++++++++e.++e.-l++++j+++++.........+++++++++++
(PID.TID 0000.0001) //     20 +++++++++++++lfhlnlje--bfdbegd....af..af+++++++++l+++++++q+y+++++++++++++++++++++j++....-.++++++-cej++++++++++++++++++++++++++++++++++++++++++++iihhdfsz++++++l+++-.c+++++++++++++++++++++++++jb.++j.........+++++++++++
(PID.TID 0000.0001) //     19 ++++++++++++++lkoqpqi--bfdcb--...-fm.-fm++++++++++++++++ll++++ll++++++++-++++t+++j++....jj++++++kmp+++++++++++++++++++++++++++++++++++++++++++++llkidfrz+++++ll++++++++++++++++++++++++++++++++b..+j.........+++++++++++
(PID.TID 0000.0001) //     18 +++++++++++++++++++++bbehge-....-kr+-kr+++++++++++++++++llp++lal++++++++.+++ro++++++++..++++++++++o+++++++++++++++++++++++++++++++++++++++++++++jknoihr++++tcl++++++++++++++++++++++++++++++++++j.a...........++++++++++
(PID.TID 0000.0001) //     17 yy+++++++++++++++++++lghkkg.....lx++lx+++++++++++++++++++ll++lal+++++r++.abqro+++++++++++++++++++fim++++++++++++++++++++++++++++++++++++++++++++iimooqvz+++n-+++++++++++++++++++++++++++++++++++j.............++++++++++
(PID.TID 0000.0001) //     16 sstm+++++++++++++++++rhfghe.....r+++r+++++++++++++++++++++ls+pl++++++rl-+a.eq++fc++++++++++++++++dbj++++++++++++++++++++++++++++++++++++++++o+++iiijkntx+++l-+++++++++++++++++++++++++++++++++++j.............++++++++++
(PID.TID 0000.0001) //     15 pnnghl++++++++++++++++l--aa.....+++++++++++++++++++++++++++s++++++++++l-+k.-kxwfccbj++++++++++++udah++++++++++++++++++++++++++++++++++++++++okl+geddegins++.+++++++++++++++++++++++++++++++++++++.............++++++++++
(PID.TID 0000.0001) //     14 mhhehl++++++++++++++++l........a+++++++++++++++++++++++++++++++++++++++++k.-guwjccbj+++++++++++uqe-hj++++++++++++++++++++++++++++++++++++++++kl+a.....--....+++++++++++++++++++++++++++++++++++++a..i+j.......++++++++++
(PID.TID 0000.0001) //     13 hedci+++++++++++++++++g........e+++++++++++++++++++++++++++++++++++++x+++k.-gsvwvsll+++++++r+++gb-.jjk++++++++++++++++++++++++++++++++++++++++++............++++++++++++++++++++++++++++++++++++++.cn++......+++++++++++
(PID.TID 0000.0001) //     12 bbccn+++++++++++++++++c.......-g+++l+++l++++++++++++++++++++++++++sttt+++cabfqstuuqp+++++wsqtna....++k++++++++++++++++++++++++++++++++++++++++++...........++++++++++++++++++++++++++++++++++++++++++++.....a+++++++++++
(PID.TID 0000.0001) //     11 aa-d++++++++++++++++++c.......al++gd++gd+++++++++++++++++++++++++vkknpswk-aafqsrrttuusqxytiijka....+++++++++++++++++++++++++++++++++++++++++++++.........b+++++++++++++++++++++++++++++++++++++++++++++.....++++++++++++
(PID.TID 0000.0001) //     10 a--e++++++++++++++++++e...-..-k+++ad++ad++++++++++++++++++++++++urkkkmoqk-cafqsrrtttmghtxnabejb...j+++++++++++++++++++++++++++++++++++++++++++++.......-++++++++++++++++++++++++++++++++++++++++++++++++-a++++++++++++++
(PID.TID 0000.0001) //      9 c--l+++++++++++++++++++......c++++a+++a+++++++++++++++++++++++ohilkihhmpke+prtsrsutqjghtxnabeikie--ko+++++++++++++++++++++++++++++++++++++++++++.....-l+++++++++++++++++++++++++++++++++++++++++++++++++++++++++++++++++
(PID.TID 0000.0001) //      8 c-l++++++++++++++++++++......o++++f+++f+++++++++++++++++++++++nggiigfhmpf.k+yrssstsnjnswvrddfgc--...ek+++++++++++++++++++++++++++++++++piffkk+++.....f++++++++++++++++++++++++++++++++++++++++++++++++++++++++++++++++++
(PID.TID 0000.0001) //      7 c++++++++++++++++++++++a.....s++++l+++l+++++++++++++++++++++++nggiigfhouf.-++-ststmhmuxwvshghb..-...ek++++++++++++++++++++++++++++++++skiffifm+++dekk+++++++++++++++++++++++++++++++++++++++++++++++++++++++++++++++++++
(PID.TID 0000.0001) //      6 +++++++++++++++++++++++l....a+++++++++++++++++++++++++++++++++nhhiiggjtxd..++.lwwulhouvwwqihe-..-bfafe+++++++++++++++++++++++++++++++nmjlnlifm++++++++++++++++++++++++++++++++++++++++++++++++++++++++++++++++++++++++++
(PID.TID 0000.0001) //      5 ++++++++++++++++++++++++....++++++++++++++++++++++++++++++++++oijlnmnqtqd.....l+ztlioorul-......--jgce+++k+++k++++++++++++++++++-+++jgljottuqp++++++++++++++++++++++++++++++++++++++++++++++++++++++++++++++++++++++++++
(PID.TID 0000.0001) //      4 ++++++++++++++++++++++++kkk+++++++++++++++++++++++++++++++++++qmosuuttrneb....myvtoojhhh-........-jgak+++kk++kk++++++++++++++++-.++xjglpsutpru++++++++++++++++++++++++++++++++++++++++++++++++++++++++++++++++++++++++++
(PID.TID 0000.0001) //      3 +++++++++++++++++++++++++++++++++++++++++++++++++++++++++++++++++++++vrnii....tvttrqjgc-..........hj-k++++k+++k++++++++++++++++-.++xtpptvwqnp+++++++++++++++++++++++++++++++++++++++++++++++++++++++++++++++++++++++++++
(PID.TID 0000.0001) //      2 ++++++++++++++++++++++++++++++++++++++++++++++++++++++++++++++++++++++sppg...k+pquspec-...........ej-+++++k+++k++++++++++++++++-++++somotvqnp+++++++++++++++++++++++++++++++++++++++++++++++++++++++++++l+++++++++++++++
(PID.TID 0000.0001) //      1 ++++++++++++++++++++++++++++++++++++++++++++++++++++++++++++++++++++++++-.....kaaro-..............elkkl++kk++kk+++++++++++++++rl++xtpmhhjqtrs+++++++++++++++++++++++++++++++++++++++++++++++++++++++++++k+++++++mpu++++s
(PID.TID 0000.0001) //      0 ++++++++++++++++++++++++++++++++++++++++++++++++++++++++++++++++++++++++.g.......db...............k++kl++kk+++k+++++++++++++++r+++xtnkhfgntv+++++++++++++++++++++++++++++++++++++++++++++++++++++++++++ok++++++kfpurps+p
(PID.TID 0000.0001) //     -1 +++++++++++++++++++++++++++++++++++++++++++++++++++++++++++++++++++++++pip-......................ar++++++++++++++++++++++++++++++++tkkhfgmt++++++++++++++++++++++++++++++++++++++++++++++++++++++++++++o+++++++kfqvpnrv+
(PID.TID 0000.0001) // =======================================================
(PID.TID 0000.0001) // END OF FIELD                                          =
(PID.TID 0000.0001) // =======================================================
(PID.TID 0000.0001) 
(PID.TID 0000.0001) 
(PID.TID 0000.0001) // ===================================
(PID.TID 0000.0001) // GAD parameters :
(PID.TID 0000.0001) // ===================================
(PID.TID 0000.0001) tempAdvScheme =   /* Temp. Horiz.Advection scheme selector */
(PID.TID 0000.0001)                       2
(PID.TID 0000.0001)     ;
(PID.TID 0000.0001) tempVertAdvScheme =   /* Temp. Vert. Advection scheme selector */
(PID.TID 0000.0001)                       2
(PID.TID 0000.0001)     ;
(PID.TID 0000.0001) tempMultiDimAdvec =   /* use Muti-Dim Advec method for Temp */
(PID.TID 0000.0001)                   F
(PID.TID 0000.0001)     ;
(PID.TID 0000.0001) AdamsBashforthGt =   /* apply Adams-Bashforth extrapolation on Gt */
(PID.TID 0000.0001)                   T
(PID.TID 0000.0001)     ;
(PID.TID 0000.0001) AdamsBashforth_T =   /* apply Adams-Bashforth extrapolation on Temp */
(PID.TID 0000.0001)                   F
(PID.TID 0000.0001)     ;
(PID.TID 0000.0001) saltAdvScheme =   /* Salt. Horiz.advection scheme selector */
(PID.TID 0000.0001)                       3
(PID.TID 0000.0001)     ;
(PID.TID 0000.0001) saltVertAdvScheme =   /* Salt. Vert. Advection scheme selector */
(PID.TID 0000.0001)                       3
(PID.TID 0000.0001)     ;
(PID.TID 0000.0001) saltMultiDimAdvec =   /* use Muti-Dim Advec method for Salt */
(PID.TID 0000.0001)                   F
(PID.TID 0000.0001)     ;
(PID.TID 0000.0001) AdamsBashforthGs =   /* apply Adams-Bashforth extrapolation on Gs */
(PID.TID 0000.0001)                   T
(PID.TID 0000.0001)     ;
(PID.TID 0000.0001) AdamsBashforth_S =   /* apply Adams-Bashforth extrapolation on Salt */
(PID.TID 0000.0001)                   F
(PID.TID 0000.0001)     ;
(PID.TID 0000.0001) // ===================================
- INPHYS: k,SIG, SIGH,   SIGL,   WVI(1),  WVI(2):
  1   0.0750   0.1500  -2.5903   0.8306   0.5757
  2   0.2500   0.3500  -1.3863   1.4427   0.4854
  3   0.5000   0.6500  -0.6931   2.2818   0.5987
  4   0.7750   0.9000  -0.2549   4.9116   0.7344
  5   0.9500   1.0000  -0.0513   0.0000   0.0377
- INPHYS: end setup WVI.
(PID.TID 0000.0001)  AIM_READ_PHYSPARMS: opening data.aimphys
(PID.TID 0000.0001)  OPEN_COPY_DATA_FILE: opening file data.aimphys
(PID.TID 0000.0001) // =======================================================
(PID.TID 0000.0001) // Parameter file "data.aimphys"
(PID.TID 0000.0001) // =======================================================
(PID.TID 0000.0001) ># AIM physics package parameters:
(PID.TID 0000.0001) >
(PID.TID 0000.0001) >C--   AIM interface parameter (namelist AIM_PARAMS):
(PID.TID 0000.0001) >#     aim_useFMsurfBC :: select surface B.C. from Franco Molteni
(PID.TID 0000.0001) >#     aim_useMMsurfFc :: select Monthly Mean surface forcing (e.g., NCEP)
(PID.TID 0000.0001) >#     aim_surfPotTemp :: surf.Temp input file is in Pot.Temp (aim_useMMsurfFc)
(PID.TID 0000.0001) >#     aim_energPrecip :: account for energy of precipitation (snow & rain temp)
(PID.TID 0000.0001) >#     aim_splitSIOsFx :: compute separately Sea-Ice & Ocean surf. Flux
(PID.TID 0000.0001) >#     aim_LandFile :: file name for Land fraction [0-1]
(PID.TID 0000.0001) >#     aim_MMsufx   :: sufix for all Monthly Mean surface forcing files
(PID.TID 0000.0001) >#     aim_MMsufxLength :: Length of sufix (Monthly Mean surf. forc. files)
(PID.TID 0000.0001) >#     aim_albFile  :: file name for Albedo input file   (F.M. surfBC)
(PID.TID 0000.0001) >#     aim_vegFile  :: file name for vegetation fraction (F.M. surfBC)
(PID.TID 0000.0001) >#     aim_sstFile  :: file name for  Sea.Surf.Temp      (F.M. surfBC)
(PID.TID 0000.0001) >#     aim_lstFile  :: file name for Land.Surf.Temp      (F.M. surfBC)
(PID.TID 0000.0001) >#     aim_oiceFile :: file name for Sea Ice fraction    (F.M. surfBC)
(PID.TID 0000.0001) >#     aim_snowFile :: file name for Snow depth          (F.M. surfBC)
(PID.TID 0000.0001) >#     aim_swcFile  :: file name for Soil Water content  (F.M. surfBC)
(PID.TID 0000.0001) >#     aim_dragStrato :: stratospheric-drag damping time scale (s)
(PID.TID 0000.0001) >#     aim_clrSkyDiag :: compute clear-sky radiation for diagnostics
(PID.TID 0000.0001) >#     aim_taveFreq :: Frequency^-1 for time-average output (s)
(PID.TID 0000.0001) >#     aim_diagFreq :: Frequency^-1 for diagnostic output (s)
(PID.TID 0000.0001) >#     aim_tendFreq :: Frequency^-1 for tendencies output (s)
(PID.TID 0000.0001) > &AIM_PARAMS
(PID.TID 0000.0001) >#  aim_useFMsurfBC=.FALSE.,
(PID.TID 0000.0001) >#  aim_useMMsurfFc=.TRUE.,
(PID.TID 0000.0001) >#  aim_surfPotTemp=.TRUE.,
(PID.TID 0000.0001) >   aim_energPrecip=.TRUE.,
(PID.TID 0000.0001) >   aim_splitSIOsFx=.TRUE.,
(PID.TID 0000.0001) >   aim_LandFile= 'landFrc.cpl_FM.bin',
(PID.TID 0000.0001) >   aim_albFile = 'albedo_cs32.bin',
(PID.TID 0000.0001) >   aim_vegFile = 'vegetFrc.cpl_FM.bin',
(PID.TID 0000.0001) >   aim_sstFile = 'seaSurfT.cpl_FM.bin',
(PID.TID 0000.0001) >   aim_lstFile = 'lndSurfT.cpl_FM.bin',
(PID.TID 0000.0001) >   aim_oiceFile= 'seaIce.cpl3FM.bin',
(PID.TID 0000.0001) >   aim_snowFile= 'snowDepth.cpl_FM.bin',
(PID.TID 0000.0001) >   aim_swcFile = 'soilMoist.cpl_FM.bin',
(PID.TID 0000.0001) >   aim_dragStrato= 2592000.,
(PID.TID 0000.0001) >#  aim_clrSkyDiag=.TRUE.,
(PID.TID 0000.0001) >#  aim_diagFreq=3600.,
(PID.TID 0000.0001) > &
(PID.TID 0000.0001) >
(PID.TID 0000.0001) >#--   Physical constants
(PID.TID 0000.0001) >#       P0    = reference pressure                 [Pa=N/m2]
(PID.TID 0000.0001) >#       GG    = gravity accel.                     [m/s2]
(PID.TID 0000.0001) >#       RD    = gas constant for dry air           [J/kg/K]
(PID.TID 0000.0001) >#       CP    = specific heat at constant pressure [J/kg/K]
(PID.TID 0000.0001) >#       ALHC  = latent heat of condensation        [J/g]
(PID.TID 0000.0001) >#       ALHF  = latent heat of freezing            [J/g]
(PID.TID 0000.0001) >#       SBC   = Stefan-Boltzmann constant
(PID.TID 0000.0001) >#     rainCP  = heat capacity of liquid water      [J/g/K]
(PID.TID 0000.0001) >#     tFreeze = freezing temperature of pure water [K]
(PID.TID 0000.0001) >
(PID.TID 0000.0001) >#--   Constants for forcing fields (namelist AIM_PAR_FOR):
(PID.TID 0000.0001) >#      SOLC   = Solar constant (area averaged) in W/m^2
(PID.TID 0000.0001) >#      ALBSEA = Albedo over sea
(PID.TID 0000.0001) >#      ALBICE = Albedo over sea ice (for ice fraction = 1)
(PID.TID 0000.0001) >#      ALBSN  = Albedo over snow (for snow depth > SDALB)
(PID.TID 0000.0001) >#      SDALB  = Snow depth (mm water) corresponding to maximum albedo
(PID.TID 0000.0001) >#      SWCAP  = Soil wetness at field capacity (volume fraction)
(PID.TID 0000.0001) >#      SWWIL  = Soil wetness at wilting point  (volume fraction)
(PID.TID 0000.0001) >#      hSnowWetness :: snow depth (m) corresponding to maximum wetness
(PID.TID 0000.0001) > &AIM_PAR_FOR
(PID.TID 0000.0001) > &
(PID.TID 0000.0001) >
(PID.TID 0000.0001) >#--   Constants for surface fluxes (namelist AIM_PAR_SFL):
(PID.TID 0000.0001) >#      FWIND0 = ratio of near-sfc wind to lowest-level wind
(PID.TID 0000.0001) >#      FTEMP0 = weight for near-sfc temperature extrapolation (0-1) :
(PID.TID 0000.0001) >#               1 : linear extrapolation from two lowest levels
(PID.TID 0000.0001) >#               0 : constant potential temperature ( = lowest level)
(PID.TID 0000.0001) >#      FHUM0  = weight for near-sfc specific humidity extrapolation (0-1) :
(PID.TID 0000.0001) >#               1 : extrap. with constant relative hum. ( = lowest level)
(PID.TID 0000.0001) >#               0 : constant specific hum. ( = lowest level)
(PID.TID 0000.0001) >#      CDL    = drag coefficient for momentum over land
(PID.TID 0000.0001) >#      CDS    = drag coefficient for momentum over sea
(PID.TID 0000.0001) >#      CHL    = heat exchange coefficient over land
(PID.TID 0000.0001) >#      CHS    = heat exchange coefficient over sea
(PID.TID 0000.0001) >#      VGUST  = wind speed for sub-grid-scale gusts
(PID.TID 0000.0001) >#      CTDAY  = daily-cycle correction (dTskin/dSSRad)
(PID.TID 0000.0001) >#      DTHETA = Potential temp. gradient for stability correction
(PID.TID 0000.0001) >#      dTstab = potential temp. increment for stability function derivative
(PID.TID 0000.0001) >#      FSTAB  = Amplitude of stability correction (fraction)
(PID.TID 0000.0001) >#      HDRAG  = Height scale for orographic correction
(PID.TID 0000.0001) >#      FHDRAG = Amplitude of orographic correction (fraction)
(PID.TID 0000.0001) > &AIM_PAR_SFL
(PID.TID 0000.0001) >#  FTEMP0 = 0.,
(PID.TID 0000.0001) >#  FHUM0  = 0.,
(PID.TID 0000.0001) >#  dTstab = 0.,
(PID.TID 0000.0001) > &
(PID.TID 0000.0001) >
(PID.TID 0000.0001) >#--   Convection constants (namelist AIM_PAR_CNV):
(PID.TID 0000.0001) >#      PSMIN  = minimum (norm.) sfc. pressure for the occurrence of convection
(PID.TID 0000.0001) >#      TRCNV  = time of relaxation (in hours) towards reference state
(PID.TID 0000.0001) >#      QBL    = specific hum. threshold in the boundary layer
(PID.TID 0000.0001) >#      RHBL   = relative hum. threshold in the boundary layer
(PID.TID 0000.0001) >#      RHIL   = rel. hum. threshold in intermed. layers for secondary mass flux
(PID.TID 0000.0001) >#      ENTMAX = max. entrainment as a fraction of cloud-base mass flux
(PID.TID 0000.0001) >#      SMF    = ratio between secondary and primary mass flux at cloud-base
(PID.TID 0000.0001) > &AIM_PAR_CNV
(PID.TID 0000.0001) > &
(PID.TID 0000.0001) >
(PID.TID 0000.0001) >#--   Constants for large-scale condensation (namelist AIM_PAR_LSC):
(PID.TID 0000.0001) >#      TRLSC  = Relaxation time (in hours) for specific humidity
(PID.TID 0000.0001) >#      RHLSC  = Maximum relative humidity threshold (at sigma=1)
(PID.TID 0000.0001) >#      DRHLSC = Vertical range of relative humidity threshold
(PID.TID 0000.0001) >#      QSMAX  = used to define the maximum latent heat release
(PID.TID 0000.0001) > &AIM_PAR_LSC
(PID.TID 0000.0001) > &
(PID.TID 0000.0001) >
(PID.TID 0000.0001) >#--   Radiation constants (namelist AIM_PAR_RAD):
(PID.TID 0000.0001) >#      RHCL1  = relative hum. corresponding to cloud cover = 0
(PID.TID 0000.0001) >#      RHCL2  = relative hum. corresponding to cloud cover = 1
(PID.TID 0000.0001) >#      QACL1  = specific hum. threshold for cloud cover in the upper troposphere
(PID.TID 0000.0001) >#      QACL2  = specific hum. threshold for cloud cover in the upper troposphere
(PID.TID 0000.0001) >#      ALBCL  = cloud albedo (for cloud cover = 1)
(PID.TID 0000.0001) >#      EPSSW  = fraction of incoming solar radiation absorbed by ozone
(PID.TID 0000.0001) >#      EPSLW  = fraction of surface LW radiation emitted directly to space
(PID.TID 0000.0001) >#      EMISFC = longwave surface emissivity
(PID.TID 0000.0001) >#--:            shortwave absorptivities (for dp = 10^5 Pa) :
(PID.TID 0000.0001) >#      ABSDRY = abs. of dry air      (visible band)
(PID.TID 0000.0001) >#      ABSAER = abs. of aerosols     (visible band)
(PID.TID 0000.0001) >#      ABSWV1 = abs. of water vapour (visible band, for dq = 1 g/kg)
(PID.TID 0000.0001) >#      ABSWV2 = abs. of water vapour (near IR band, for dq = 1 g/kg)
(PID.TID 0000.0001) >#      ABSCL1 = abs. of clouds       (visible band, constant term)
(PID.TID 0000.0001) >#      ABSCL2 = abs. of clouds       (visible band, for dw = 1 g/kg)
(PID.TID 0000.0001) >#--:            longwave absorptivities (per dp = 10^5 Pa) :
(PID.TID 0000.0001) >#      ABLWIN = abs. of air in "window" band
(PID.TID 0000.0001) >#      ABLCO2 = abs. of air in CO2 band
(PID.TID 0000.0001) >#      ABLWV1 = abs. of water vapour in H2O band 1 (weak),   for dq = 1 g/kg
(PID.TID 0000.0001) >#      ABLWV2 = abs. of water vapour in H2O band 2 (strong), for dq = 1 g/kg
(PID.TID 0000.0001) >#      ABLCL1 = abs. of clouds       in "window" band,       constant term
(PID.TID 0000.0001) >#      ABLCL2 = abs. of clouds       in "window" band,       for dw = 1 g/kg
(PID.TID 0000.0001) > &AIM_PAR_RAD
(PID.TID 0000.0001) > &
(PID.TID 0000.0001) >
(PID.TID 0000.0001) >#--   Constants for vertical dif. and sh. conv. (namelist AIM_PAR_VDI):
(PID.TID 0000.0001) >#      TRSHC  = relaxation time (in hours) for shallow convection
(PID.TID 0000.0001) >#      TRVDI  = relaxation time (in hours) for moisture diffusion
(PID.TID 0000.0001) >#      TRVDS  = relaxation time (in hours) for super-adiab. conditions
(PID.TID 0000.0001) >#      RHGRAD = maximum gradient of relative humidity (d_RH/d_sigma)
(PID.TID 0000.0001) >#      SEGRAD = minimum gradient of dry static energy (d_DSE/d_phi)
(PID.TID 0000.0001) > &AIM_PAR_VDI
(PID.TID 0000.0001) > &
(PID.TID 0000.0001) >
(PID.TID 0000.0001) 
(PID.TID 0000.0001)  AIM_READ_PHYSPARMS: finished reading data.aimphys
(PID.TID 0000.0001) 
(PID.TID 0000.0001) // ===================================
(PID.TID 0000.0001) // AIM physics parameters :
(PID.TID 0000.0001) // ===================================
(PID.TID 0000.0001) useLand =   /* use Land package for surf.BC over land  */
(PID.TID 0000.0001)                   T
(PID.TID 0000.0001)     ;
(PID.TID 0000.0001) aim_useFMsurfBC =   /* F.Molteni surf. BC scheme on/off flag */
(PID.TID 0000.0001)                   T
(PID.TID 0000.0001)     ;
(PID.TID 0000.0001) aim_useMMsurfFc =   /* Monthly Mean surf. Forcing on/off flag */
(PID.TID 0000.0001)                   F
(PID.TID 0000.0001)     ;
(PID.TID 0000.0001) aim_surfPotTemp =   /* Surf Temp file in Pot.Temp on/off flag */
(PID.TID 0000.0001)                   F
(PID.TID 0000.0001)     ;
(PID.TID 0000.0001) aim_energPrecip = /* account for energy of precip. on/off flag */
(PID.TID 0000.0001)                   T
(PID.TID 0000.0001)     ;
(PID.TID 0000.0001) aim_splitSIOsFx = /* separate Sea-Ice & Ocean Flux on/off flag */
(PID.TID 0000.0001)                   T
(PID.TID 0000.0001)     ;
(PID.TID 0000.0001) aim_dragStrato= /* stratospheric-drag damping time scale (s) */
(PID.TID 0000.0001)                 2.592000000000000E+06
(PID.TID 0000.0001)     ;
(PID.TID 0000.0001) aim_clrSkyDiag = /* do clear-sky radiation diagnostics */
(PID.TID 0000.0001)                   F
(PID.TID 0000.0001)     ;
(PID.TID 0000.0001) aim_taveFreq =   /* Frequency^-1 for time-Aver. output (s) */
(PID.TID 0000.0001)                 2.592000000000000E+06
(PID.TID 0000.0001)     ;
(PID.TID 0000.0001) aim_diagFreq =   /* Frequency^-1 for diagnostic output (s) */
(PID.TID 0000.0001)                 2.592000000000000E+06
(PID.TID 0000.0001)     ;
(PID.TID 0000.0001) aim_tendFreq =   /* Frequency^-1 for tendencies output (s) */
(PID.TID 0000.0001)                 0.000000000000000E+00
(PID.TID 0000.0001)     ;
(PID.TID 0000.0001) AIM_FOR:   SOLC =   /* Solar constant (area averaged) in W/m2 */
(PID.TID 0000.0001)                 3.420000000000000E+02
(PID.TID 0000.0001)     ;
(PID.TID 0000.0001) AIM_FOR: ALBSEA =   /* Albedo over sea [0-1]      */
(PID.TID 0000.0001)                 7.000000000000001E-02
(PID.TID 0000.0001)     ;
(PID.TID 0000.0001) AIM_FOR: ALBICE =   /* Albedo over sea ice (for ice fraction =1) */
(PID.TID 0000.0001)                 6.000000000000000E-01
(PID.TID 0000.0001)     ;
(PID.TID 0000.0001) AIM_FOR:  ALBSN =   /* Albedo over snow (for snow depth > SDALB) */
(PID.TID 0000.0001)                 6.000000000000000E-01
(PID.TID 0000.0001)     ;
(PID.TID 0000.0001) AIM_FOR:  SDALB =   /* Snow depth (mm H2O) corresp. maximum albedo */
(PID.TID 0000.0001)                 6.000000000000000E+01
(PID.TID 0000.0001)     ;
(PID.TID 0000.0001) AIM_FOR:  SWCAP =   /* Soil wetness at field capacity (Vol.fract.) */
(PID.TID 0000.0001)                 3.000000000000000E-01
(PID.TID 0000.0001)     ;
(PID.TID 0000.0001) AIM_FOR:  SWWIL =   /* Soil wetness at wilting point  (Vol.fract.) */
(PID.TID 0000.0001)                 1.700000000000000E-01
(PID.TID 0000.0001)     ;
(PID.TID 0000.0001) AIM_FOR: hSnowWetness=   /* snow depth corresp. maximum wetness (m) */
(PID.TID 0000.0001)                 1.000000000000000E-02
(PID.TID 0000.0001)     ;
(PID.TID 0000.0001) AIM_SFL: FWIND0 =   /* ratio of near-sfc wind to lowest-level wind */
(PID.TID 0000.0001)                 6.000000000000000E-01
(PID.TID 0000.0001)     ;
(PID.TID 0000.0001) AIM_SFL: FTEMP0 =  /* weight for near-sfc temp. extrapolation (0-1)*/
(PID.TID 0000.0001)                 1.000000000000000E+00
(PID.TID 0000.0001)     ;
(PID.TID 0000.0001) AIM_SFL:  FHUM0 =  /* weight for near-sfc spec.humid. extrap. (0-1)*/
(PID.TID 0000.0001)                 1.000000000000000E+00
(PID.TID 0000.0001)     ;
(PID.TID 0000.0001) AIM_SFL:    CDL =   /* drag coefficient for momentum over land */
(PID.TID 0000.0001)                 1.800000000000000E-03
(PID.TID 0000.0001)     ;
(PID.TID 0000.0001) AIM_SFL:    CDS =   /* drag coefficient for momentum over sea  */
(PID.TID 0000.0001)                 8.000000000000000E-04
(PID.TID 0000.0001)     ;
(PID.TID 0000.0001) AIM_SFL:    CHL =   /* heat exchange coefficient over land */
(PID.TID 0000.0001)                 1.200000000000000E-03
(PID.TID 0000.0001)     ;
(PID.TID 0000.0001) AIM_SFL:    CHS =   /* heat exchange coefficient over sea  */
(PID.TID 0000.0001)                 8.000000000000000E-04
(PID.TID 0000.0001)     ;
(PID.TID 0000.0001) AIM_SFL:  VGUST =   /* wind speed [m/s] for sub-grid-scale gusts */
(PID.TID 0000.0001)                 5.000000000000000E+00
(PID.TID 0000.0001)     ;
(PID.TID 0000.0001) AIM_SFL:  CTDAY =   /* daily-cycle correction (dTskin/dSSRad) */
(PID.TID 0000.0001)                 1.000000000000000E-02
(PID.TID 0000.0001)     ;
(PID.TID 0000.0001) AIM_SFL: DTHETA =   /* Pot.Temp. gradient for stability correction */
(PID.TID 0000.0001)                 3.000000000000000E+00
(PID.TID 0000.0001)     ;
(PID.TID 0000.0001) AIM_SFL: dTstab =   /* Pot.Temp. increment for stab.funct. derivative */
(PID.TID 0000.0001)                 1.000000000000000E+00
(PID.TID 0000.0001)     ;
(PID.TID 0000.0001) AIM_SFL:  FSTAB =   /* Amplitude of stability correction (fract.) */
(PID.TID 0000.0001)                 6.700000000000001E-01
(PID.TID 0000.0001)     ;
(PID.TID 0000.0001) AIM_SFL:  HDRAG =   /* Height scale for orographic correction */
(PID.TID 0000.0001)                 2.000000000000000E+03
(PID.TID 0000.0001)     ;
(PID.TID 0000.0001) AIM_SFL: FHDRAG =   /* Amplitude of orographic correction (fract.)*/
(PID.TID 0000.0001)                 8.000000000000000E-01
(PID.TID 0000.0001)     ;
(PID.TID 0000.0001) AIM_CNV:  PSMIN =   /* min norm.sfc.P. for occurrence of convect. */
(PID.TID 0000.0001)                 7.000000000000000E-01
(PID.TID 0000.0001)     ;
(PID.TID 0000.0001) AIM_CNV:  TRCNV =   /* time of relaxation [h] towards ref state */
(PID.TID 0000.0001)                 6.000000000000000E+00
(PID.TID 0000.0001)     ;
(PID.TID 0000.0001) AIM_CNV:    QBL =   /* specific hum. threshold in the Bound.layer */
(PID.TID 0000.0001)                 1.500000000000000E+01
(PID.TID 0000.0001)     ;
(PID.TID 0000.0001) AIM_CNV:   RHBL =   /* relative hum. threshold in the Bound.layer */
(PID.TID 0000.0001)                 8.000000000000000E-01
(PID.TID 0000.0001)     ;
(PID.TID 0000.0001) AIM_CNV:   RHIL =   /* rel.hum. threshold (intern) for 2nd mass.Flx*/
(PID.TID 0000.0001)                 7.000000000000000E-01
(PID.TID 0000.0001)     ;
(PID.TID 0000.0001) AIM_CNV: ENTMAX =   /* time of relaxation [h] towards neutral eq. */
(PID.TID 0000.0001)                 5.000000000000000E-01
(PID.TID 0000.0001)     ;
(PID.TID 0000.0001) AIM_CNV:    SMF =   /* ratio 2ndary/primary mass.Flx at cloud-base*/
(PID.TID 0000.0001)                 5.000000000000000E-01
(PID.TID 0000.0001)     ;
(PID.TID 0000.0001) AIM_LSC:  TRLSC =   /* relaxation time [h] for supersat. spec.hum. */
(PID.TID 0000.0001)                 4.000000000000000E+00
(PID.TID 0000.0001)     ;
(PID.TID 0000.0001) AIM_LSC:  RHLSC =   /* Max rel.humidity threshold (at sigma=1) */
(PID.TID 0000.0001)                 9.000000000000000E-01
(PID.TID 0000.0001)     ;
(PID.TID 0000.0001) AIM_LSC: DRHLSC =   /* Vertical range of rel.humidity threshold */
(PID.TID 0000.0001)                 1.000000000000000E-01
(PID.TID 0000.0001)     ;
(PID.TID 0000.0001) AIM_LSC:  QSMAX =   /* Define the maximum latent heat release */
(PID.TID 0000.0001)                 5.000000000000000E+01
(PID.TID 0000.0001)     ;
(PID.TID 0000.0001) AIM_RAD:  RHCL1 =   /*  rel.hum. corresponding to cloud cover = 0 */
(PID.TID 0000.0001)                 4.500000000000000E-01
(PID.TID 0000.0001)     ;
(PID.TID 0000.0001) AIM_RAD:  RHCL2 =   /*  rel.hum. corresponding to cloud cover = 1 */
(PID.TID 0000.0001)                 8.500000000000000E-01
(PID.TID 0000.0001)     ;
(PID.TID 0000.0001) AIM_RAD:  QACL1 =   /* spec.hum. threshold for cloud, upper trop. */
(PID.TID 0000.0001)                 1.000000000000000E-01
(PID.TID 0000.0001)     ;
(PID.TID 0000.0001) AIM_RAD:  QACL2 =   /* spec.hum. threshold for cloud, upper trop. */
(PID.TID 0000.0001)                 1.000000000000000E+00
(PID.TID 0000.0001)     ;
(PID.TID 0000.0001) AIM_RAD:  ALBCL =   /*  cloud albedo (for cloud cover = 1) */
(PID.TID 0000.0001)                 4.000000000000000E-01
(PID.TID 0000.0001)     ;
(PID.TID 0000.0001) AIM_RAD:  EPSSW =   /*  fract. of inc.solar rad. absorbed by ozone */
(PID.TID 0000.0001)                 1.500000000000000E-02
(PID.TID 0000.0001)     ;
(PID.TID 0000.0001) AIM_RAD:  EPSLW =   /*  fract. of sfc LW emitted directly to space */
(PID.TID 0000.0001)                 0.000000000000000E+00
(PID.TID 0000.0001)     ;
(PID.TID 0000.0001) AIM_RAD: EMISFC =   /*  longwave surface emissivity */
(PID.TID 0000.0001)                 9.800000000000000E-01
(PID.TID 0000.0001)     ;
(PID.TID 0000.0001)  AIM_RAD : ShortWave absorptivities (for dp = 10^5 Pa) :
(PID.TID 0000.0001) AIM_RAD: ABSDRY =   /* abs. of dry air (visible band) */
(PID.TID 0000.0001)                 3.300000000000000E-02
(PID.TID 0000.0001)     ;
(PID.TID 0000.0001) AIM_RAD: ABSAER =   /* abs. of aerosols (visible band) */
(PID.TID 0000.0001)                 3.300000000000000E-02
(PID.TID 0000.0001)     ;
(PID.TID 0000.0001) AIM_RAD: ABSWV1 =   /* abs. of water vap. (vis. band)(/dq, 1g/kg) */
(PID.TID 0000.0001)                 2.200000000000000E-02
(PID.TID 0000.0001)     ;
(PID.TID 0000.0001) AIM_RAD: ABSWV2 =   /* abs. of water vap.(near IR bd)(/dq, 1g/kg) */
(PID.TID 0000.0001)                 1.500000000000000E+01
(PID.TID 0000.0001)     ;
(PID.TID 0000.0001) AIM_RAD: ABSCL1 =   /* abs. of clouds (vis.band)(constant term) */
(PID.TID 0000.0001)                 0.000000000000000E+00
(PID.TID 0000.0001)     ;
(PID.TID 0000.0001) AIM_RAD: ABSCL2 =   /* abs. of clouds (vis.band) (/dw, 1g/kg) */
(PID.TID 0000.0001)                 1.000000000000000E-02
(PID.TID 0000.0001)     ;
(PID.TID 0000.0001) AIM_RAD: ABLWIN =   /* abs. of air in "window" band */
(PID.TID 0000.0001)                 7.000000000000000E-01
(PID.TID 0000.0001)     ;
(PID.TID 0000.0001) AIM_RAD: ABLCO2 =   /* abs. of air in CO2 band */
(PID.TID 0000.0001)                 4.000000000000000E+00
(PID.TID 0000.0001)     ;
(PID.TID 0000.0001) AIM_RAD: ABLWV1 =   /* abs. of Water vap. H2O bd-1(weak)(/dq,1g/kg)*/
(PID.TID 0000.0001)                 7.000000000000000E-01
(PID.TID 0000.0001)     ;
(PID.TID 0000.0001) AIM_RAD: ABLWV2 =   /* abs. of W. vap., H2O bd-2(strong)(/dq,1g/kg)*/
(PID.TID 0000.0001)                 5.000000000000000E+01
(PID.TID 0000.0001)     ;
(PID.TID 0000.0001) AIM_RAD: ABLCL1 =   /* abs. of clouds in window band (const term) */
(PID.TID 0000.0001)                 1.200000000000000E+01
(PID.TID 0000.0001)     ;
(PID.TID 0000.0001) AIM_RAD: ABLCL2 =   /* abs. of clouds in window band (/dw, 1g/kg) */
(PID.TID 0000.0001)                 0.000000000000000E+00
(PID.TID 0000.0001)     ;
(PID.TID 0000.0001) AIM_VDI:  TRSHC =   /* relaxation time [h] for shallow convection */
(PID.TID 0000.0001)                 2.400000000000000E+01
(PID.TID 0000.0001)     ;
(PID.TID 0000.0001) AIM_VDI:  TRVDI =   /* relaxation time [h] for moisture diffusion */
(PID.TID 0000.0001)                 4.000000000000000E+01
(PID.TID 0000.0001)     ;
(PID.TID 0000.0001) AIM_VDI:  TRVDS =   /* relaxation time [h] for super-adiab. cond. */
(PID.TID 0000.0001)                 5.000000000000000E+00
(PID.TID 0000.0001)     ;
(PID.TID 0000.0001) AIM_VDI: RHGRAD =   /* max gradient of rel.humidity (d_RH/d_sigma)*/
(PID.TID 0000.0001)                 5.000000000000000E-01
(PID.TID 0000.0001)     ;
(PID.TID 0000.0001) AIM_VDI: RHGRAD =   /* max grad. of dry static Energy(d_DSE/d_phi)*/
(PID.TID 0000.0001)                 5.000000000000000E-01
(PID.TID 0000.0001)     ;
(PID.TID 0000.0001)  MDSREADFIELD: opening global file: landFrc.cpl_FM.bin
(PID.TID 0000.0001)  LAND_READPARMS: opening data.land
(PID.TID 0000.0001)  OPEN_COPY_DATA_FILE: opening file data.land
(PID.TID 0000.0001) // =======================================================
(PID.TID 0000.0001) // Parameter file "data.land"
(PID.TID 0000.0001) // =======================================================
(PID.TID 0000.0001) ># Land package parameters:
(PID.TID 0000.0001) >
(PID.TID 0000.0001) >#--  Land model parameter (namelist LAND_MODEL_PAR):
(PID.TID 0000.0001) >#     land_calc_grT  :: step forward ground Temperature
(PID.TID 0000.0001) >#     land_calc_grW  :: step forward soil moiture
(PID.TID 0000.0001) >#     land_impl_grT  :: solve ground Temperature implicitly
(PID.TID 0000.0001) >#     land_calc_snow :: step forward snow thickness
(PID.TID 0000.0001) >#     land_calc_alb  :: compute albedo of snow over land
(PID.TID 0000.0001) >#     land_oldPickup :: restart from an old pickup (=before checkpoint 52l)
(PID.TID 0000.0001) >#     land_grT_iniFile  :: File containing initial ground Temp.
(PID.TID 0000.0001) >#     land_grW_iniFile  :: File containing initial ground Water.
(PID.TID 0000.0001) >#     land_snow_iniFile :: File containing initial snow thickness.
(PID.TID 0000.0001) >#     land_deltaT   :: land model time-step
(PID.TID 0000.0001) >#     land_taveFreq :: Frequency^-1 for time-Aver. output (s)
(PID.TID 0000.0001) >#     land_diagFreq :: Frequency^-1 for diagnostic output (s)
(PID.TID 0000.0001) >#     land_monFreq  :: Frequency^-1 for monitor    output (s)
(PID.TID 0000.0001) >#     land_dzF      :: layer thickness
(PID.TID 0000.0001) > &LAND_MODEL_PAR
(PID.TID 0000.0001) ># land_calc_grT =.FALSE.,
(PID.TID 0000.0001) ># land_calc_grW =.FALSE.,
(PID.TID 0000.0001) ># land_impl_grT =.FALSE.,
(PID.TID 0000.0001) ># land_calc_snow=.FALSE.,
(PID.TID 0000.0001) ># land_calc_alb =.FALSE.,
(PID.TID 0000.0001) >  land_grT_iniFile='land_grT_ini.cpl.bin',
(PID.TID 0000.0001) >  land_grW_iniFile='land_grW_ini.mn.bin',
(PID.TID 0000.0001) >  land_snow_iniFile='land_snw_ini.cpl.bin',
(PID.TID 0000.0001) ># land_oldPickup=.TRUE.,
(PID.TID 0000.0001) >  land_dzF= 0.1, 4.0,
(PID.TID 0000.0001) ># land_diagFreq=2592000.,
(PID.TID 0000.0001) > &
(PID.TID 0000.0001) >
(PID.TID 0000.0001) >#--  Physical constants (namelist LAND_PHYS_PAR):
(PID.TID 0000.0001) >#     land_grdLambda  :: Thermal conductivity of the ground (W/m/K)
(PID.TID 0000.0001) >#     land_heatCs     :: Heat capacity of dry soil (J/m3/K)
(PID.TID 0000.0001) >#     land_CpWater    :: Heat capacity of water    (J/kg/K)
(PID.TID 0000.0001) >#     land_wTauDiff   :: soil moisture diffusion time scale
(PID.TID 0000.0001) >#     land_waterCap   :: field capacity per meter of soil
(PID.TID 0000.0001) >#     land_fractRunOff:: fraction of water in excess which run-off
(PID.TID 0000.0001) >#     land_rhoLiqW    :: density of liquid water (kg/m3)
(PID.TID 0000.0001) >#     land_rhoSnow    :: density of snow (kg/m3)
(PID.TID 0000.0001) >#     land_Lfreez     :: Latent heat of freezing (J/kg)
(PID.TID 0000.0001) >#     land_hMaxSnow   :: Maximum snow-thickness  (m)
(PID.TID 0000.0001) >#     diffKsnow       :: thermal conductivity of snow (W/m/K)
(PID.TID 0000.0001) >#     timeSnowAge     :: snow aging time scale   (s)
(PID.TID 0000.0001) >#     hNewSnowAge     :: new snow thickness that refresh the snow-age (by 1/e)
(PID.TID 0000.0001) >#     albColdSnow     :: albedo of cold (=dry) new snow (Tsfc < -10)
(PID.TID 0000.0001) >#     albWarmSnow     :: albedo of warm (=wet) new snow (Tsfc = 0)
(PID.TID 0000.0001) >#     albOldSnow      :: albedo of old snow (snowAge > 35.d)
(PID.TID 0000.0001) >#     hAlbSnow        :: snow thickness for albedo transition: snow/ground
(PID.TID 0000.0001) > &LAND_PHYS_PAR
(PID.TID 0000.0001) ># land_Lfreez=0.,
(PID.TID 0000.0001) >  land_hMaxSnow=10.,
(PID.TID 0000.0001) > &
(PID.TID 0000.0001) 
(PID.TID 0000.0001)  LAND_READPARMS: finished reading data.land
(PID.TID 0000.0001) 
(PID.TID 0000.0001) // ===================================
(PID.TID 0000.0001) // Land package parameters :
(PID.TID 0000.0001) // ===================================
(PID.TID 0000.0001) land_calc_grT = /* step forward ground Temp. on/off flag */
(PID.TID 0000.0001)                   T
(PID.TID 0000.0001)     ;
(PID.TID 0000.0001) land_calc_grW = /* step forward soil moiture on/off flag */
(PID.TID 0000.0001)                   T
(PID.TID 0000.0001)     ;
(PID.TID 0000.0001) land_impl_grT = /* solve ground temperature implicitly */
(PID.TID 0000.0001)                   T
(PID.TID 0000.0001)     ;
(PID.TID 0000.0001) land_calc_snow = /* step forward snow thickness */
(PID.TID 0000.0001)                   T
(PID.TID 0000.0001)     ;
(PID.TID 0000.0001) land_calc_alb = /* compute land+snow albedo */
(PID.TID 0000.0001)                   T
(PID.TID 0000.0001)     ;
(PID.TID 0000.0001) land_grT_iniFile = /* Initial ground-Temp Input-File */
(PID.TID 0000.0001)                 land_grT_ini.cpl.bin
(PID.TID 0000.0001)     ;
(PID.TID 0000.0001) land_grW_iniFile = /* Initial soil-Water Input-File */
(PID.TID 0000.0001)                 land_grW_ini.mn.bin
(PID.TID 0000.0001)     ;
(PID.TID 0000.0001) land_snow_iniFile= /* Initial snow thickness Input-File */
(PID.TID 0000.0001)                 land_grW_ini.mn.bin
(PID.TID 0000.0001)     ;
(PID.TID 0000.0001) land_deltaT = /* land model Time-Step (s) */
(PID.TID 0000.0001)                 4.500000000000000E+02
(PID.TID 0000.0001)     ;
(PID.TID 0000.0001) land_taveFreq = /* Frequency^-1 for time-Aver. output (s) */
(PID.TID 0000.0001)                 2.592000000000000E+06
(PID.TID 0000.0001)     ;
(PID.TID 0000.0001) land_diagFreq = /* Frequency^-1 for diagnostic output (s) */
(PID.TID 0000.0001)                 2.592000000000000E+06
(PID.TID 0000.0001)     ;
(PID.TID 0000.0001) land_monFreq = /* Frequency^-1 for monitor output (s) */
(PID.TID 0000.0001)                 2.592000000000000E+06
(PID.TID 0000.0001)     ;
(PID.TID 0000.0001) land_dzF = /* layer thickness ( m ) */
(PID.TID 0000.0001)                 1.000000000000000E-01,      /* K =  1 */
(PID.TID 0000.0001)                 4.000000000000000E+00       /* K =  2 */
(PID.TID 0000.0001)     ;
(PID.TID 0000.0001) land_rec_dzC= /* recip. vertical spacing (m-1) */
(PID.TID 0000.0001)                 2.000000000000000E+01,      /* K =  1 */
(PID.TID 0000.0001)                 4.878048780487805E-01       /* K =  2 */
(PID.TID 0000.0001)     ;
(PID.TID 0000.0001) land_timeave_mnc = /* use MNC for Tave output */
(PID.TID 0000.0001)                   F
(PID.TID 0000.0001)     ;
(PID.TID 0000.0001) land_snapshot_mnc = /* use MNC for snapshot output */
(PID.TID 0000.0001)                   F
(PID.TID 0000.0001)     ;
(PID.TID 0000.0001) land_pickup_write_mnc = /* use MNC for writing pickups */
(PID.TID 0000.0001)                   F
(PID.TID 0000.0001)     ;
(PID.TID 0000.0001) land_pickup_read_mnc = /* use MNC for reading pickups */
(PID.TID 0000.0001)                   F
(PID.TID 0000.0001)     ;
(PID.TID 0000.0001) land_grdLambda = /* Thermal conductivity of the ground (W/m/K)*/
(PID.TID 0000.0001)                 4.200000000000001E-01
(PID.TID 0000.0001)     ;
(PID.TID 0000.0001) land_heatCs = /* Heat capacity of dry soil (J/m3/K) */
(PID.TID 0000.0001)                 1.130000000000000E+06
(PID.TID 0000.0001)     ;
(PID.TID 0000.0001) land_CpWater = /* Heat capacity of water    (J/kg/K) */
(PID.TID 0000.0001)                 4.200000000000001E+03
(PID.TID 0000.0001)     ;
(PID.TID 0000.0001) land_wTauDiff = /* soil moisture diffusion time scale (s) */
(PID.TID 0000.0001)                 1.728000000000000E+05
(PID.TID 0000.0001)     ;
(PID.TID 0000.0001) land_waterCap = /* field capacity per meter of soil (1) */
(PID.TID 0000.0001)                 2.400000000000000E-01
(PID.TID 0000.0001)     ;
(PID.TID 0000.0001) land_fractRunOff= /* fraction of water in excess which run-off */
(PID.TID 0000.0001)                 5.000000000000000E-01
(PID.TID 0000.0001)     ;
(PID.TID 0000.0001) land_rhoLiqW = /* density of liquid water (kg/m3) */
(PID.TID 0000.0001)                 1.000000000000000E+03
(PID.TID 0000.0001)     ;
(PID.TID 0000.0001) land_rhoSnow = /* density of snow (kg/m3) */
(PID.TID 0000.0001)                 3.300000000000000E+02
(PID.TID 0000.0001)     ;
(PID.TID 0000.0001) land_Lfreez = /* Latent heat of freezing (J/kg) */
(PID.TID 0000.0001)                 3.340000000000000E+05
(PID.TID 0000.0001)     ;
(PID.TID 0000.0001) land_hMaxSnow = /* maximum snow-thickness (m) */
(PID.TID 0000.0001)                 1.000000000000000E+01
(PID.TID 0000.0001)     ;
(PID.TID 0000.0001) diffKsnow = /* thermal conductivity of snow (W/m/K) */
(PID.TID 0000.0001)                 3.000000000000000E-01
(PID.TID 0000.0001)     ;
(PID.TID 0000.0001) timeSnowAge = /* snow aging time scale   (s) */
(PID.TID 0000.0001)                 4.320000000000001E+06
(PID.TID 0000.0001)     ;
(PID.TID 0000.0001) hNewSnowAge = /* new snow thickness to refresh snow-age by 1/e */
(PID.TID 0000.0001)                 2.000000000000000E-03
(PID.TID 0000.0001)     ;
(PID.TID 0000.0001) albColdSnow = /* albedo of cold (=dry) new snow */
(PID.TID 0000.0001)                 8.500000000000000E-01
(PID.TID 0000.0001)     ;
(PID.TID 0000.0001) albWarmSnow = /* albedo of warm (=wet) new snow */
(PID.TID 0000.0001)                 7.000000000000000E-01
(PID.TID 0000.0001)     ;
(PID.TID 0000.0001) albOldSnow = /* albedo of old snow (snowAge >35.d)*/
(PID.TID 0000.0001)                 5.500000000000001E-01
(PID.TID 0000.0001)     ;
(PID.TID 0000.0001) hAlbSnow = /* snow depth for albedo transition */
(PID.TID 0000.0001)                 3.000000000000000E-01
(PID.TID 0000.0001)     ;
(PID.TID 0000.0001) %MON fCori_max                    =   1.4535016908525E-04
(PID.TID 0000.0001) %MON fCori_min                    =  -1.4535016908525E-04
(PID.TID 0000.0001) %MON fCori_mean                   =   0.0000000000000E+00
(PID.TID 0000.0001) %MON fCori_sd                     =   8.3972192788621E-05
(PID.TID 0000.0001) %MON fCoriG_max                   =   1.4544410433286E-04
(PID.TID 0000.0001) %MON fCoriG_min                   =  -1.4544410433286E-04
(PID.TID 0000.0001) %MON fCoriG_mean                  =   0.0000000000000E+00
(PID.TID 0000.0001) %MON fCoriG_sd                    =   8.4860812167727E-05
(PID.TID 0000.0001) %MON fCoriCos_max                 =   1.4540341538469E-04
(PID.TID 0000.0001) %MON fCoriCos_min                 =   5.2264550201501E-06
(PID.TID 0000.0001) %MON fCoriCos_mean                =   1.1482595466044E-04
(PID.TID 0000.0001) %MON fCoriCos_sd                  =   3.0292878037194E-05
(PID.TID 0000.0001) INI_CG2D: CG2D normalisation factor =  9.9119603843467452E-06
(PID.TID 0000.0001) INI_CG2D: cg2dTolerance = 1.123144856357769E-10 (Area=5.0990436378E+14)
(PID.TID 0000.0001) 
(PID.TID 0000.0001) CONFIG_CHECK: OK
(PID.TID 0000.0001) // =======================================================
(PID.TID 0000.0001) // Model configuration
(PID.TID 0000.0001) // =======================================================
(PID.TID 0000.0001) //
(PID.TID 0000.0001) // "Physical" paramters ( PARM01 in namelist )
(PID.TID 0000.0001) //
(PID.TID 0000.0001) buoyancyRelation = ATMOSPHERIC
(PID.TID 0000.0001) fluidIsAir  =  /* fluid major constituent is Air */
(PID.TID 0000.0001)                   T
(PID.TID 0000.0001)     ;
(PID.TID 0000.0001) fluidIsWater=  /* fuild major constituent is Water */
(PID.TID 0000.0001)                   F
(PID.TID 0000.0001)     ;
(PID.TID 0000.0001) usingPCoords =  /* use p (or p*) vertical coordinate */
(PID.TID 0000.0001)                   T
(PID.TID 0000.0001)     ;
(PID.TID 0000.0001) usingZCoords =  /* use z (or z*) vertical coordinate */
(PID.TID 0000.0001)                   F
(PID.TID 0000.0001)     ;
(PID.TID 0000.0001) tRef =   /* Reference temperature profile ( oC or K ) */
(PID.TID 0000.0001)                 2.896000000000000E+02,      /* K =  1 */
(PID.TID 0000.0001)                 2.981000000000000E+02,      /* K =  2 */
(PID.TID 0000.0001)                 3.145000000000000E+02,      /* K =  3 */
(PID.TID 0000.0001)                 3.358000000000000E+02,      /* K =  4 */
(PID.TID 0000.0001)                 4.374000000000000E+02       /* K =  5 */
(PID.TID 0000.0001)     ;
(PID.TID 0000.0001) sRef =   /* Reference salinity profile ( psu ) */
(PID.TID 0000.0001)     5 @  0.000000000000000E+00              /* K =  1:  5 */
(PID.TID 0000.0001)     ;
(PID.TID 0000.0001) viscAh =   /* Lateral eddy viscosity ( m^2/s ) */
(PID.TID 0000.0001)                 0.000000000000000E+00
(PID.TID 0000.0001)     ;
(PID.TID 0000.0001) viscAhMax =   /* Maximum lateral eddy viscosity ( m^2/s ) */
(PID.TID 0000.0001)                 1.000000000000000E+21
(PID.TID 0000.0001)     ;
(PID.TID 0000.0001) viscAhGrid =   /* Grid dependent lateral eddy viscosity ( non-dim. ) */
(PID.TID 0000.0001)                 0.000000000000000E+00
(PID.TID 0000.0001)     ;
(PID.TID 0000.0001) useFullLeith =   /* Use Full Form of Leith Viscosity on/off flag*/
(PID.TID 0000.0001)                   F
(PID.TID 0000.0001)     ;
(PID.TID 0000.0001) useStrainTensionVisc =   /* Use StrainTension Form of Viscous Operator on/off flag*/
(PID.TID 0000.0001)                   F
(PID.TID 0000.0001)     ;
(PID.TID 0000.0001) useAreaViscLength =   /* Use area for visc length instead of geom. mean*/
(PID.TID 0000.0001)                   F
(PID.TID 0000.0001)     ;
(PID.TID 0000.0001) viscC2leith = /* Leith harmonic visc. factor (on grad(vort),non-dim.) */
(PID.TID 0000.0001)                 0.000000000000000E+00
(PID.TID 0000.0001)     ;
(PID.TID 0000.0001) viscC2leithD = /* Leith harmonic viscosity factor (on grad(div),non-dim.) */
(PID.TID 0000.0001)                 0.000000000000000E+00
(PID.TID 0000.0001)     ;
(PID.TID 0000.0001) viscC2smag =   /* Smagorinsky harmonic viscosity factor (non-dim.) */
(PID.TID 0000.0001)                 0.000000000000000E+00
(PID.TID 0000.0001)     ;
(PID.TID 0000.0001) viscA4 =   /* Lateral biharmonic viscosity ( m^4/s ) */
(PID.TID 0000.0001)                 0.000000000000000E+00
(PID.TID 0000.0001)     ;
(PID.TID 0000.0001) viscA4Max =   /* Maximum biharmonic viscosity ( m^2/s ) */
(PID.TID 0000.0001)                 1.000000000000000E+21
(PID.TID 0000.0001)     ;
(PID.TID 0000.0001) viscA4Grid =   /* Grid dependent biharmonic viscosity ( non-dim. ) */
(PID.TID 0000.0001)                 0.000000000000000E+00
(PID.TID 0000.0001)     ;
(PID.TID 0000.0001) viscC4leith = /* Leith biharm viscosity factor (on grad(vort), non-dim.) */
(PID.TID 0000.0001)                 0.000000000000000E+00
(PID.TID 0000.0001)     ;
(PID.TID 0000.0001) viscC4leithD = /* Leith biharm viscosity factor (on grad(div), non-dim.) */
(PID.TID 0000.0001)                 0.000000000000000E+00
(PID.TID 0000.0001)     ;
(PID.TID 0000.0001) viscC4Smag = /* Smagorinsky biharm viscosity factor (non-dim) */
(PID.TID 0000.0001)                 0.000000000000000E+00
(PID.TID 0000.0001)     ;
(PID.TID 0000.0001) no_slip_sides =  /* Viscous BCs: No-slip sides */
(PID.TID 0000.0001)                   F
(PID.TID 0000.0001)     ;
(PID.TID 0000.0001) sideDragFactor = /* side-drag scaling factor (non-dim) */
(PID.TID 0000.0001)                 2.000000000000000E+00
(PID.TID 0000.0001)     ;
(PID.TID 0000.0001) viscAr =   /* Vertical eddy viscosity ( units of r^2/s ) */
(PID.TID 0000.0001)                 0.000000000000000E+00
(PID.TID 0000.0001)     ;
(PID.TID 0000.0001) no_slip_bottom =  /* Viscous BCs: No-slip bottom */
(PID.TID 0000.0001)                   F
(PID.TID 0000.0001)     ;
(PID.TID 0000.0001) bottomDragLinear = /* linear bottom-drag coefficient ( 1/s ) */
(PID.TID 0000.0001)                 0.000000000000000E+00
(PID.TID 0000.0001)     ;
(PID.TID 0000.0001) bottomDragQuadratic = /* quadratic bottom-drag coeff. ( 1/m ) */
(PID.TID 0000.0001)                 0.000000000000000E+00
(PID.TID 0000.0001)     ;
(PID.TID 0000.0001) diffKhT =   /* Laplacian diffusion of heat laterally ( m^2/s ) */
(PID.TID 0000.0001)                 0.000000000000000E+00
(PID.TID 0000.0001)     ;
(PID.TID 0000.0001) diffK4T =   /* Bihaarmonic diffusion of heat laterally ( m^4/s ) */
(PID.TID 0000.0001)                 0.000000000000000E+00
(PID.TID 0000.0001)     ;
(PID.TID 0000.0001) diffKhS =   /* Laplacian diffusion of salt laterally ( m^2/s ) */
(PID.TID 0000.0001)                 0.000000000000000E+00
(PID.TID 0000.0001)     ;
(PID.TID 0000.0001) diffK4S =   /* Bihaarmonic diffusion of salt laterally ( m^4/s ) */
(PID.TID 0000.0001)                 0.000000000000000E+00
(PID.TID 0000.0001)     ;
(PID.TID 0000.0001) diffKrNrT = /* vertical profile of vertical diffusion of Temp ( m^2/s )*/
(PID.TID 0000.0001)     5 @  0.000000000000000E+00              /* K =  1:  5 */
(PID.TID 0000.0001)     ;
(PID.TID 0000.0001) diffKrNrS = /* vertical profile of vertical diffusion of Salt ( m^2/s )*/
(PID.TID 0000.0001)     5 @  0.000000000000000E+00              /* K =  1:  5 */
(PID.TID 0000.0001)     ;
(PID.TID 0000.0001) diffKrBL79surf =   /* Surface diffusion for Bryan and Lewis 1979 ( m^2/s ) */
(PID.TID 0000.0001)                 0.000000000000000E+00
(PID.TID 0000.0001)     ;
(PID.TID 0000.0001) diffKrBL79deep =   /* Deep diffusion for Bryan and Lewis 1979 ( m^2/s ) */
(PID.TID 0000.0001)                 0.000000000000000E+00
(PID.TID 0000.0001)     ;
(PID.TID 0000.0001) diffKrBL79scl =   /* Depth scale for Bryan and Lewis 1979 ( m ) */
(PID.TID 0000.0001)                 2.000000000000000E+02
(PID.TID 0000.0001)     ;
(PID.TID 0000.0001) diffKrBL79Ho =   /* Turning depth for Bryan and Lewis 1979 ( m ) */
(PID.TID 0000.0001)                -2.000000000000000E+03
(PID.TID 0000.0001)     ;
(PID.TID 0000.0001) Equation of State : eosType = IDEALG ;
(PID.TID 0000.0001) tAlpha =   /* Linear EOS thermal expansion coefficient ( 1/oC ) */
(PID.TID 0000.0001)                 1.234567000000000E+05
(PID.TID 0000.0001)     ;
(PID.TID 0000.0001) sBeta =   /* Linear EOS haline contraction coefficient ( 1/psu ) */
(PID.TID 0000.0001)                 1.234567000000000E+05
(PID.TID 0000.0001)     ;
(PID.TID 0000.0001) atm_Rd =  /* gas constant for dry air ( J/kg/K ) */
(PID.TID 0000.0001)                 2.868571428571428E+02
(PID.TID 0000.0001)     ;
(PID.TID 0000.0001) atm_Cp =  /* specific heat (Cp) of dry air ( J/kg/K ) */
(PID.TID 0000.0001)                 1.004000000000000E+03
(PID.TID 0000.0001)     ;
(PID.TID 0000.0001) atm_kappa =  /* kappa (=Rd/Cp ) of dry air */
(PID.TID 0000.0001)                 2.857142857142857E-01
(PID.TID 0000.0001)     ;
(PID.TID 0000.0001) atm_Rq = /* water vap. specific vol. anomaly relative to dry air */
(PID.TID 0000.0001)                 6.078000000000001E-04
(PID.TID 0000.0001)     ;
(PID.TID 0000.0001) atm_Po =  /* standard reference pressure ( Pa ) */
(PID.TID 0000.0001)                 1.000000000000000E+05
(PID.TID 0000.0001)     ;
(PID.TID 0000.0001) integr_GeoPot =  /* select how the geopotential is integrated */
(PID.TID 0000.0001)                       2
(PID.TID 0000.0001)     ;
(PID.TID 0000.0001) selectFindRoSurf=  /* select how Surf.Ref. pressure is defined */
(PID.TID 0000.0001)                       1
(PID.TID 0000.0001)     ;
(PID.TID 0000.0001) rhonil =   /* Reference density ( kg/m^3 ) */
(PID.TID 0000.0001)                 1.000000000000000E+00
(PID.TID 0000.0001)     ;
(PID.TID 0000.0001) rhoConst =   /* Reference density ( kg/m^3 ) */
(PID.TID 0000.0001)                 1.000000000000000E+00
(PID.TID 0000.0001)     ;
(PID.TID 0000.0001) rhoConstFresh =   /* Reference density ( kg/m^3 ) */
(PID.TID 0000.0001)                 1.000000000000000E+03
(PID.TID 0000.0001)     ;
(PID.TID 0000.0001) gravity =   /* Gravitational acceleration ( m/s^2 ) */
(PID.TID 0000.0001)                 9.810000000000000E+00
(PID.TID 0000.0001)     ;
(PID.TID 0000.0001) gBaro =   /* Barotropic gravity ( m/s^2 ) */
(PID.TID 0000.0001)                 9.810000000000000E+00
(PID.TID 0000.0001)     ;
(PID.TID 0000.0001) rotationPeriod =   /* Rotation Period ( s ) */
(PID.TID 0000.0001)                 8.640000000000000E+04
(PID.TID 0000.0001)     ;
(PID.TID 0000.0001) omega =   /* Angular velocity ( rad/s ) */
(PID.TID 0000.0001)                 7.272205216643039E-05
(PID.TID 0000.0001)     ;
(PID.TID 0000.0001) f0 =   /* Reference coriolis parameter ( 1/s ) */
(PID.TID 0000.0001)                 1.000000000000000E-04
(PID.TID 0000.0001)     ;
(PID.TID 0000.0001) beta =   /* Beta ( 1/(m.s) ) */
(PID.TID 0000.0001)                 1.000000000000000E-11
(PID.TID 0000.0001)     ;
(PID.TID 0000.0001) freeSurfFac =   /* Implicit free surface factor */
(PID.TID 0000.0001)                 1.000000000000000E+00
(PID.TID 0000.0001)     ;
(PID.TID 0000.0001) implicitFreeSurface =   /* Implicit free surface on/off flag */
(PID.TID 0000.0001)                   T
(PID.TID 0000.0001)     ;
(PID.TID 0000.0001) rigidLid =   /* Rigid lid on/off flag */
(PID.TID 0000.0001)                   F
(PID.TID 0000.0001)     ;
(PID.TID 0000.0001) implicSurfPress =   /* Surface Pressure implicit factor (0-1)*/
(PID.TID 0000.0001)                 1.000000000000000E+00
(PID.TID 0000.0001)     ;
(PID.TID 0000.0001) implicDiv2Dflow =   /* Barot. Flow Div. implicit factor (0-1)*/
(PID.TID 0000.0001)                 1.000000000000000E+00
(PID.TID 0000.0001)     ;
(PID.TID 0000.0001) exactConserv =   /* Exact Volume Conservation on/off flag*/
(PID.TID 0000.0001)                   T
(PID.TID 0000.0001)     ;
(PID.TID 0000.0001) uniformLin_PhiSurf =   /* use uniform Bo_surf on/off flag*/
(PID.TID 0000.0001)                   F
(PID.TID 0000.0001)     ;
(PID.TID 0000.0001) nonlinFreeSurf =   /* Non-linear Free Surf. options (-1,0,1,2,3)*/
(PID.TID 0000.0001)                       4
(PID.TID 0000.0001)     ;
(PID.TID 0000.0001)      -1,0= Off ; 1,2,3= On, 2=+rescale gU,gV, 3=+update cg2d solv.
(PID.TID 0000.0001) hFacInf =   /* lower threshold for hFac (nonlinFreeSurf only)*/
(PID.TID 0000.0001)                 2.000000000000000E-01
(PID.TID 0000.0001)     ;
(PID.TID 0000.0001) hFacSup =   /* upper threshold for hFac (nonlinFreeSurf only)*/
(PID.TID 0000.0001)                 2.000000000000000E+00
(PID.TID 0000.0001)     ;
(PID.TID 0000.0001) select_rStar =   /* r* Coordinate options (not yet implemented)*/
(PID.TID 0000.0001)                       2
(PID.TID 0000.0001)     ;
(PID.TID 0000.0001) useRealFreshWaterFlux =   /* Real Fresh Water Flux on/off flag*/
(PID.TID 0000.0001)                   F
(PID.TID 0000.0001)     ;
(PID.TID 0000.0001) convertFW2Salt = /* convert F.W. Flux to Salt Flux (-1=use local S)(ppt)*/
(PID.TID 0000.0001)                 3.500000000000000E+01
(PID.TID 0000.0001)     ;
(PID.TID 0000.0001) use3Dsolver = /* use 3-D pressure solver on/off flag */
(PID.TID 0000.0001)                   F
(PID.TID 0000.0001)     ;
(PID.TID 0000.0001) nonHydrostatic =  /* Non-Hydrostatic on/off flag */
(PID.TID 0000.0001)                   F
(PID.TID 0000.0001)     ;
(PID.TID 0000.0001) nh_Am2 = /* Non-Hydrostatic terms scaling factor */
(PID.TID 0000.0001)                 1.000000000000000E+00
(PID.TID 0000.0001)     ;
(PID.TID 0000.0001) momStepping =  /* Momentum equation on/off flag */
(PID.TID 0000.0001)                   T
(PID.TID 0000.0001)     ;
(PID.TID 0000.0001) momAdvection =  /* Momentum advection on/off flag */
(PID.TID 0000.0001)                   T
(PID.TID 0000.0001)     ;
(PID.TID 0000.0001) momViscosity =  /* Momentum viscosity on/off flag */
(PID.TID 0000.0001)                   T
(PID.TID 0000.0001)     ;
(PID.TID 0000.0001) momImplVertAdv =/* Momentum implicit vert. advection on/off*/
(PID.TID 0000.0001)                   F
(PID.TID 0000.0001)     ;
(PID.TID 0000.0001) implicitViscosity = /* Implicit viscosity on/off flag */
(PID.TID 0000.0001)                   F
(PID.TID 0000.0001)     ;
(PID.TID 0000.0001) useCoriolis =  /* Coriolis on/off flag */
(PID.TID 0000.0001)                   T
(PID.TID 0000.0001)     ;
(PID.TID 0000.0001) useCDscheme =  /* CD scheme on/off flag */
(PID.TID 0000.0001)                   F
(PID.TID 0000.0001)     ;
(PID.TID 0000.0001) useJamartWetPoints= /* Coriolis WetPoints method flag */
(PID.TID 0000.0001)                   T
(PID.TID 0000.0001)     ;
(PID.TID 0000.0001) useJamartMomAdv= /* V.I. Non-linear terms Jamart flag */
(PID.TID 0000.0001)                   F
(PID.TID 0000.0001)     ;
(PID.TID 0000.0001) SadournyCoriolis= /* Sadourny Coriolis discr. flag */
(PID.TID 0000.0001)                   F
(PID.TID 0000.0001)     ;
(PID.TID 0000.0001) upwindVorticity= /* Upwind bias vorticity flag */
(PID.TID 0000.0001)                   F
(PID.TID 0000.0001)     ;
(PID.TID 0000.0001) useAbsVorticity= /* Work with f+zeta in Coriolis */
(PID.TID 0000.0001)                   F
(PID.TID 0000.0001)     ;
(PID.TID 0000.0001) highOrderVorticity= /* High order interp. of vort. flag */
(PID.TID 0000.0001)                   F
(PID.TID 0000.0001)     ;
(PID.TID 0000.0001) upwindShear= /* Upwind vertical Shear advection flag */
(PID.TID 0000.0001)                   F
(PID.TID 0000.0001)     ;
(PID.TID 0000.0001) selectKEscheme= /* Kinetic Energy scheme selector */
(PID.TID 0000.0001)                       0
(PID.TID 0000.0001)     ;
(PID.TID 0000.0001) momForcing =  /* Momentum forcing on/off flag */
(PID.TID 0000.0001)                   T
(PID.TID 0000.0001)     ;
(PID.TID 0000.0001) momPressureForcing =  /* Momentum pressure term on/off flag */
(PID.TID 0000.0001)                   T
(PID.TID 0000.0001)     ;
(PID.TID 0000.0001) implicitIntGravWave= /* Implicit Internal Gravity Wave flag */
(PID.TID 0000.0001)                   F
(PID.TID 0000.0001)     ;
(PID.TID 0000.0001) staggerTimeStep =   /* Stagger time stepping on/off flag */
(PID.TID 0000.0001)                   T
(PID.TID 0000.0001)     ;
(PID.TID 0000.0001) multiDimAdvection =   /* enable/disable Multi-Dim Advection */
(PID.TID 0000.0001)                   T
(PID.TID 0000.0001)     ;
(PID.TID 0000.0001) useMultiDimAdvec =   /* Multi-Dim Advection is/is-not used */
(PID.TID 0000.0001)                   F
(PID.TID 0000.0001)     ;
(PID.TID 0000.0001) implicitDiffusion =/* Implicit Diffusion on/off flag */
(PID.TID 0000.0001)                   F
(PID.TID 0000.0001)     ;
(PID.TID 0000.0001) tempStepping =  /* Temperature equation on/off flag */
(PID.TID 0000.0001)                   T
(PID.TID 0000.0001)     ;
(PID.TID 0000.0001) tempAdvection=  /* Temperature advection on/off flag */
(PID.TID 0000.0001)                   T
(PID.TID 0000.0001)     ;
(PID.TID 0000.0001) tempImplVertAdv =/* Temp. implicit vert. advection on/off */
(PID.TID 0000.0001)                   F
(PID.TID 0000.0001)     ;
(PID.TID 0000.0001) tempForcing  =  /* Temperature forcing on/off flag */
(PID.TID 0000.0001)                   T
(PID.TID 0000.0001)     ;
(PID.TID 0000.0001) saltStepping =  /* Salinity equation on/off flag */
(PID.TID 0000.0001)                   T
(PID.TID 0000.0001)     ;
(PID.TID 0000.0001) saltAdvection=  /* Salinity advection on/off flag */
(PID.TID 0000.0001)                   T
(PID.TID 0000.0001)     ;
(PID.TID 0000.0001) saltImplVertAdv =/* Sali. implicit vert. advection on/off */
(PID.TID 0000.0001)                   F
(PID.TID 0000.0001)     ;
(PID.TID 0000.0001) saltForcing  =  /* Salinity forcing on/off flag */
(PID.TID 0000.0001)                   T
(PID.TID 0000.0001)     ;
(PID.TID 0000.0001)  readBinaryPrec = /* Precision used for reading binary files */
(PID.TID 0000.0001)                      64
(PID.TID 0000.0001)     ;
(PID.TID 0000.0001) writeBinaryPrec = /* Precision used for writing binary files */
(PID.TID 0000.0001)                      64
(PID.TID 0000.0001)     ;
(PID.TID 0000.0001)  globalFiles = /* write "global" (=not per tile) files */
(PID.TID 0000.0001)                   F
(PID.TID 0000.0001)     ;
(PID.TID 0000.0001)  useSingleCpuIO = /* only master MPI process does I/O */
(PID.TID 0000.0001)                   F
(PID.TID 0000.0001)     ;
(PID.TID 0000.0001)  debugMode  =  /* Debug Mode on/off flag */
(PID.TID 0000.0001)                   F
(PID.TID 0000.0001)     ;
(PID.TID 0000.0001)    debLevA  =  /* 1rst level of debugging */
(PID.TID 0000.0001)                       1
(PID.TID 0000.0001)     ;
(PID.TID 0000.0001)    debLevB  =  /* 2nd  level of debugging */
(PID.TID 0000.0001)                       2
(PID.TID 0000.0001)     ;
(PID.TID 0000.0001)  debugLevel =  /* select debugging level */
(PID.TID 0000.0001)                       1
(PID.TID 0000.0001)     ;
(PID.TID 0000.0001) //
(PID.TID 0000.0001) // Elliptic solver(s) paramters ( PARM02 in namelist )
(PID.TID 0000.0001) //
(PID.TID 0000.0001) cg2dMaxIters =   /* Upper limit on 2d con. grad iterations  */
(PID.TID 0000.0001)                     200
(PID.TID 0000.0001)     ;
(PID.TID 0000.0001) cg2dChkResFreq =   /* 2d con. grad convergence test frequency */
(PID.TID 0000.0001)                       1
(PID.TID 0000.0001)     ;
(PID.TID 0000.0001) cg2dTargetResidual =   /* 2d con. grad target residual  */
(PID.TID 0000.0001)                 1.000000000000000E-07
(PID.TID 0000.0001)     ;
(PID.TID 0000.0001) cg2dTargetResWunit =   /* CG2d target residual [W units] */
(PID.TID 0000.0001)                 1.000000000000000E-17
(PID.TID 0000.0001)     ;
(PID.TID 0000.0001) cg2dPreCondFreq =   /* Freq. for updating cg2d preconditioner */
(PID.TID 0000.0001)                       1
(PID.TID 0000.0001)     ;
(PID.TID 0000.0001) //
(PID.TID 0000.0001) // Time stepping paramters ( PARM03 in namelist )
(PID.TID 0000.0001) //
(PID.TID 0000.0001) nIter0 =   /* Run starting timestep number  */
(PID.TID 0000.0001)                       0
(PID.TID 0000.0001)     ;
(PID.TID 0000.0001) nTimeSteps =   /* Number of timesteps */
(PID.TID 0000.0001)                      40
(PID.TID 0000.0001)     ;
(PID.TID 0000.0001) deltatTmom =   /* Momentum equation timestep ( s ) */
(PID.TID 0000.0001)                 4.500000000000000E+02
(PID.TID 0000.0001)     ;
(PID.TID 0000.0001) deltaTfreesurf =   /* FreeSurface equation timestep ( s ) */
(PID.TID 0000.0001)                 4.500000000000000E+02
(PID.TID 0000.0001)     ;
(PID.TID 0000.0001) dTtracerLev =   /* Tracer equation timestep ( s ) */
(PID.TID 0000.0001)     5 @  4.500000000000000E+02              /* K =  1:  5 */
(PID.TID 0000.0001)     ;
(PID.TID 0000.0001) deltatTClock  =   /* Model clock timestep ( s ) */
(PID.TID 0000.0001)                 4.500000000000000E+02
(PID.TID 0000.0001)     ;
(PID.TID 0000.0001) cAdjFreq =   /* Convective adjustment interval ( s ) */
(PID.TID 0000.0001)                 0.000000000000000E+00
(PID.TID 0000.0001)     ;
(PID.TID 0000.0001) forcing_In_AB =   /* put T,S Forcing in Adams-Bash. stepping */
(PID.TID 0000.0001)                   F
(PID.TID 0000.0001)     ;
(PID.TID 0000.0001) doAB_onGtGs = /* apply AB on Tendencies (rather than on T,S)*/
(PID.TID 0000.0001)                   T
(PID.TID 0000.0001)     ;
(PID.TID 0000.0001) abEps =   /* Adams-Bashforth-2 stabilizing weight */
(PID.TID 0000.0001)                 1.000000000000000E-01
(PID.TID 0000.0001)     ;
(PID.TID 0000.0001) baseTime =   /* Model base time ( s ). */
(PID.TID 0000.0001)                 0.000000000000000E+00
(PID.TID 0000.0001)     ;
(PID.TID 0000.0001) startTime =   /* Run start time ( s ). */
(PID.TID 0000.0001)                 0.000000000000000E+00
(PID.TID 0000.0001)     ;
(PID.TID 0000.0001) endTime =   /* Integration ending time ( s ). */
(PID.TID 0000.0001)                 1.800000000000000E+04
(PID.TID 0000.0001)     ;
(PID.TID 0000.0001) pChkPtFreq =   /* Permanent restart/checkpoint file interval ( s ). */
(PID.TID 0000.0001)                 2.592000000000000E+06
(PID.TID 0000.0001)     ;
(PID.TID 0000.0001) chkPtFreq =   /* Rolling restart/checkpoint file interval ( s ). */
(PID.TID 0000.0001)                 0.000000000000000E+00
(PID.TID 0000.0001)     ;
(PID.TID 0000.0001) pickup_write_mdsio =   /* Model IO flag. */
(PID.TID 0000.0001)                   T
(PID.TID 0000.0001)     ;
(PID.TID 0000.0001) pickup_read_mdsio =   /* Model IO flag. */
(PID.TID 0000.0001)                   T
(PID.TID 0000.0001)     ;
(PID.TID 0000.0001) pickup_write_mnc =   /* Model IO flag. */
(PID.TID 0000.0001)                   F
(PID.TID 0000.0001)     ;
(PID.TID 0000.0001) pickup_read_mnc =   /* Model IO flag. */
(PID.TID 0000.0001)                   F
(PID.TID 0000.0001)     ;
(PID.TID 0000.0001) pickup_write_immed =   /* Model IO flag. */
(PID.TID 0000.0001)                   F
(PID.TID 0000.0001)     ;
(PID.TID 0000.0001) dumpFreq =   /* Model state write out interval ( s ). */
(PID.TID 0000.0001)                 2.592000000000000E+06
(PID.TID 0000.0001)     ;
(PID.TID 0000.0001) dumpInitAndLast= /* write out Initial & Last iter. model state */
(PID.TID 0000.0001)                   T
(PID.TID 0000.0001)     ;
(PID.TID 0000.0001) snapshot_mdsio =   /* Model IO flag. */
(PID.TID 0000.0001)                   T
(PID.TID 0000.0001)     ;
(PID.TID 0000.0001) snapshot_mnc =   /* Model IO flag. */
(PID.TID 0000.0001)                   F
(PID.TID 0000.0001)     ;
(PID.TID 0000.0001) monitorFreq =   /* Monitor output interval ( s ). */
(PID.TID 0000.0001)                 1.000000000000000E+00
(PID.TID 0000.0001)     ;
(PID.TID 0000.0001) monitor_stdio =   /* Model IO flag. */
(PID.TID 0000.0001)                   T
(PID.TID 0000.0001)     ;
(PID.TID 0000.0001) monitor_mnc =   /* Model IO flag. */
(PID.TID 0000.0001)                   F
(PID.TID 0000.0001)     ;
(PID.TID 0000.0001) externForcingPeriod =   /* forcing period (s) */
(PID.TID 0000.0001)                 0.000000000000000E+00
(PID.TID 0000.0001)     ;
(PID.TID 0000.0001) externForcingCycle =   /* period of the cyle (s). */
(PID.TID 0000.0001)                 0.000000000000000E+00
(PID.TID 0000.0001)     ;
(PID.TID 0000.0001) tauThetaClimRelax =   /* relaxation time scale (s) */
(PID.TID 0000.0001)                 0.000000000000000E+00
(PID.TID 0000.0001)     ;
(PID.TID 0000.0001) tauSaltClimRelax =   /* relaxation time scale (s) */
(PID.TID 0000.0001)                 0.000000000000000E+00
(PID.TID 0000.0001)     ;
(PID.TID 0000.0001) latBandClimRelax =   /* max. Lat. where relaxation */
(PID.TID 0000.0001)                 1.800000000000000E+02
(PID.TID 0000.0001)     ;
(PID.TID 0000.0001) //
(PID.TID 0000.0001) // Gridding paramters ( PARM04 in namelist )
(PID.TID 0000.0001) //
(PID.TID 0000.0001) usingCartesianGrid =   /* Cartesian coordinates flag ( True / False ) */
(PID.TID 0000.0001)                   F
(PID.TID 0000.0001)     ;
(PID.TID 0000.0001) usingSphericalPolarGrid =   /* Spherical coordinates flag ( True / False ) */
(PID.TID 0000.0001)                   F
(PID.TID 0000.0001)     ;
(PID.TID 0000.0001) usingCylindricalGrid =   /* Spherical coordinates flag ( True / False ) */
(PID.TID 0000.0001)                   F
(PID.TID 0000.0001)     ;
(PID.TID 0000.0001) Ro_SeaLevel =   /* r(1) ( units of r ) */
(PID.TID 0000.0001)                 1.000000000000000E+05
(PID.TID 0000.0001)     ;
(PID.TID 0000.0001) rkSign =   /* index orientation relative to vertical coordinate */
(PID.TID 0000.0001)                -1.000000000000000E+00
(PID.TID 0000.0001)     ;
(PID.TID 0000.0001) horiVertRatio =   /* Ratio on units : Horiz - Vertical */
(PID.TID 0000.0001)                 9.810000000000000E+00
(PID.TID 0000.0001)     ;
(PID.TID 0000.0001) drC =   /* C spacing ( units of r ) */
(PID.TID 0000.0001)                 5.000000000000000E+03,      /* K =  1 */
(PID.TID 0000.0001)                 1.750000000000000E+04,      /* K =  2 */
(PID.TID 0000.0001)                 2.750000000000000E+04,      /* K =  3 */
(PID.TID 0000.0001)                 2.500000000000000E+04,      /* K =  4 */
(PID.TID 0000.0001)                 1.750000000000000E+04       /* K =  5 */
(PID.TID 0000.0001)     ;
(PID.TID 0000.0001) drF =   /* W spacing ( units of r ) */
(PID.TID 0000.0001)                 1.000000000000000E+04,      /* K =  1 */
(PID.TID 0000.0001)                 2.500000000000000E+04,      /* K =  2 */
(PID.TID 0000.0001)                 3.000000000000000E+04,      /* K =  3 */
(PID.TID 0000.0001)                 2.000000000000000E+04,      /* K =  4 */
(PID.TID 0000.0001)                 1.500000000000000E+04       /* K =  5 */
(PID.TID 0000.0001)     ;
(PID.TID 0000.0001) delX =   /* U spacing ( m - cartesian, degrees - spherical ) */
(PID.TID 0000.0001)   192 @  1.234567000000000E+05              /* I =  1:192 */
(PID.TID 0000.0001)     ;
(PID.TID 0000.0001) delY =   /* V spacing ( m - cartesian, degrees - spherical ) */
(PID.TID 0000.0001)    32 @  1.234567000000000E+05              /* J =  1: 32 */
(PID.TID 0000.0001)     ;
(PID.TID 0000.0001) phiMin =    /* South edge (ignored - cartesian, degrees - spherical ) */
(PID.TID 0000.0001)                 0.000000000000000E+00
(PID.TID 0000.0001)     ;
(PID.TID 0000.0001) thetaMin =    /* West edge ( ignored - cartesian, degrees - spherical ) */
(PID.TID 0000.0001)                 0.000000000000000E+00
(PID.TID 0000.0001)     ;
(PID.TID 0000.0001) rSphere =    /* Radius ( ignored - cartesian, m - spherical ) */
(PID.TID 0000.0001)                 6.370000000000001E+06
(PID.TID 0000.0001)     ;
(PID.TID 0000.0001) xcoord =   /* P-point X coord ( m - cartesian, degrees - spherical ) */
(PID.TID 0000.0001)                -4.439521994760536E+01,      /* I =  1 */
(PID.TID 0000.0001)                -4.295641272275884E+01,      /* I =  2 */
(PID.TID 0000.0001)                -4.122055553388957E+01,      /* I =  3 */
(PID.TID 0000.0001)                -3.923446288487304E+01,      /* I =  4 */
(PID.TID 0000.0001)                -3.702585158682200E+01,      /* I =  5 */
(PID.TID 0000.0001)                -3.461179367094151E+01,      /* I =  6 */
(PID.TID 0000.0001)                -3.200434569041793E+01,      /* I =  7 */
(PID.TID 0000.0001)                -2.921355965632675E+01,      /* I =  8 */
(PID.TID 0000.0001)                -2.624932223028290E+01,      /* I =  9 */
(PID.TID 0000.0001)                -2.312261250426344E+01,      /* I = 10 */
(PID.TID 0000.0001)                -1.984640717127058E+01,      /* I = 11 */
(PID.TID 0000.0001)                -1.643630800555134E+01,      /* I = 12 */
(PID.TID 0000.0001)                -1.291089806302069E+01,      /* I = 13 */
(PID.TID 0000.0001)                -9.291807802719402E+00,      /* I = 14 */
(PID.TID 0000.0001)                -5.603475335822333E+00,      /* I = 15 */
(PID.TID 0000.0001)                -1.872608513033445E+00,      /* I = 16 */
(PID.TID 0000.0001)                 1.872608513033445E+00,      /* I = 17 */
(PID.TID 0000.0001)                 5.603475335822333E+00,      /* I = 18 */
(PID.TID 0000.0001)                 9.291807802719402E+00,      /* I = 19 */
(PID.TID 0000.0001)                 1.291089806302069E+01,      /* I = 20 */
(PID.TID 0000.0001)                 1.643630800555134E+01,      /* I = 21 */
(PID.TID 0000.0001)                 1.984640717127058E+01,      /* I = 22 */
(PID.TID 0000.0001)                 2.312261250426344E+01,      /* I = 23 */
(PID.TID 0000.0001)                 2.624932223028290E+01,      /* I = 24 */
(PID.TID 0000.0001)                 2.921355965632675E+01,      /* I = 25 */
(PID.TID 0000.0001)                 3.200434569041793E+01,      /* I = 26 */
(PID.TID 0000.0001)                 3.461179367094151E+01,      /* I = 27 */
(PID.TID 0000.0001)                 3.702585158682200E+01,      /* I = 28 */
(PID.TID 0000.0001)                 3.923446288487304E+01,      /* I = 29 */
(PID.TID 0000.0001)                 4.122055553388957E+01,      /* I = 30 */
(PID.TID 0000.0001)                 4.295641272275884E+01,      /* I = 31 */
(PID.TID 0000.0001)                 4.439521994760536E+01,      /* I = 32 */
(PID.TID 0000.0001)                 4.560478005239465E+01,      /* I = 33 */
(PID.TID 0000.0001)                 4.704358727724117E+01,      /* I = 34 */
(PID.TID 0000.0001)                 4.877944446611044E+01,      /* I = 35 */
(PID.TID 0000.0001)                 5.076553711512698E+01,      /* I = 36 */
(PID.TID 0000.0001)                 5.297414841317801E+01,      /* I = 37 */
(PID.TID 0000.0001)                 5.538820632905850E+01,      /* I = 38 */
(PID.TID 0000.0001)                 5.799565430958209E+01,      /* I = 39 */
(PID.TID 0000.0001)                 6.078644034367326E+01,      /* I = 40 */
(PID.TID 0000.0001)                 6.375067776971712E+01,      /* I = 41 */
(PID.TID 0000.0001)                 6.687738749573658E+01,      /* I = 42 */
(PID.TID 0000.0001)                 7.015359282872943E+01,      /* I = 43 */
(PID.TID 0000.0001)                 7.356369199444867E+01,      /* I = 44 */
(PID.TID 0000.0001)                 7.708910193697932E+01,      /* I = 45 */
(PID.TID 0000.0001)                 8.070819219728059E+01,      /* I = 46 */
(PID.TID 0000.0001)                 8.439652466417767E+01,      /* I = 47 */
(PID.TID 0000.0001)                 8.812739148696655E+01,      /* I = 48 */
(PID.TID 0000.0001)                 9.187260851303344E+01,      /* I = 49 */
(PID.TID 0000.0001)                 9.560347533582234E+01,      /* I = 50 */
(PID.TID 0000.0001)                 9.929180780271941E+01,      /* I = 51 */
(PID.TID 0000.0001)                 1.029108980630207E+02,      /* I = 52 */
(PID.TID 0000.0001)                 1.064363080055513E+02,      /* I = 53 */
(PID.TID 0000.0001)                 1.098464071712706E+02,      /* I = 54 */
(PID.TID 0000.0001)                 1.131226125042634E+02,      /* I = 55 */
(PID.TID 0000.0001)                 1.162493222302829E+02,      /* I = 56 */
(PID.TID 0000.0001)                 1.192135596563268E+02,      /* I = 57 */
(PID.TID 0000.0001)                 1.220043456904179E+02,      /* I = 58 */
(PID.TID 0000.0001)                 1.246117936709415E+02,      /* I = 59 */
(PID.TID 0000.0001)                 1.270258515868220E+02,      /* I = 60 */
(PID.TID 0000.0001)                 1.292344628848730E+02,      /* I = 61 */
(PID.TID 0000.0001)                 1.312205555338896E+02,      /* I = 62 */
(PID.TID 0000.0001)                 1.329564127227588E+02,      /* I = 63 */
(PID.TID 0000.0001)                 1.343952199476053E+02,      /* I = 64 */
(PID.TID 0000.0001)                 4.500000000000000E+01,      /* I = 65 */
(PID.TID 0000.0001)                 4.620805468796298E+01,      /* I = 66 */
(PID.TID 0000.0001)                 4.781369642513039E+01,      /* I = 67 */
(PID.TID 0000.0001)                 4.971767671143930E+01,      /* I = 68 */
(PID.TID 0000.0001)                 5.187738319787236E+01,      /* I = 69 */
(PID.TID 0000.0001)                 5.427004371478711E+01,      /* I = 70 */
(PID.TID 0000.0001)                 5.688128325334060E+01,      /* I = 71 */
(PID.TID 0000.0001)                 5.970018167786761E+01,      /* I = 72 */
(PID.TID 0000.0001)                 6.271654991792348E+01,      /* I = 73 */
(PID.TID 0000.0001)                 6.591914604853016E+01,      /* I = 74 */
(PID.TID 0000.0001)                 6.929439270484150E+01,      /* I = 75 */
(PID.TID 0000.0001)                 7.282545807616152E+01,      /* I = 76 */
(PID.TID 0000.0001)                 7.649168830618934E+01,      /* I = 77 */
(PID.TID 0000.0001)                 8.026842803787175E+01,      /* I = 78 */
(PID.TID 0000.0001)                 8.412726743124185E+01,      /* I = 79 */
(PID.TID 0000.0001)                 8.803672008547504E+01,      /* I = 80 */
(PID.TID 0000.0001)                 9.196327991452497E+01,      /* I = 81 */
(PID.TID 0000.0001)                 9.587273256875816E+01,      /* I = 82 */
(PID.TID 0000.0001)                 9.973157196212824E+01,      /* I = 83 */
(PID.TID 0000.0001)                 1.035083116938107E+02,      /* I = 84 */
(PID.TID 0000.0001)                 1.071745419238385E+02,      /* I = 85 */
(PID.TID 0000.0001)                 1.107056072951585E+02,      /* I = 86 */
(PID.TID 0000.0001)                 1.140808539514698E+02,      /* I = 87 */
(PID.TID 0000.0001)                 1.172834500820765E+02,      /* I = 88 */
(PID.TID 0000.0001)                 1.202998183221324E+02,      /* I = 89 */
(PID.TID 0000.0001)                 1.231187167466594E+02,      /* I = 90 */
(PID.TID 0000.0001)                 1.257299562852129E+02,      /* I = 91 */
(PID.TID 0000.0001)                 1.281226168021277E+02,      /* I = 92 */
(PID.TID 0000.0001)                 1.302823232885607E+02,      /* I = 93 */
(PID.TID 0000.0001)                 1.321863035748696E+02,      /* I = 94 */
(PID.TID 0000.0001)                 1.337919453120370E+02,      /* I = 95 */
(PID.TID 0000.0001)                 1.350000000000000E+02,      /* I = 96 */
(PID.TID 0000.0001)                 1.356047800523947E+02,      /* I = 97 */
(PID.TID 0000.0001)                 1.358367907661329E+02,      /* I = 98 */
(PID.TID 0000.0001)                 1.359720382181193E+02,      /* I = 99 */
(PID.TID 0000.0001)                 1.360654656901789E+02,      /* I =100 */
(PID.TID 0000.0001)                 1.361344533147042E+02,      /* I =101 */
(PID.TID 0000.0001)                 1.361871219420981E+02,      /* I =102 */
(PID.TID 0000.0001)                 1.362280794509603E+02,      /* I =103 */
(PID.TID 0000.0001)                 1.362602511071934E+02,      /* I =104 */
(PID.TID 0000.0001)                 1.362856280326734E+02,      /* I =105 */
(PID.TID 0000.0001)                 1.363056266270901E+02,      /* I =106 */
(PID.TID 0000.0001)                 1.363212817739446E+02,      /* I =107 */
(PID.TID 0000.0001)                 1.363333595910255E+02,      /* I =108 */
(PID.TID 0000.0001)                 1.363424272425760E+02,      /* I =109 */
(PID.TID 0000.0001)                 1.363488978790713E+02,      /* I =110 */
(PID.TID 0000.0001)                 1.363530600590580E+02,      /* I =111 */
(PID.TID 0000.0001)     2 @  1.363550967500717E+02,             /* I =112:113 */
(PID.TID 0000.0001)                 1.363530600590580E+02,      /* I =114 */
(PID.TID 0000.0001)                 1.363488978790713E+02,      /* I =115 */
(PID.TID 0000.0001)                 1.363424272425760E+02,      /* I =116 */
(PID.TID 0000.0001)                 1.363333595910255E+02,      /* I =117 */
(PID.TID 0000.0001)                 1.363212817739446E+02,      /* I =118 */
(PID.TID 0000.0001)                 1.363056266270901E+02,      /* I =119 */
(PID.TID 0000.0001)                 1.362856280326734E+02,      /* I =120 */
(PID.TID 0000.0001)                 1.362602511071934E+02,      /* I =121 */
(PID.TID 0000.0001)                 1.362280794509603E+02,      /* I =122 */
(PID.TID 0000.0001)                 1.361871219420981E+02,      /* I =123 */
(PID.TID 0000.0001)                 1.361344533147042E+02,      /* I =124 */
(PID.TID 0000.0001)                 1.360654656901789E+02,      /* I =125 */
(PID.TID 0000.0001)                 1.359720382181193E+02,      /* I =126 */
(PID.TID 0000.0001)                 1.358367907661329E+02,      /* I =127 */
(PID.TID 0000.0001)                 1.356047800523947E+02,      /* I =128 */
(PID.TID 0000.0001)                -1.343952199476053E+02,      /* I =129 */
(PID.TID 0000.0001)                -1.341632092338671E+02,      /* I =130 */
(PID.TID 0000.0001)                -1.340279617818807E+02,      /* I =131 */
(PID.TID 0000.0001)                -1.339345343098211E+02,      /* I =132 */
(PID.TID 0000.0001)                -1.338655466852957E+02,      /* I =133 */
(PID.TID 0000.0001)                -1.338128780579019E+02,      /* I =134 */
(PID.TID 0000.0001)                -1.337719205490397E+02,      /* I =135 */
(PID.TID 0000.0001)                -1.337397488928066E+02,      /* I =136 */
(PID.TID 0000.0001)                -1.337143719673266E+02,      /* I =137 */
(PID.TID 0000.0001)                -1.336943733729099E+02,      /* I =138 */
(PID.TID 0000.0001)                -1.336787182260554E+02,      /* I =139 */
(PID.TID 0000.0001)                -1.336666404089745E+02,      /* I =140 */
(PID.TID 0000.0001)                -1.336575727574240E+02,      /* I =141 */
(PID.TID 0000.0001)                -1.336511021209287E+02,      /* I =142 */
(PID.TID 0000.0001)                -1.336469399409420E+02,      /* I =143 */
(PID.TID 0000.0001)     2 @ -1.336449032499283E+02,             /* I =144:145 */
(PID.TID 0000.0001)                -1.336469399409420E+02,      /* I =146 */
(PID.TID 0000.0001)                -1.336511021209287E+02,      /* I =147 */
(PID.TID 0000.0001)                -1.336575727574240E+02,      /* I =148 */
(PID.TID 0000.0001)                -1.336666404089745E+02,      /* I =149 */
(PID.TID 0000.0001)                -1.336787182260554E+02,      /* I =150 */
(PID.TID 0000.0001)                -1.336943733729099E+02,      /* I =151 */
(PID.TID 0000.0001)                -1.337143719673266E+02,      /* I =152 */
(PID.TID 0000.0001)                -1.337397488928066E+02,      /* I =153 */
(PID.TID 0000.0001)                -1.337719205490397E+02,      /* I =154 */
(PID.TID 0000.0001)                -1.338128780579019E+02,      /* I =155 */
(PID.TID 0000.0001)                -1.338655466852957E+02,      /* I =156 */
(PID.TID 0000.0001)                -1.339345343098211E+02,      /* I =157 */
(PID.TID 0000.0001)                -1.340279617818807E+02,      /* I =158 */
(PID.TID 0000.0001)                -1.341632092338671E+02,      /* I =159 */
(PID.TID 0000.0001)                -1.343952199476053E+02,      /* I =160 */
(PID.TID 0000.0001)                -1.350000000000000E+02,      /* I =161 */
(PID.TID 0000.0001)                -1.362080546879630E+02,      /* I =162 */
(PID.TID 0000.0001)                -1.378136964251304E+02,      /* I =163 */
(PID.TID 0000.0001)                -1.397176767114393E+02,      /* I =164 */
(PID.TID 0000.0001)                -1.418773831978723E+02,      /* I =165 */
(PID.TID 0000.0001)                -1.442700437147871E+02,      /* I =166 */
(PID.TID 0000.0001)                -1.468812832533406E+02,      /* I =167 */
(PID.TID 0000.0001)                -1.497001816778676E+02,      /* I =168 */
(PID.TID 0000.0001)                -1.527165499179235E+02,      /* I =169 */
(PID.TID 0000.0001)                -1.559191460485302E+02,      /* I =170 */
(PID.TID 0000.0001)                -1.592943927048415E+02,      /* I =171 */
(PID.TID 0000.0001)                -1.628254580761615E+02,      /* I =172 */
(PID.TID 0000.0001)                -1.664916883061893E+02,      /* I =173 */
(PID.TID 0000.0001)                -1.702684280378718E+02,      /* I =174 */
(PID.TID 0000.0001)                -1.741272674312418E+02,      /* I =175 */
(PID.TID 0000.0001)                -1.780367200854751E+02,      /* I =176 */
(PID.TID 0000.0001)                 1.780367200854751E+02,      /* I =177 */
(PID.TID 0000.0001)                 1.741272674312418E+02,      /* I =178 */
(PID.TID 0000.0001)                 1.702684280378718E+02,      /* I =179 */
(PID.TID 0000.0001)                 1.664916883061893E+02,      /* I =180 */
(PID.TID 0000.0001)                 1.628254580761615E+02,      /* I =181 */
(PID.TID 0000.0001)                 1.592943927048415E+02,      /* I =182 */
(PID.TID 0000.0001)                 1.559191460485302E+02,      /* I =183 */
(PID.TID 0000.0001)                 1.527165499179235E+02,      /* I =184 */
(PID.TID 0000.0001)                 1.497001816778676E+02,      /* I =185 */
(PID.TID 0000.0001)                 1.468812832533406E+02,      /* I =186 */
(PID.TID 0000.0001)                 1.442700437147871E+02,      /* I =187 */
(PID.TID 0000.0001)                 1.418773831978723E+02,      /* I =188 */
(PID.TID 0000.0001)                 1.397176767114393E+02,      /* I =189 */
(PID.TID 0000.0001)                 1.378136964251304E+02,      /* I =190 */
(PID.TID 0000.0001)                 1.362080546879630E+02,      /* I =191 */
(PID.TID 0000.0001)                 1.350000000000000E+02       /* I =192 */
(PID.TID 0000.0001)     ;
(PID.TID 0000.0001) ycoord =   /* P-point Y coord ( m - cartesian, degrees - spherical ) */
(PID.TID 0000.0001)                -3.497677942598243E+01,      /* J =  1 */
(PID.TID 0000.0001)                -3.374005967394886E+01,      /* J =  2 */
(PID.TID 0000.0001)                -3.220655175667455E+01,      /* J =  3 */
(PID.TID 0000.0001)                -3.045756348838640E+01,      /* J =  4 */
(PID.TID 0000.0001)                -2.853728129852918E+01,      /* J =  5 */
(PID.TID 0000.0001)                -2.647426640173173E+01,      /* J =  6 */
(PID.TID 0000.0001)                -2.428936657094636E+01,      /* J =  7 */
(PID.TID 0000.0001)                -2.199915808312262E+01,      /* J =  8 */
(PID.TID 0000.0001)                -1.961768597440146E+01,      /* J =  9 */
(PID.TID 0000.0001)                -1.715743888281371E+01,      /* J = 10 */
(PID.TID 0000.0001)                -1.462993396899330E+01,      /* J = 11 */
(PID.TID 0000.0001)                -1.204608340464756E+01,      /* J = 12 */
(PID.TID 0000.0001)                -9.416429130284818E+00,      /* J = 13 */
(PID.TID 0000.0001)                -6.751293662992217E+00,      /* J = 14 */
(PID.TID 0000.0001)                -4.060875511835959E+00,      /* J = 15 */
(PID.TID 0000.0001)                -1.355307764409121E+00,      /* J = 16 */
(PID.TID 0000.0001)                 1.355307764409121E+00,      /* J = 17 */
(PID.TID 0000.0001)                 4.060875511835959E+00,      /* J = 18 */
(PID.TID 0000.0001)                 6.751293662992217E+00,      /* J = 19 */
(PID.TID 0000.0001)                 9.416429130284818E+00,      /* J = 20 */
(PID.TID 0000.0001)                 1.204608340464756E+01,      /* J = 21 */
(PID.TID 0000.0001)                 1.462993396899330E+01,      /* J = 22 */
(PID.TID 0000.0001)                 1.715743888281371E+01,      /* J = 23 */
(PID.TID 0000.0001)                 1.961768597440146E+01,      /* J = 24 */
(PID.TID 0000.0001)                 2.199915808312262E+01,      /* J = 25 */
(PID.TID 0000.0001)                 2.428936657094636E+01,      /* J = 26 */
(PID.TID 0000.0001)                 2.647426640173173E+01,      /* J = 27 */
(PID.TID 0000.0001)                 2.853728129852918E+01,      /* J = 28 */
(PID.TID 0000.0001)                 3.045756348838640E+01,      /* J = 29 */
(PID.TID 0000.0001)                 3.220655175667455E+01,      /* J = 30 */
(PID.TID 0000.0001)                 3.374005967394886E+01,      /* J = 31 */
(PID.TID 0000.0001)                 3.497677942598243E+01       /* J = 32 */
(PID.TID 0000.0001)     ;
(PID.TID 0000.0001) rcoord =   /* P-point R coordinate (  units of r ) */
(PID.TID 0000.0001)                 9.500000000000000E+04,      /* K =  1 */
(PID.TID 0000.0001)                 7.750000000000000E+04,      /* K =  2 */
(PID.TID 0000.0001)                 5.000000000000000E+04,      /* K =  3 */
(PID.TID 0000.0001)                 2.500000000000000E+04,      /* K =  4 */
(PID.TID 0000.0001)                 7.500000000000000E+03       /* K =  5 */
(PID.TID 0000.0001)     ;
(PID.TID 0000.0001) rF =   /* W-Interf. R coordinate (  units of r ) */
(PID.TID 0000.0001)                 1.000000000000000E+05,      /* K =  1 */
(PID.TID 0000.0001)                 9.000000000000000E+04,      /* K =  2 */
(PID.TID 0000.0001)                 6.500000000000000E+04,      /* K =  3 */
(PID.TID 0000.0001)                 3.500000000000000E+04,      /* K =  4 */
(PID.TID 0000.0001)                 1.500000000000000E+04,      /* K =  5 */
(PID.TID 0000.0001)                 0.000000000000000E+00       /* K =  6 */
(PID.TID 0000.0001)     ;
(PID.TID 0000.0001) dBdrRef = /* Vertical gradient of reference boyancy [(m/s/r)^2)] */
(PID.TID 0000.0001)                 0.000000000000000E+00,      /* K =  1 */
(PID.TID 0000.0001)                 1.551846956946958E-06,      /* K =  2 */
(PID.TID 0000.0001)                 2.382518577942705E-06,      /* K =  3 */
(PID.TID 0000.0001)                 5.042981208886097E-06,      /* K =  4 */
(PID.TID 0000.0001)                 6.524166098263504E-05       /* K =  5 */
(PID.TID 0000.0001)     ;
(PID.TID 0000.0001) dxF =  /* dxF(:,1,:,1) ( m - cartesian, degrees - spherical ) */
(PID.TID 0000.0001)                 1.202082051331828E+05,      /* I =  1 */
(PID.TID 0000.0001)                 1.563594089971120E+05,      /* I =  2 */
(PID.TID 0000.0001)                 1.835530058121492E+05,      /* I =  3 */
(PID.TID 0000.0001)                 2.045883481718707E+05,      /* I =  4 */
(PID.TID 0000.0001)                 2.218350349844184E+05,      /* I =  5 */
(PID.TID 0000.0001)                 2.364352994647058E+05,      /* I =  6 */
(PID.TID 0000.0001)                 2.490022710862746E+05,      /* I =  7 */
(PID.TID 0000.0001)                 2.598919724358304E+05,      /* I =  8 */
(PID.TID 0000.0001)                 2.693210245495156E+05,      /* I =  9 */
(PID.TID 0000.0001)                 2.774243179696503E+05,      /* I = 10 */
(PID.TID 0000.0001)                 2.842862532064523E+05,      /* I = 11 */
(PID.TID 0000.0001)                 2.899590699694043E+05,      /* I = 12 */
(PID.TID 0000.0001)                 2.944742915095688E+05,      /* I = 13 */
(PID.TID 0000.0001)                 2.978501920522793E+05,      /* I = 14 */
(PID.TID 0000.0001)                 3.000967749619962E+05,      /* I = 15 */
(PID.TID 0000.0001)     2 @  3.012190981969054E+05,             /* I = 16: 17 */
(PID.TID 0000.0001)                 3.000967749619962E+05,      /* I = 18 */
(PID.TID 0000.0001)                 2.978501920522793E+05,      /* I = 19 */
(PID.TID 0000.0001)                 2.944742915095688E+05,      /* I = 20 */
(PID.TID 0000.0001)                 2.899590699694043E+05,      /* I = 21 */
(PID.TID 0000.0001)                 2.842862532064523E+05,      /* I = 22 */
(PID.TID 0000.0001)                 2.774243179696503E+05,      /* I = 23 */
(PID.TID 0000.0001)                 2.693210245495156E+05,      /* I = 24 */
(PID.TID 0000.0001)                 2.598919724358304E+05,      /* I = 25 */
(PID.TID 0000.0001)                 2.490022710862746E+05,      /* I = 26 */
(PID.TID 0000.0001)                 2.364352994647058E+05,      /* I = 27 */
(PID.TID 0000.0001)                 2.218350349844184E+05,      /* I = 28 */
(PID.TID 0000.0001)                 2.045883481718707E+05,      /* I = 29 */
(PID.TID 0000.0001)                 1.835530058121492E+05,      /* I = 30 */
(PID.TID 0000.0001)                 1.563594089971120E+05,      /* I = 31 */
(PID.TID 0000.0001)     2 @  1.202082051331828E+05,             /* I = 32: 33 */
(PID.TID 0000.0001)                 1.563594089971120E+05,      /* I = 34 */
(PID.TID 0000.0001)                 1.835530058121492E+05,      /* I = 35 */
(PID.TID 0000.0001)                 2.045883481718707E+05,      /* I = 36 */
(PID.TID 0000.0001)                 2.218350349844184E+05,      /* I = 37 */
(PID.TID 0000.0001)                 2.364352994647058E+05,      /* I = 38 */
(PID.TID 0000.0001)                 2.490022710862746E+05,      /* I = 39 */
(PID.TID 0000.0001)                 2.598919724358304E+05,      /* I = 40 */
(PID.TID 0000.0001)                 2.693210245495156E+05,      /* I = 41 */
(PID.TID 0000.0001)                 2.774243179696503E+05,      /* I = 42 */
(PID.TID 0000.0001)                 2.842862532064523E+05,      /* I = 43 */
(PID.TID 0000.0001)                 2.899590699694043E+05,      /* I = 44 */
(PID.TID 0000.0001)                 2.944742915095688E+05,      /* I = 45 */
(PID.TID 0000.0001)                 2.978501920522793E+05,      /* I = 46 */
(PID.TID 0000.0001)                 3.000967749619962E+05,      /* I = 47 */
(PID.TID 0000.0001)     2 @  3.012190981969054E+05,             /* I = 48: 49 */
(PID.TID 0000.0001)                 3.000967749619962E+05,      /* I = 50 */
(PID.TID 0000.0001)                 2.978501920522793E+05,      /* I = 51 */
(PID.TID 0000.0001)                 2.944742915095688E+05,      /* I = 52 */
(PID.TID 0000.0001)                 2.899590699694043E+05,      /* I = 53 */
(PID.TID 0000.0001)                 2.842862532064523E+05,      /* I = 54 */
(PID.TID 0000.0001)                 2.774243179696503E+05,      /* I = 55 */
(PID.TID 0000.0001)                 2.693210245495156E+05,      /* I = 56 */
(PID.TID 0000.0001)                 2.598919724358304E+05,      /* I = 57 */
(PID.TID 0000.0001)                 2.490022710862746E+05,      /* I = 58 */
(PID.TID 0000.0001)                 2.364352994647058E+05,      /* I = 59 */
(PID.TID 0000.0001)                 2.218350349844184E+05,      /* I = 60 */
(PID.TID 0000.0001)                 2.045883481718707E+05,      /* I = 61 */
(PID.TID 0000.0001)                 1.835530058121492E+05,      /* I = 62 */
(PID.TID 0000.0001)                 1.563594089971120E+05,      /* I = 63 */
(PID.TID 0000.0001)     2 @  1.202082051331828E+05,             /* I = 64: 65 */
(PID.TID 0000.0001)                 1.563594089971120E+05,      /* I = 66 */
(PID.TID 0000.0001)                 1.835530058121492E+05,      /* I = 67 */
(PID.TID 0000.0001)                 2.045883481718707E+05,      /* I = 68 */
(PID.TID 0000.0001)                 2.218350349844184E+05,      /* I = 69 */
(PID.TID 0000.0001)                 2.364352994647058E+05,      /* I = 70 */
(PID.TID 0000.0001)                 2.490022710862746E+05,      /* I = 71 */
(PID.TID 0000.0001)                 2.598919724358304E+05,      /* I = 72 */
(PID.TID 0000.0001)                 2.693210245495156E+05,      /* I = 73 */
(PID.TID 0000.0001)                 2.774243179696503E+05,      /* I = 74 */
(PID.TID 0000.0001)                 2.842862532064523E+05,      /* I = 75 */
(PID.TID 0000.0001)                 2.899590699694043E+05,      /* I = 76 */
(PID.TID 0000.0001)                 2.944742915095688E+05,      /* I = 77 */
(PID.TID 0000.0001)                 2.978501920522793E+05,      /* I = 78 */
(PID.TID 0000.0001)                 3.000967749619962E+05,      /* I = 79 */
(PID.TID 0000.0001)     2 @  3.012190981969054E+05,             /* I = 80: 81 */
(PID.TID 0000.0001)                 3.000967749619962E+05,      /* I = 82 */
(PID.TID 0000.0001)                 2.978501920522793E+05,      /* I = 83 */
(PID.TID 0000.0001)                 2.944742915095688E+05,      /* I = 84 */
(PID.TID 0000.0001)                 2.899590699694043E+05,      /* I = 85 */
(PID.TID 0000.0001)                 2.842862532064523E+05,      /* I = 86 */
(PID.TID 0000.0001)                 2.774243179696503E+05,      /* I = 87 */
(PID.TID 0000.0001)                 2.693210245495156E+05,      /* I = 88 */
(PID.TID 0000.0001)                 2.598919724358304E+05,      /* I = 89 */
(PID.TID 0000.0001)                 2.490022710862746E+05,      /* I = 90 */
(PID.TID 0000.0001)                 2.364352994647058E+05,      /* I = 91 */
(PID.TID 0000.0001)                 2.218350349844184E+05,      /* I = 92 */
(PID.TID 0000.0001)                 2.045883481718707E+05,      /* I = 93 */
(PID.TID 0000.0001)                 1.835530058121492E+05,      /* I = 94 */
(PID.TID 0000.0001)                 1.563594089971120E+05,      /* I = 95 */
(PID.TID 0000.0001)     2 @  1.202082051331828E+05,             /* I = 96: 97 */
(PID.TID 0000.0001)                 1.563594089971120E+05,      /* I = 98 */
(PID.TID 0000.0001)                 1.835530058121492E+05,      /* I = 99 */
(PID.TID 0000.0001)                 2.045883481718707E+05,      /* I =100 */
(PID.TID 0000.0001)                 2.218350349844184E+05,      /* I =101 */
(PID.TID 0000.0001)                 2.364352994647058E+05,      /* I =102 */
(PID.TID 0000.0001)                 2.490022710862746E+05,      /* I =103 */
(PID.TID 0000.0001)                 2.598919724358304E+05,      /* I =104 */
(PID.TID 0000.0001)                 2.693210245495156E+05,      /* I =105 */
(PID.TID 0000.0001)                 2.774243179696503E+05,      /* I =106 */
(PID.TID 0000.0001)                 2.842862532064523E+05,      /* I =107 */
(PID.TID 0000.0001)                 2.899590699694043E+05,      /* I =108 */
(PID.TID 0000.0001)                 2.944742915095688E+05,      /* I =109 */
(PID.TID 0000.0001)                 2.978501920522793E+05,      /* I =110 */
(PID.TID 0000.0001)                 3.000967749619962E+05,      /* I =111 */
(PID.TID 0000.0001)     2 @  3.012190981969054E+05,             /* I =112:113 */
(PID.TID 0000.0001)                 3.000967749619962E+05,      /* I =114 */
(PID.TID 0000.0001)                 2.978501920522793E+05,      /* I =115 */
(PID.TID 0000.0001)                 2.944742915095688E+05,      /* I =116 */
(PID.TID 0000.0001)                 2.899590699694043E+05,      /* I =117 */
(PID.TID 0000.0001)                 2.842862532064523E+05,      /* I =118 */
(PID.TID 0000.0001)                 2.774243179696503E+05,      /* I =119 */
(PID.TID 0000.0001)                 2.693210245495156E+05,      /* I =120 */
(PID.TID 0000.0001)                 2.598919724358304E+05,      /* I =121 */
(PID.TID 0000.0001)                 2.490022710862746E+05,      /* I =122 */
(PID.TID 0000.0001)                 2.364352994647058E+05,      /* I =123 */
(PID.TID 0000.0001)                 2.218350349844184E+05,      /* I =124 */
(PID.TID 0000.0001)                 2.045883481718707E+05,      /* I =125 */
(PID.TID 0000.0001)                 1.835530058121492E+05,      /* I =126 */
(PID.TID 0000.0001)                 1.563594089971120E+05,      /* I =127 */
(PID.TID 0000.0001)     2 @  1.202082051331828E+05,             /* I =128:129 */
(PID.TID 0000.0001)                 1.563594089971120E+05,      /* I =130 */
(PID.TID 0000.0001)                 1.835530058121492E+05,      /* I =131 */
(PID.TID 0000.0001)                 2.045883481718707E+05,      /* I =132 */
(PID.TID 0000.0001)                 2.218350349844184E+05,      /* I =133 */
(PID.TID 0000.0001)                 2.364352994647058E+05,      /* I =134 */
(PID.TID 0000.0001)                 2.490022710862746E+05,      /* I =135 */
(PID.TID 0000.0001)                 2.598919724358304E+05,      /* I =136 */
(PID.TID 0000.0001)                 2.693210245495156E+05,      /* I =137 */
(PID.TID 0000.0001)                 2.774243179696503E+05,      /* I =138 */
(PID.TID 0000.0001)                 2.842862532064523E+05,      /* I =139 */
(PID.TID 0000.0001)                 2.899590699694043E+05,      /* I =140 */
(PID.TID 0000.0001)                 2.944742915095688E+05,      /* I =141 */
(PID.TID 0000.0001)                 2.978501920522793E+05,      /* I =142 */
(PID.TID 0000.0001)                 3.000967749619962E+05,      /* I =143 */
(PID.TID 0000.0001)     2 @  3.012190981969054E+05,             /* I =144:145 */
(PID.TID 0000.0001)                 3.000967749619962E+05,      /* I =146 */
(PID.TID 0000.0001)                 2.978501920522793E+05,      /* I =147 */
(PID.TID 0000.0001)                 2.944742915095688E+05,      /* I =148 */
(PID.TID 0000.0001)                 2.899590699694043E+05,      /* I =149 */
(PID.TID 0000.0001)                 2.842862532064523E+05,      /* I =150 */
(PID.TID 0000.0001)                 2.774243179696503E+05,      /* I =151 */
(PID.TID 0000.0001)                 2.693210245495156E+05,      /* I =152 */
(PID.TID 0000.0001)                 2.598919724358304E+05,      /* I =153 */
(PID.TID 0000.0001)                 2.490022710862746E+05,      /* I =154 */
(PID.TID 0000.0001)                 2.364352994647058E+05,      /* I =155 */
(PID.TID 0000.0001)                 2.218350349844184E+05,      /* I =156 */
(PID.TID 0000.0001)                 2.045883481718707E+05,      /* I =157 */
(PID.TID 0000.0001)                 1.835530058121492E+05,      /* I =158 */
(PID.TID 0000.0001)                 1.563594089971120E+05,      /* I =159 */
(PID.TID 0000.0001)     2 @  1.202082051331828E+05,             /* I =160:161 */
(PID.TID 0000.0001)                 1.563594089971120E+05,      /* I =162 */
(PID.TID 0000.0001)                 1.835530058121492E+05,      /* I =163 */
(PID.TID 0000.0001)                 2.045883481718707E+05,      /* I =164 */
(PID.TID 0000.0001)                 2.218350349844184E+05,      /* I =165 */
(PID.TID 0000.0001)                 2.364352994647058E+05,      /* I =166 */
(PID.TID 0000.0001)                 2.490022710862746E+05,      /* I =167 */
(PID.TID 0000.0001)                 2.598919724358304E+05,      /* I =168 */
(PID.TID 0000.0001)                 2.693210245495156E+05,      /* I =169 */
(PID.TID 0000.0001)                 2.774243179696503E+05,      /* I =170 */
(PID.TID 0000.0001)                 2.842862532064523E+05,      /* I =171 */
(PID.TID 0000.0001)                 2.899590699694043E+05,      /* I =172 */
(PID.TID 0000.0001)                 2.944742915095688E+05,      /* I =173 */
(PID.TID 0000.0001)                 2.978501920522793E+05,      /* I =174 */
(PID.TID 0000.0001)                 3.000967749619962E+05,      /* I =175 */
(PID.TID 0000.0001)     2 @  3.012190981969054E+05,             /* I =176:177 */
(PID.TID 0000.0001)                 3.000967749619962E+05,      /* I =178 */
(PID.TID 0000.0001)                 2.978501920522793E+05,      /* I =179 */
(PID.TID 0000.0001)                 2.944742915095688E+05,      /* I =180 */
(PID.TID 0000.0001)                 2.899590699694043E+05,      /* I =181 */
(PID.TID 0000.0001)                 2.842862532064523E+05,      /* I =182 */
(PID.TID 0000.0001)                 2.774243179696503E+05,      /* I =183 */
(PID.TID 0000.0001)                 2.693210245495156E+05,      /* I =184 */
(PID.TID 0000.0001)                 2.598919724358304E+05,      /* I =185 */
(PID.TID 0000.0001)                 2.490022710862746E+05,      /* I =186 */
(PID.TID 0000.0001)                 2.364352994647058E+05,      /* I =187 */
(PID.TID 0000.0001)                 2.218350349844184E+05,      /* I =188 */
(PID.TID 0000.0001)                 2.045883481718707E+05,      /* I =189 */
(PID.TID 0000.0001)                 1.835530058121492E+05,      /* I =190 */
(PID.TID 0000.0001)                 1.563594089971120E+05,      /* I =191 */
(PID.TID 0000.0001)                 1.202082051331828E+05       /* I =192 */
(PID.TID 0000.0001)     ;
(PID.TID 0000.0001) dxF =  /* dxF(1,:,1,:) ( m - cartesian, degrees - spherical ) */
(PID.TID 0000.0001)                 1.202082051331828E+05,      /* J =  1 */
(PID.TID 0000.0001)                 1.572908084538706E+05,      /* J =  2 */
(PID.TID 0000.0001)                 1.840412227747703E+05,      /* J =  3 */
(PID.TID 0000.0001)                 2.048868197919576E+05,      /* J =  4 */
(PID.TID 0000.0001)                 2.220405216043041E+05,      /* J =  5 */
(PID.TID 0000.0001)                 2.365892017348392E+05,      /* J =  6 */
(PID.TID 0000.0001)                 2.491250781852558E+05,      /* J =  7 */
(PID.TID 0000.0001)                 2.599949918261880E+05,      /* J =  8 */
(PID.TID 0000.0001)                 2.694110134598581E+05,      /* J =  9 */
(PID.TID 0000.0001)                 2.775055554645015E+05,      /* J = 10 */
(PID.TID 0000.0001)                 2.843615645344775E+05,      /* J = 11 */
(PID.TID 0000.0001)                 2.900303768613598E+05,      /* J = 12 */
(PID.TID 0000.0001)                 2.945429307892709E+05,      /* J = 13 */
(PID.TID 0000.0001)                 2.979171143158405E+05,      /* J = 14 */
(PID.TID 0000.0001)                 3.001626787528886E+05,      /* J = 15 */
(PID.TID 0000.0001)     2 @  3.012844832048790E+05,             /* J = 16: 17 */
(PID.TID 0000.0001)                 3.001626787528886E+05,      /* J = 18 */
(PID.TID 0000.0001)                 2.979171143158405E+05,      /* J = 19 */
(PID.TID 0000.0001)                 2.945429307892709E+05,      /* J = 20 */
(PID.TID 0000.0001)                 2.900303768613598E+05,      /* J = 21 */
(PID.TID 0000.0001)                 2.843615645344775E+05,      /* J = 22 */
(PID.TID 0000.0001)                 2.775055554645015E+05,      /* J = 23 */
(PID.TID 0000.0001)                 2.694110134598581E+05,      /* J = 24 */
(PID.TID 0000.0001)                 2.599949918261880E+05,      /* J = 25 */
(PID.TID 0000.0001)                 2.491250781852558E+05,      /* J = 26 */
(PID.TID 0000.0001)                 2.365892017348392E+05,      /* J = 27 */
(PID.TID 0000.0001)                 2.220405216043041E+05,      /* J = 28 */
(PID.TID 0000.0001)                 2.048868197919576E+05,      /* J = 29 */
(PID.TID 0000.0001)                 1.840412227747703E+05,      /* J = 30 */
(PID.TID 0000.0001)                 1.572908084538706E+05,      /* J = 31 */
(PID.TID 0000.0001)                 1.202082051331828E+05       /* J = 32 */
(PID.TID 0000.0001)     ;
(PID.TID 0000.0001) dyF =  /* dyF(:,1,:,1) ( m - cartesian, degrees - spherical ) */
(PID.TID 0000.0001)                 1.202082051331828E+05,      /* I =  1 */
(PID.TID 0000.0001)                 1.572908084538706E+05,      /* I =  2 */
(PID.TID 0000.0001)                 1.840412227747703E+05,      /* I =  3 */
(PID.TID 0000.0001)                 2.048868197919576E+05,      /* I =  4 */
(PID.TID 0000.0001)                 2.220405216043041E+05,      /* I =  5 */
(PID.TID 0000.0001)                 2.365892017348392E+05,      /* I =  6 */
(PID.TID 0000.0001)                 2.491250781852558E+05,      /* I =  7 */
(PID.TID 0000.0001)                 2.599949918261880E+05,      /* I =  8 */
(PID.TID 0000.0001)                 2.694110134598581E+05,      /* I =  9 */
(PID.TID 0000.0001)                 2.775055554645015E+05,      /* I = 10 */
(PID.TID 0000.0001)                 2.843615645344775E+05,      /* I = 11 */
(PID.TID 0000.0001)                 2.900303768613598E+05,      /* I = 12 */
(PID.TID 0000.0001)                 2.945429307892709E+05,      /* I = 13 */
(PID.TID 0000.0001)                 2.979171143158405E+05,      /* I = 14 */
(PID.TID 0000.0001)                 3.001626787528886E+05,      /* I = 15 */
(PID.TID 0000.0001)     2 @  3.012844832048790E+05,             /* I = 16: 17 */
(PID.TID 0000.0001)                 3.001626787528886E+05,      /* I = 18 */
(PID.TID 0000.0001)                 2.979171143158405E+05,      /* I = 19 */
(PID.TID 0000.0001)                 2.945429307892709E+05,      /* I = 20 */
(PID.TID 0000.0001)                 2.900303768613598E+05,      /* I = 21 */
(PID.TID 0000.0001)                 2.843615645344775E+05,      /* I = 22 */
(PID.TID 0000.0001)                 2.775055554645015E+05,      /* I = 23 */
(PID.TID 0000.0001)                 2.694110134598581E+05,      /* I = 24 */
(PID.TID 0000.0001)                 2.599949918261880E+05,      /* I = 25 */
(PID.TID 0000.0001)                 2.491250781852558E+05,      /* I = 26 */
(PID.TID 0000.0001)                 2.365892017348392E+05,      /* I = 27 */
(PID.TID 0000.0001)                 2.220405216043041E+05,      /* I = 28 */
(PID.TID 0000.0001)                 2.048868197919576E+05,      /* I = 29 */
(PID.TID 0000.0001)                 1.840412227747703E+05,      /* I = 30 */
(PID.TID 0000.0001)                 1.572908084538706E+05,      /* I = 31 */
(PID.TID 0000.0001)     2 @  1.202082051331828E+05,             /* I = 32: 33 */
(PID.TID 0000.0001)                 1.572908084538706E+05,      /* I = 34 */
(PID.TID 0000.0001)                 1.840412227747703E+05,      /* I = 35 */
(PID.TID 0000.0001)                 2.048868197919576E+05,      /* I = 36 */
(PID.TID 0000.0001)                 2.220405216043041E+05,      /* I = 37 */
(PID.TID 0000.0001)                 2.365892017348392E+05,      /* I = 38 */
(PID.TID 0000.0001)                 2.491250781852558E+05,      /* I = 39 */
(PID.TID 0000.0001)                 2.599949918261880E+05,      /* I = 40 */
(PID.TID 0000.0001)                 2.694110134598581E+05,      /* I = 41 */
(PID.TID 0000.0001)                 2.775055554645015E+05,      /* I = 42 */
(PID.TID 0000.0001)                 2.843615645344775E+05,      /* I = 43 */
(PID.TID 0000.0001)                 2.900303768613598E+05,      /* I = 44 */
(PID.TID 0000.0001)                 2.945429307892709E+05,      /* I = 45 */
(PID.TID 0000.0001)                 2.979171143158405E+05,      /* I = 46 */
(PID.TID 0000.0001)                 3.001626787528886E+05,      /* I = 47 */
(PID.TID 0000.0001)     2 @  3.012844832048790E+05,             /* I = 48: 49 */
(PID.TID 0000.0001)                 3.001626787528886E+05,      /* I = 50 */
(PID.TID 0000.0001)                 2.979171143158405E+05,      /* I = 51 */
(PID.TID 0000.0001)                 2.945429307892709E+05,      /* I = 52 */
(PID.TID 0000.0001)                 2.900303768613598E+05,      /* I = 53 */
(PID.TID 0000.0001)                 2.843615645344775E+05,      /* I = 54 */
(PID.TID 0000.0001)                 2.775055554645015E+05,      /* I = 55 */
(PID.TID 0000.0001)                 2.694110134598581E+05,      /* I = 56 */
(PID.TID 0000.0001)                 2.599949918261880E+05,      /* I = 57 */
(PID.TID 0000.0001)                 2.491250781852558E+05,      /* I = 58 */
(PID.TID 0000.0001)                 2.365892017348392E+05,      /* I = 59 */
(PID.TID 0000.0001)                 2.220405216043041E+05,      /* I = 60 */
(PID.TID 0000.0001)                 2.048868197919576E+05,      /* I = 61 */
(PID.TID 0000.0001)                 1.840412227747703E+05,      /* I = 62 */
(PID.TID 0000.0001)                 1.572908084538706E+05,      /* I = 63 */
(PID.TID 0000.0001)     2 @  1.202082051331828E+05,             /* I = 64: 65 */
(PID.TID 0000.0001)                 1.572908084538706E+05,      /* I = 66 */
(PID.TID 0000.0001)                 1.840412227747703E+05,      /* I = 67 */
(PID.TID 0000.0001)                 2.048868197919576E+05,      /* I = 68 */
(PID.TID 0000.0001)                 2.220405216043041E+05,      /* I = 69 */
(PID.TID 0000.0001)                 2.365892017348392E+05,      /* I = 70 */
(PID.TID 0000.0001)                 2.491250781852558E+05,      /* I = 71 */
(PID.TID 0000.0001)                 2.599949918261880E+05,      /* I = 72 */
(PID.TID 0000.0001)                 2.694110134598581E+05,      /* I = 73 */
(PID.TID 0000.0001)                 2.775055554645015E+05,      /* I = 74 */
(PID.TID 0000.0001)                 2.843615645344775E+05,      /* I = 75 */
(PID.TID 0000.0001)                 2.900303768613598E+05,      /* I = 76 */
(PID.TID 0000.0001)                 2.945429307892709E+05,      /* I = 77 */
(PID.TID 0000.0001)                 2.979171143158405E+05,      /* I = 78 */
(PID.TID 0000.0001)                 3.001626787528886E+05,      /* I = 79 */
(PID.TID 0000.0001)     2 @  3.012844832048790E+05,             /* I = 80: 81 */
(PID.TID 0000.0001)                 3.001626787528886E+05,      /* I = 82 */
(PID.TID 0000.0001)                 2.979171143158405E+05,      /* I = 83 */
(PID.TID 0000.0001)                 2.945429307892709E+05,      /* I = 84 */
(PID.TID 0000.0001)                 2.900303768613598E+05,      /* I = 85 */
(PID.TID 0000.0001)                 2.843615645344775E+05,      /* I = 86 */
(PID.TID 0000.0001)                 2.775055554645015E+05,      /* I = 87 */
(PID.TID 0000.0001)                 2.694110134598581E+05,      /* I = 88 */
(PID.TID 0000.0001)                 2.599949918261880E+05,      /* I = 89 */
(PID.TID 0000.0001)                 2.491250781852558E+05,      /* I = 90 */
(PID.TID 0000.0001)                 2.365892017348392E+05,      /* I = 91 */
(PID.TID 0000.0001)                 2.220405216043041E+05,      /* I = 92 */
(PID.TID 0000.0001)                 2.048868197919576E+05,      /* I = 93 */
(PID.TID 0000.0001)                 1.840412227747703E+05,      /* I = 94 */
(PID.TID 0000.0001)                 1.572908084538706E+05,      /* I = 95 */
(PID.TID 0000.0001)     2 @  1.202082051331828E+05,             /* I = 96: 97 */
(PID.TID 0000.0001)                 1.572908084538706E+05,      /* I = 98 */
(PID.TID 0000.0001)                 1.840412227747703E+05,      /* I = 99 */
(PID.TID 0000.0001)                 2.048868197919576E+05,      /* I =100 */
(PID.TID 0000.0001)                 2.220405216043041E+05,      /* I =101 */
(PID.TID 0000.0001)                 2.365892017348392E+05,      /* I =102 */
(PID.TID 0000.0001)                 2.491250781852558E+05,      /* I =103 */
(PID.TID 0000.0001)                 2.599949918261880E+05,      /* I =104 */
(PID.TID 0000.0001)                 2.694110134598581E+05,      /* I =105 */
(PID.TID 0000.0001)                 2.775055554645015E+05,      /* I =106 */
(PID.TID 0000.0001)                 2.843615645344775E+05,      /* I =107 */
(PID.TID 0000.0001)                 2.900303768613598E+05,      /* I =108 */
(PID.TID 0000.0001)                 2.945429307892709E+05,      /* I =109 */
(PID.TID 0000.0001)                 2.979171143158405E+05,      /* I =110 */
(PID.TID 0000.0001)                 3.001626787528886E+05,      /* I =111 */
(PID.TID 0000.0001)     2 @  3.012844832048790E+05,             /* I =112:113 */
(PID.TID 0000.0001)                 3.001626787528886E+05,      /* I =114 */
(PID.TID 0000.0001)                 2.979171143158405E+05,      /* I =115 */
(PID.TID 0000.0001)                 2.945429307892709E+05,      /* I =116 */
(PID.TID 0000.0001)                 2.900303768613598E+05,      /* I =117 */
(PID.TID 0000.0001)                 2.843615645344775E+05,      /* I =118 */
(PID.TID 0000.0001)                 2.775055554645015E+05,      /* I =119 */
(PID.TID 0000.0001)                 2.694110134598581E+05,      /* I =120 */
(PID.TID 0000.0001)                 2.599949918261880E+05,      /* I =121 */
(PID.TID 0000.0001)                 2.491250781852558E+05,      /* I =122 */
(PID.TID 0000.0001)                 2.365892017348392E+05,      /* I =123 */
(PID.TID 0000.0001)                 2.220405216043041E+05,      /* I =124 */
(PID.TID 0000.0001)                 2.048868197919576E+05,      /* I =125 */
(PID.TID 0000.0001)                 1.840412227747703E+05,      /* I =126 */
(PID.TID 0000.0001)                 1.572908084538706E+05,      /* I =127 */
(PID.TID 0000.0001)     2 @  1.202082051331828E+05,             /* I =128:129 */
(PID.TID 0000.0001)                 1.572908084538706E+05,      /* I =130 */
(PID.TID 0000.0001)                 1.840412227747703E+05,      /* I =131 */
(PID.TID 0000.0001)                 2.048868197919576E+05,      /* I =132 */
(PID.TID 0000.0001)                 2.220405216043041E+05,      /* I =133 */
(PID.TID 0000.0001)                 2.365892017348392E+05,      /* I =134 */
(PID.TID 0000.0001)                 2.491250781852558E+05,      /* I =135 */
(PID.TID 0000.0001)                 2.599949918261880E+05,      /* I =136 */
(PID.TID 0000.0001)                 2.694110134598581E+05,      /* I =137 */
(PID.TID 0000.0001)                 2.775055554645015E+05,      /* I =138 */
(PID.TID 0000.0001)                 2.843615645344775E+05,      /* I =139 */
(PID.TID 0000.0001)                 2.900303768613598E+05,      /* I =140 */
(PID.TID 0000.0001)                 2.945429307892709E+05,      /* I =141 */
(PID.TID 0000.0001)                 2.979171143158405E+05,      /* I =142 */
(PID.TID 0000.0001)                 3.001626787528886E+05,      /* I =143 */
(PID.TID 0000.0001)     2 @  3.012844832048790E+05,             /* I =144:145 */
(PID.TID 0000.0001)                 3.001626787528886E+05,      /* I =146 */
(PID.TID 0000.0001)                 2.979171143158405E+05,      /* I =147 */
(PID.TID 0000.0001)                 2.945429307892709E+05,      /* I =148 */
(PID.TID 0000.0001)                 2.900303768613598E+05,      /* I =149 */
(PID.TID 0000.0001)                 2.843615645344775E+05,      /* I =150 */
(PID.TID 0000.0001)                 2.775055554645015E+05,      /* I =151 */
(PID.TID 0000.0001)                 2.694110134598581E+05,      /* I =152 */
(PID.TID 0000.0001)                 2.599949918261880E+05,      /* I =153 */
(PID.TID 0000.0001)                 2.491250781852558E+05,      /* I =154 */
(PID.TID 0000.0001)                 2.365892017348392E+05,      /* I =155 */
(PID.TID 0000.0001)                 2.220405216043041E+05,      /* I =156 */
(PID.TID 0000.0001)                 2.048868197919576E+05,      /* I =157 */
(PID.TID 0000.0001)                 1.840412227747703E+05,      /* I =158 */
(PID.TID 0000.0001)                 1.572908084538706E+05,      /* I =159 */
(PID.TID 0000.0001)     2 @  1.202082051331828E+05,             /* I =160:161 */
(PID.TID 0000.0001)                 1.572908084538706E+05,      /* I =162 */
(PID.TID 0000.0001)                 1.840412227747703E+05,      /* I =163 */
(PID.TID 0000.0001)                 2.048868197919576E+05,      /* I =164 */
(PID.TID 0000.0001)                 2.220405216043041E+05,      /* I =165 */
(PID.TID 0000.0001)                 2.365892017348392E+05,      /* I =166 */
(PID.TID 0000.0001)                 2.491250781852558E+05,      /* I =167 */
(PID.TID 0000.0001)                 2.599949918261880E+05,      /* I =168 */
(PID.TID 0000.0001)                 2.694110134598581E+05,      /* I =169 */
(PID.TID 0000.0001)                 2.775055554645015E+05,      /* I =170 */
(PID.TID 0000.0001)                 2.843615645344775E+05,      /* I =171 */
(PID.TID 0000.0001)                 2.900303768613598E+05,      /* I =172 */
(PID.TID 0000.0001)                 2.945429307892709E+05,      /* I =173 */
(PID.TID 0000.0001)                 2.979171143158405E+05,      /* I =174 */
(PID.TID 0000.0001)                 3.001626787528886E+05,      /* I =175 */
(PID.TID 0000.0001)     2 @  3.012844832048790E+05,             /* I =176:177 */
(PID.TID 0000.0001)                 3.001626787528886E+05,      /* I =178 */
(PID.TID 0000.0001)                 2.979171143158405E+05,      /* I =179 */
(PID.TID 0000.0001)                 2.945429307892709E+05,      /* I =180 */
(PID.TID 0000.0001)                 2.900303768613598E+05,      /* I =181 */
(PID.TID 0000.0001)                 2.843615645344775E+05,      /* I =182 */
(PID.TID 0000.0001)                 2.775055554645015E+05,      /* I =183 */
(PID.TID 0000.0001)                 2.694110134598581E+05,      /* I =184 */
(PID.TID 0000.0001)                 2.599949918261880E+05,      /* I =185 */
(PID.TID 0000.0001)                 2.491250781852558E+05,      /* I =186 */
(PID.TID 0000.0001)                 2.365892017348392E+05,      /* I =187 */
(PID.TID 0000.0001)                 2.220405216043041E+05,      /* I =188 */
(PID.TID 0000.0001)                 2.048868197919576E+05,      /* I =189 */
(PID.TID 0000.0001)                 1.840412227747703E+05,      /* I =190 */
(PID.TID 0000.0001)                 1.572908084538706E+05,      /* I =191 */
(PID.TID 0000.0001)                 1.202082051331828E+05       /* I =192 */
(PID.TID 0000.0001)     ;
(PID.TID 0000.0001) dyF =  /* dyF(1,:,1,:) ( m - cartesian, degrees - spherical ) */
(PID.TID 0000.0001)                 1.202082051331828E+05,      /* J =  1 */
(PID.TID 0000.0001)                 1.563594089971120E+05,      /* J =  2 */
(PID.TID 0000.0001)                 1.835530058121492E+05,      /* J =  3 */
(PID.TID 0000.0001)                 2.045883481718707E+05,      /* J =  4 */
(PID.TID 0000.0001)                 2.218350349844184E+05,      /* J =  5 */
(PID.TID 0000.0001)                 2.364352994647058E+05,      /* J =  6 */
(PID.TID 0000.0001)                 2.490022710862746E+05,      /* J =  7 */
(PID.TID 0000.0001)                 2.598919724358304E+05,      /* J =  8 */
(PID.TID 0000.0001)                 2.693210245495156E+05,      /* J =  9 */
(PID.TID 0000.0001)                 2.774243179696503E+05,      /* J = 10 */
(PID.TID 0000.0001)                 2.842862532064523E+05,      /* J = 11 */
(PID.TID 0000.0001)                 2.899590699694043E+05,      /* J = 12 */
(PID.TID 0000.0001)                 2.944742915095688E+05,      /* J = 13 */
(PID.TID 0000.0001)                 2.978501920522793E+05,      /* J = 14 */
(PID.TID 0000.0001)                 3.000967749619962E+05,      /* J = 15 */
(PID.TID 0000.0001)     2 @  3.012190981969054E+05,             /* J = 16: 17 */
(PID.TID 0000.0001)                 3.000967749619962E+05,      /* J = 18 */
(PID.TID 0000.0001)                 2.978501920522793E+05,      /* J = 19 */
(PID.TID 0000.0001)                 2.944742915095688E+05,      /* J = 20 */
(PID.TID 0000.0001)                 2.899590699694043E+05,      /* J = 21 */
(PID.TID 0000.0001)                 2.842862532064523E+05,      /* J = 22 */
(PID.TID 0000.0001)                 2.774243179696503E+05,      /* J = 23 */
(PID.TID 0000.0001)                 2.693210245495156E+05,      /* J = 24 */
(PID.TID 0000.0001)                 2.598919724358304E+05,      /* J = 25 */
(PID.TID 0000.0001)                 2.490022710862746E+05,      /* J = 26 */
(PID.TID 0000.0001)                 2.364352994647058E+05,      /* J = 27 */
(PID.TID 0000.0001)                 2.218350349844184E+05,      /* J = 28 */
(PID.TID 0000.0001)                 2.045883481718707E+05,      /* J = 29 */
(PID.TID 0000.0001)                 1.835530058121492E+05,      /* J = 30 */
(PID.TID 0000.0001)                 1.563594089971120E+05,      /* J = 31 */
(PID.TID 0000.0001)                 1.202082051331828E+05       /* J = 32 */
(PID.TID 0000.0001)     ;
(PID.TID 0000.0001) dxG =  /* dxG(:,1,:,1) ( m - cartesian, degrees - spherical ) */
(PID.TID 0000.0001)                 1.009837800879055E+05,      /* I =  1 */
(PID.TID 0000.0001)                 1.534505834330337E+05,      /* I =  2 */
(PID.TID 0000.0001)                 1.823321598773926E+05,      /* I =  3 */
(PID.TID 0000.0001)                 2.038999045536999E+05,      /* I =  4 */
(PID.TID 0000.0001)                 2.213884732245467E+05,      /* I =  5 */
(PID.TID 0000.0001)                 2.361211699596122E+05,      /* I =  6 */
(PID.TID 0000.0001)                 2.487693460283865E+05,      /* I =  7 */
(PID.TID 0000.0001)                 2.597126963772146E+05,      /* I =  8 */
(PID.TID 0000.0001)                 2.691790288994575E+05,      /* I =  9 */
(PID.TID 0000.0001)                 2.773091043277394E+05,      /* I = 10 */
(PID.TID 0000.0001)                 2.841906470085516E+05,      /* I = 11 */
(PID.TID 0000.0001)                 2.898778860929753E+05,      /* I = 12 */
(PID.TID 0000.0001)                 2.944035815526417E+05,      /* I = 13 */
(PID.TID 0000.0001)                 2.977867909042096E+05,      /* I = 14 */
(PID.TID 0000.0001)                 3.000380090330854E+05,      /* I = 15 */
(PID.TID 0000.0001)     2 @  3.011625828699101E+05,             /* I = 16: 17 */
(PID.TID 0000.0001)                 3.000380090330854E+05,      /* I = 18 */
(PID.TID 0000.0001)                 2.977867909042096E+05,      /* I = 19 */
(PID.TID 0000.0001)                 2.944035815526417E+05,      /* I = 20 */
(PID.TID 0000.0001)                 2.898778860929753E+05,      /* I = 21 */
(PID.TID 0000.0001)                 2.841906470085516E+05,      /* I = 22 */
(PID.TID 0000.0001)                 2.773091043277394E+05,      /* I = 23 */
(PID.TID 0000.0001)                 2.691790288994575E+05,      /* I = 24 */
(PID.TID 0000.0001)                 2.597126963772146E+05,      /* I = 25 */
(PID.TID 0000.0001)                 2.487693460283865E+05,      /* I = 26 */
(PID.TID 0000.0001)                 2.361211699596122E+05,      /* I = 27 */
(PID.TID 0000.0001)                 2.213884732245467E+05,      /* I = 28 */
(PID.TID 0000.0001)                 2.038999045536999E+05,      /* I = 29 */
(PID.TID 0000.0001)                 1.823321598773926E+05,      /* I = 30 */
(PID.TID 0000.0001)                 1.534505834330337E+05,      /* I = 31 */
(PID.TID 0000.0001)     2 @  1.009837800879055E+05,             /* I = 32: 33 */
(PID.TID 0000.0001)                 1.534505834330337E+05,      /* I = 34 */
(PID.TID 0000.0001)                 1.823321598773926E+05,      /* I = 35 */
(PID.TID 0000.0001)                 2.038999045536999E+05,      /* I = 36 */
(PID.TID 0000.0001)                 2.213884732245467E+05,      /* I = 37 */
(PID.TID 0000.0001)                 2.361211699596122E+05,      /* I = 38 */
(PID.TID 0000.0001)                 2.487693460283865E+05,      /* I = 39 */
(PID.TID 0000.0001)                 2.597126963772146E+05,      /* I = 40 */
(PID.TID 0000.0001)                 2.691790288994575E+05,      /* I = 41 */
(PID.TID 0000.0001)                 2.773091043277394E+05,      /* I = 42 */
(PID.TID 0000.0001)                 2.841906470085516E+05,      /* I = 43 */
(PID.TID 0000.0001)                 2.898778860929753E+05,      /* I = 44 */
(PID.TID 0000.0001)                 2.944035815526417E+05,      /* I = 45 */
(PID.TID 0000.0001)                 2.977867909042096E+05,      /* I = 46 */
(PID.TID 0000.0001)                 3.000380090330854E+05,      /* I = 47 */
(PID.TID 0000.0001)     2 @  3.011625828699101E+05,             /* I = 48: 49 */
(PID.TID 0000.0001)                 3.000380090330854E+05,      /* I = 50 */
(PID.TID 0000.0001)                 2.977867909042096E+05,      /* I = 51 */
(PID.TID 0000.0001)                 2.944035815526417E+05,      /* I = 52 */
(PID.TID 0000.0001)                 2.898778860929753E+05,      /* I = 53 */
(PID.TID 0000.0001)                 2.841906470085516E+05,      /* I = 54 */
(PID.TID 0000.0001)                 2.773091043277394E+05,      /* I = 55 */
(PID.TID 0000.0001)                 2.691790288994575E+05,      /* I = 56 */
(PID.TID 0000.0001)                 2.597126963772146E+05,      /* I = 57 */
(PID.TID 0000.0001)                 2.487693460283865E+05,      /* I = 58 */
(PID.TID 0000.0001)                 2.361211699596122E+05,      /* I = 59 */
(PID.TID 0000.0001)                 2.213884732245467E+05,      /* I = 60 */
(PID.TID 0000.0001)                 2.038999045536999E+05,      /* I = 61 */
(PID.TID 0000.0001)                 1.823321598773926E+05,      /* I = 62 */
(PID.TID 0000.0001)                 1.534505834330337E+05,      /* I = 63 */
(PID.TID 0000.0001)     2 @  1.009837800879055E+05,             /* I = 64: 65 */
(PID.TID 0000.0001)                 1.534505834330337E+05,      /* I = 66 */
(PID.TID 0000.0001)                 1.823321598773926E+05,      /* I = 67 */
(PID.TID 0000.0001)                 2.038999045536999E+05,      /* I = 68 */
(PID.TID 0000.0001)                 2.213884732245467E+05,      /* I = 69 */
(PID.TID 0000.0001)                 2.361211699596122E+05,      /* I = 70 */
(PID.TID 0000.0001)                 2.487693460283865E+05,      /* I = 71 */
(PID.TID 0000.0001)                 2.597126963772146E+05,      /* I = 72 */
(PID.TID 0000.0001)                 2.691790288994575E+05,      /* I = 73 */
(PID.TID 0000.0001)                 2.773091043277394E+05,      /* I = 74 */
(PID.TID 0000.0001)                 2.841906470085516E+05,      /* I = 75 */
(PID.TID 0000.0001)                 2.898778860929753E+05,      /* I = 76 */
(PID.TID 0000.0001)                 2.944035815526417E+05,      /* I = 77 */
(PID.TID 0000.0001)                 2.977867909042096E+05,      /* I = 78 */
(PID.TID 0000.0001)                 3.000380090330854E+05,      /* I = 79 */
(PID.TID 0000.0001)     2 @  3.011625828699101E+05,             /* I = 80: 81 */
(PID.TID 0000.0001)                 3.000380090330854E+05,      /* I = 82 */
(PID.TID 0000.0001)                 2.977867909042096E+05,      /* I = 83 */
(PID.TID 0000.0001)                 2.944035815526417E+05,      /* I = 84 */
(PID.TID 0000.0001)                 2.898778860929753E+05,      /* I = 85 */
(PID.TID 0000.0001)                 2.841906470085516E+05,      /* I = 86 */
(PID.TID 0000.0001)                 2.773091043277394E+05,      /* I = 87 */
(PID.TID 0000.0001)                 2.691790288994575E+05,      /* I = 88 */
(PID.TID 0000.0001)                 2.597126963772146E+05,      /* I = 89 */
(PID.TID 0000.0001)                 2.487693460283865E+05,      /* I = 90 */
(PID.TID 0000.0001)                 2.361211699596122E+05,      /* I = 91 */
(PID.TID 0000.0001)                 2.213884732245467E+05,      /* I = 92 */
(PID.TID 0000.0001)                 2.038999045536999E+05,      /* I = 93 */
(PID.TID 0000.0001)                 1.823321598773926E+05,      /* I = 94 */
(PID.TID 0000.0001)                 1.534505834330337E+05,      /* I = 95 */
(PID.TID 0000.0001)     2 @  1.009837800879055E+05,             /* I = 96: 97 */
(PID.TID 0000.0001)                 1.534505834330337E+05,      /* I = 98 */
(PID.TID 0000.0001)                 1.823321598773926E+05,      /* I = 99 */
(PID.TID 0000.0001)                 2.038999045536999E+05,      /* I =100 */
(PID.TID 0000.0001)                 2.213884732245467E+05,      /* I =101 */
(PID.TID 0000.0001)                 2.361211699596122E+05,      /* I =102 */
(PID.TID 0000.0001)                 2.487693460283865E+05,      /* I =103 */
(PID.TID 0000.0001)                 2.597126963772146E+05,      /* I =104 */
(PID.TID 0000.0001)                 2.691790288994575E+05,      /* I =105 */
(PID.TID 0000.0001)                 2.773091043277394E+05,      /* I =106 */
(PID.TID 0000.0001)                 2.841906470085516E+05,      /* I =107 */
(PID.TID 0000.0001)                 2.898778860929753E+05,      /* I =108 */
(PID.TID 0000.0001)                 2.944035815526417E+05,      /* I =109 */
(PID.TID 0000.0001)                 2.977867909042096E+05,      /* I =110 */
(PID.TID 0000.0001)                 3.000380090330854E+05,      /* I =111 */
(PID.TID 0000.0001)     2 @  3.011625828699101E+05,             /* I =112:113 */
(PID.TID 0000.0001)                 3.000380090330854E+05,      /* I =114 */
(PID.TID 0000.0001)                 2.977867909042096E+05,      /* I =115 */
(PID.TID 0000.0001)                 2.944035815526417E+05,      /* I =116 */
(PID.TID 0000.0001)                 2.898778860929753E+05,      /* I =117 */
(PID.TID 0000.0001)                 2.841906470085516E+05,      /* I =118 */
(PID.TID 0000.0001)                 2.773091043277394E+05,      /* I =119 */
(PID.TID 0000.0001)                 2.691790288994575E+05,      /* I =120 */
(PID.TID 0000.0001)                 2.597126963772146E+05,      /* I =121 */
(PID.TID 0000.0001)                 2.487693460283865E+05,      /* I =122 */
(PID.TID 0000.0001)                 2.361211699596122E+05,      /* I =123 */
(PID.TID 0000.0001)                 2.213884732245467E+05,      /* I =124 */
(PID.TID 0000.0001)                 2.038999045536999E+05,      /* I =125 */
(PID.TID 0000.0001)                 1.823321598773926E+05,      /* I =126 */
(PID.TID 0000.0001)                 1.534505834330337E+05,      /* I =127 */
(PID.TID 0000.0001)     2 @  1.009837800879055E+05,             /* I =128:129 */
(PID.TID 0000.0001)                 1.534505834330337E+05,      /* I =130 */
(PID.TID 0000.0001)                 1.823321598773926E+05,      /* I =131 */
(PID.TID 0000.0001)                 2.038999045536999E+05,      /* I =132 */
(PID.TID 0000.0001)                 2.213884732245467E+05,      /* I =133 */
(PID.TID 0000.0001)                 2.361211699596122E+05,      /* I =134 */
(PID.TID 0000.0001)                 2.487693460283865E+05,      /* I =135 */
(PID.TID 0000.0001)                 2.597126963772146E+05,      /* I =136 */
(PID.TID 0000.0001)                 2.691790288994575E+05,      /* I =137 */
(PID.TID 0000.0001)                 2.773091043277394E+05,      /* I =138 */
(PID.TID 0000.0001)                 2.841906470085516E+05,      /* I =139 */
(PID.TID 0000.0001)                 2.898778860929753E+05,      /* I =140 */
(PID.TID 0000.0001)                 2.944035815526417E+05,      /* I =141 */
(PID.TID 0000.0001)                 2.977867909042096E+05,      /* I =142 */
(PID.TID 0000.0001)                 3.000380090330854E+05,      /* I =143 */
(PID.TID 0000.0001)     2 @  3.011625828699101E+05,             /* I =144:145 */
(PID.TID 0000.0001)                 3.000380090330854E+05,      /* I =146 */
(PID.TID 0000.0001)                 2.977867909042096E+05,      /* I =147 */
(PID.TID 0000.0001)                 2.944035815526417E+05,      /* I =148 */
(PID.TID 0000.0001)                 2.898778860929753E+05,      /* I =149 */
(PID.TID 0000.0001)                 2.841906470085516E+05,      /* I =150 */
(PID.TID 0000.0001)                 2.773091043277394E+05,      /* I =151 */
(PID.TID 0000.0001)                 2.691790288994575E+05,      /* I =152 */
(PID.TID 0000.0001)                 2.597126963772146E+05,      /* I =153 */
(PID.TID 0000.0001)                 2.487693460283865E+05,      /* I =154 */
(PID.TID 0000.0001)                 2.361211699596122E+05,      /* I =155 */
(PID.TID 0000.0001)                 2.213884732245467E+05,      /* I =156 */
(PID.TID 0000.0001)                 2.038999045536999E+05,      /* I =157 */
(PID.TID 0000.0001)                 1.823321598773926E+05,      /* I =158 */
(PID.TID 0000.0001)                 1.534505834330337E+05,      /* I =159 */
(PID.TID 0000.0001)     2 @  1.009837800879055E+05,             /* I =160:161 */
(PID.TID 0000.0001)                 1.534505834330337E+05,      /* I =162 */
(PID.TID 0000.0001)                 1.823321598773926E+05,      /* I =163 */
(PID.TID 0000.0001)                 2.038999045536999E+05,      /* I =164 */
(PID.TID 0000.0001)                 2.213884732245467E+05,      /* I =165 */
(PID.TID 0000.0001)                 2.361211699596122E+05,      /* I =166 */
(PID.TID 0000.0001)                 2.487693460283865E+05,      /* I =167 */
(PID.TID 0000.0001)                 2.597126963772146E+05,      /* I =168 */
(PID.TID 0000.0001)                 2.691790288994575E+05,      /* I =169 */
(PID.TID 0000.0001)                 2.773091043277394E+05,      /* I =170 */
(PID.TID 0000.0001)                 2.841906470085516E+05,      /* I =171 */
(PID.TID 0000.0001)                 2.898778860929753E+05,      /* I =172 */
(PID.TID 0000.0001)                 2.944035815526417E+05,      /* I =173 */
(PID.TID 0000.0001)                 2.977867909042096E+05,      /* I =174 */
(PID.TID 0000.0001)                 3.000380090330854E+05,      /* I =175 */
(PID.TID 0000.0001)     2 @  3.011625828699101E+05,             /* I =176:177 */
(PID.TID 0000.0001)                 3.000380090330854E+05,      /* I =178 */
(PID.TID 0000.0001)                 2.977867909042096E+05,      /* I =179 */
(PID.TID 0000.0001)                 2.944035815526417E+05,      /* I =180 */
(PID.TID 0000.0001)                 2.898778860929753E+05,      /* I =181 */
(PID.TID 0000.0001)                 2.841906470085516E+05,      /* I =182 */
(PID.TID 0000.0001)                 2.773091043277394E+05,      /* I =183 */
(PID.TID 0000.0001)                 2.691790288994575E+05,      /* I =184 */
(PID.TID 0000.0001)                 2.597126963772146E+05,      /* I =185 */
(PID.TID 0000.0001)                 2.487693460283865E+05,      /* I =186 */
(PID.TID 0000.0001)                 2.361211699596122E+05,      /* I =187 */
(PID.TID 0000.0001)                 2.213884732245467E+05,      /* I =188 */
(PID.TID 0000.0001)                 2.038999045536999E+05,      /* I =189 */
(PID.TID 0000.0001)                 1.823321598773926E+05,      /* I =190 */
(PID.TID 0000.0001)                 1.534505834330337E+05,      /* I =191 */
(PID.TID 0000.0001)                 1.009837800879055E+05       /* I =192 */
(PID.TID 0000.0001)     ;
(PID.TID 0000.0001) dxG =  /* dxG(1,:,1,:) ( m - cartesian, degrees - spherical ) */
(PID.TID 0000.0001)                 1.009837800879055E+05,      /* J =  1 */
(PID.TID 0000.0001)                 1.403701524205398E+05,      /* J =  2 */
(PID.TID 0000.0001)                 1.716197227386011E+05,      /* J =  3 */
(PID.TID 0000.0001)                 1.950254041626018E+05,      /* J =  4 */
(PID.TID 0000.0001)                 2.138410773065497E+05,      /* J =  5 */
(PID.TID 0000.0001)                 2.295958105911513E+05,      /* J =  6 */
(PID.TID 0000.0001)                 2.430829951739083E+05,      /* J =  7 */
(PID.TID 0000.0001)                 2.547526806712888E+05,      /* J =  8 */
(PID.TID 0000.0001)                 2.648750305193301E+05,      /* J =  9 */
(PID.TID 0000.0001)                 2.736173771018112E+05,      /* J = 10 */
(PID.TID 0000.0001)                 2.810845823202646E+05,      /* J = 11 */
(PID.TID 0000.0001)                 2.873420591008078E+05,      /* J = 12 */
(PID.TID 0000.0001)                 2.924298293668651E+05,      /* J = 13 */
(PID.TID 0000.0001)                 2.963715635865306E+05,      /* J = 14 */
(PID.TID 0000.0001)                 2.991805843171258E+05,      /* J = 15 */
(PID.TID 0000.0001)                 3.008638765647886E+05,      /* J = 16 */
(PID.TID 0000.0001)                 3.014246674484008E+05,      /* J = 17 */
(PID.TID 0000.0001)                 3.008638765647886E+05,      /* J = 18 */
(PID.TID 0000.0001)                 2.991805843171258E+05,      /* J = 19 */
(PID.TID 0000.0001)                 2.963715635865306E+05,      /* J = 20 */
(PID.TID 0000.0001)                 2.924298293668651E+05,      /* J = 21 */
(PID.TID 0000.0001)                 2.873420591008078E+05,      /* J = 22 */
(PID.TID 0000.0001)                 2.810845823202646E+05,      /* J = 23 */
(PID.TID 0000.0001)                 2.736173771018112E+05,      /* J = 24 */
(PID.TID 0000.0001)                 2.648750305193301E+05,      /* J = 25 */
(PID.TID 0000.0001)                 2.547526806712888E+05,      /* J = 26 */
(PID.TID 0000.0001)                 2.430829951739083E+05,      /* J = 27 */
(PID.TID 0000.0001)                 2.295958105911513E+05,      /* J = 28 */
(PID.TID 0000.0001)                 2.138410773065497E+05,      /* J = 29 */
(PID.TID 0000.0001)                 1.950254041626018E+05,      /* J = 30 */
(PID.TID 0000.0001)                 1.716197227386011E+05,      /* J = 31 */
(PID.TID 0000.0001)                 1.403701524205398E+05       /* J = 32 */
(PID.TID 0000.0001)     ;
(PID.TID 0000.0001) dyG =  /* dyG(:,1,:,1) ( m - cartesian, degrees - spherical ) */
(PID.TID 0000.0001)                 1.009837800879055E+05,      /* I =  1 */
(PID.TID 0000.0001)                 1.403701524205398E+05,      /* I =  2 */
(PID.TID 0000.0001)                 1.716197227386011E+05,      /* I =  3 */
(PID.TID 0000.0001)                 1.950254041626018E+05,      /* I =  4 */
(PID.TID 0000.0001)                 2.138410773065497E+05,      /* I =  5 */
(PID.TID 0000.0001)                 2.295958105911513E+05,      /* I =  6 */
(PID.TID 0000.0001)                 2.430829951739083E+05,      /* I =  7 */
(PID.TID 0000.0001)                 2.547526806712888E+05,      /* I =  8 */
(PID.TID 0000.0001)                 2.648750305193301E+05,      /* I =  9 */
(PID.TID 0000.0001)                 2.736173771018112E+05,      /* I = 10 */
(PID.TID 0000.0001)                 2.810845823202646E+05,      /* I = 11 */
(PID.TID 0000.0001)                 2.873420591008078E+05,      /* I = 12 */
(PID.TID 0000.0001)                 2.924298293668651E+05,      /* I = 13 */
(PID.TID 0000.0001)                 2.963715635865306E+05,      /* I = 14 */
(PID.TID 0000.0001)                 2.991805843171258E+05,      /* I = 15 */
(PID.TID 0000.0001)                 3.008638765647886E+05,      /* I = 16 */
(PID.TID 0000.0001)                 3.014246674484008E+05,      /* I = 17 */
(PID.TID 0000.0001)                 3.008638765647886E+05,      /* I = 18 */
(PID.TID 0000.0001)                 2.991805843171258E+05,      /* I = 19 */
(PID.TID 0000.0001)                 2.963715635865306E+05,      /* I = 20 */
(PID.TID 0000.0001)                 2.924298293668651E+05,      /* I = 21 */
(PID.TID 0000.0001)                 2.873420591008078E+05,      /* I = 22 */
(PID.TID 0000.0001)                 2.810845823202646E+05,      /* I = 23 */
(PID.TID 0000.0001)                 2.736173771018112E+05,      /* I = 24 */
(PID.TID 0000.0001)                 2.648750305193301E+05,      /* I = 25 */
(PID.TID 0000.0001)                 2.547526806712888E+05,      /* I = 26 */
(PID.TID 0000.0001)                 2.430829951739083E+05,      /* I = 27 */
(PID.TID 0000.0001)                 2.295958105911513E+05,      /* I = 28 */
(PID.TID 0000.0001)                 2.138410773065497E+05,      /* I = 29 */
(PID.TID 0000.0001)                 1.950254041626018E+05,      /* I = 30 */
(PID.TID 0000.0001)                 1.716197227386011E+05,      /* I = 31 */
(PID.TID 0000.0001)                 1.403701524205398E+05,      /* I = 32 */
(PID.TID 0000.0001)                 1.009837800879055E+05,      /* I = 33 */
(PID.TID 0000.0001)                 1.403701524205398E+05,      /* I = 34 */
(PID.TID 0000.0001)                 1.716197227386011E+05,      /* I = 35 */
(PID.TID 0000.0001)                 1.950254041626018E+05,      /* I = 36 */
(PID.TID 0000.0001)                 2.138410773065497E+05,      /* I = 37 */
(PID.TID 0000.0001)                 2.295958105911513E+05,      /* I = 38 */
(PID.TID 0000.0001)                 2.430829951739083E+05,      /* I = 39 */
(PID.TID 0000.0001)                 2.547526806712888E+05,      /* I = 40 */
(PID.TID 0000.0001)                 2.648750305193301E+05,      /* I = 41 */
(PID.TID 0000.0001)                 2.736173771018112E+05,      /* I = 42 */
(PID.TID 0000.0001)                 2.810845823202646E+05,      /* I = 43 */
(PID.TID 0000.0001)                 2.873420591008078E+05,      /* I = 44 */
(PID.TID 0000.0001)                 2.924298293668651E+05,      /* I = 45 */
(PID.TID 0000.0001)                 2.963715635865306E+05,      /* I = 46 */
(PID.TID 0000.0001)                 2.991805843171258E+05,      /* I = 47 */
(PID.TID 0000.0001)                 3.008638765647886E+05,      /* I = 48 */
(PID.TID 0000.0001)                 3.014246674484008E+05,      /* I = 49 */
(PID.TID 0000.0001)                 3.008638765647886E+05,      /* I = 50 */
(PID.TID 0000.0001)                 2.991805843171258E+05,      /* I = 51 */
(PID.TID 0000.0001)                 2.963715635865306E+05,      /* I = 52 */
(PID.TID 0000.0001)                 2.924298293668651E+05,      /* I = 53 */
(PID.TID 0000.0001)                 2.873420591008078E+05,      /* I = 54 */
(PID.TID 0000.0001)                 2.810845823202646E+05,      /* I = 55 */
(PID.TID 0000.0001)                 2.736173771018112E+05,      /* I = 56 */
(PID.TID 0000.0001)                 2.648750305193301E+05,      /* I = 57 */
(PID.TID 0000.0001)                 2.547526806712888E+05,      /* I = 58 */
(PID.TID 0000.0001)                 2.430829951739083E+05,      /* I = 59 */
(PID.TID 0000.0001)                 2.295958105911513E+05,      /* I = 60 */
(PID.TID 0000.0001)                 2.138410773065497E+05,      /* I = 61 */
(PID.TID 0000.0001)                 1.950254041626018E+05,      /* I = 62 */
(PID.TID 0000.0001)                 1.716197227386011E+05,      /* I = 63 */
(PID.TID 0000.0001)                 1.403701524205398E+05,      /* I = 64 */
(PID.TID 0000.0001)                 1.009837800879055E+05,      /* I = 65 */
(PID.TID 0000.0001)                 1.403701524205398E+05,      /* I = 66 */
(PID.TID 0000.0001)                 1.716197227386011E+05,      /* I = 67 */
(PID.TID 0000.0001)                 1.950254041626018E+05,      /* I = 68 */
(PID.TID 0000.0001)                 2.138410773065497E+05,      /* I = 69 */
(PID.TID 0000.0001)                 2.295958105911513E+05,      /* I = 70 */
(PID.TID 0000.0001)                 2.430829951739083E+05,      /* I = 71 */
(PID.TID 0000.0001)                 2.547526806712888E+05,      /* I = 72 */
(PID.TID 0000.0001)                 2.648750305193301E+05,      /* I = 73 */
(PID.TID 0000.0001)                 2.736173771018112E+05,      /* I = 74 */
(PID.TID 0000.0001)                 2.810845823202646E+05,      /* I = 75 */
(PID.TID 0000.0001)                 2.873420591008078E+05,      /* I = 76 */
(PID.TID 0000.0001)                 2.924298293668651E+05,      /* I = 77 */
(PID.TID 0000.0001)                 2.963715635865306E+05,      /* I = 78 */
(PID.TID 0000.0001)                 2.991805843171258E+05,      /* I = 79 */
(PID.TID 0000.0001)                 3.008638765647886E+05,      /* I = 80 */
(PID.TID 0000.0001)                 3.014246674484008E+05,      /* I = 81 */
(PID.TID 0000.0001)                 3.008638765647886E+05,      /* I = 82 */
(PID.TID 0000.0001)                 2.991805843171258E+05,      /* I = 83 */
(PID.TID 0000.0001)                 2.963715635865306E+05,      /* I = 84 */
(PID.TID 0000.0001)                 2.924298293668651E+05,      /* I = 85 */
(PID.TID 0000.0001)                 2.873420591008078E+05,      /* I = 86 */
(PID.TID 0000.0001)                 2.810845823202646E+05,      /* I = 87 */
(PID.TID 0000.0001)                 2.736173771018112E+05,      /* I = 88 */
(PID.TID 0000.0001)                 2.648750305193301E+05,      /* I = 89 */
(PID.TID 0000.0001)                 2.547526806712888E+05,      /* I = 90 */
(PID.TID 0000.0001)                 2.430829951739083E+05,      /* I = 91 */
(PID.TID 0000.0001)                 2.295958105911513E+05,      /* I = 92 */
(PID.TID 0000.0001)                 2.138410773065497E+05,      /* I = 93 */
(PID.TID 0000.0001)                 1.950254041626018E+05,      /* I = 94 */
(PID.TID 0000.0001)                 1.716197227386011E+05,      /* I = 95 */
(PID.TID 0000.0001)                 1.403701524205398E+05,      /* I = 96 */
(PID.TID 0000.0001)                 1.009837800879055E+05,      /* I = 97 */
(PID.TID 0000.0001)                 1.403701524205398E+05,      /* I = 98 */
(PID.TID 0000.0001)                 1.716197227386011E+05,      /* I = 99 */
(PID.TID 0000.0001)                 1.950254041626018E+05,      /* I =100 */
(PID.TID 0000.0001)                 2.138410773065497E+05,      /* I =101 */
(PID.TID 0000.0001)                 2.295958105911513E+05,      /* I =102 */
(PID.TID 0000.0001)                 2.430829951739083E+05,      /* I =103 */
(PID.TID 0000.0001)                 2.547526806712888E+05,      /* I =104 */
(PID.TID 0000.0001)                 2.648750305193301E+05,      /* I =105 */
(PID.TID 0000.0001)                 2.736173771018112E+05,      /* I =106 */
(PID.TID 0000.0001)                 2.810845823202646E+05,      /* I =107 */
(PID.TID 0000.0001)                 2.873420591008078E+05,      /* I =108 */
(PID.TID 0000.0001)                 2.924298293668651E+05,      /* I =109 */
(PID.TID 0000.0001)                 2.963715635865306E+05,      /* I =110 */
(PID.TID 0000.0001)                 2.991805843171258E+05,      /* I =111 */
(PID.TID 0000.0001)                 3.008638765647886E+05,      /* I =112 */
(PID.TID 0000.0001)                 3.014246674484008E+05,      /* I =113 */
(PID.TID 0000.0001)                 3.008638765647886E+05,      /* I =114 */
(PID.TID 0000.0001)                 2.991805843171258E+05,      /* I =115 */
(PID.TID 0000.0001)                 2.963715635865306E+05,      /* I =116 */
(PID.TID 0000.0001)                 2.924298293668651E+05,      /* I =117 */
(PID.TID 0000.0001)                 2.873420591008078E+05,      /* I =118 */
(PID.TID 0000.0001)                 2.810845823202646E+05,      /* I =119 */
(PID.TID 0000.0001)                 2.736173771018112E+05,      /* I =120 */
(PID.TID 0000.0001)                 2.648750305193301E+05,      /* I =121 */
(PID.TID 0000.0001)                 2.547526806712888E+05,      /* I =122 */
(PID.TID 0000.0001)                 2.430829951739083E+05,      /* I =123 */
(PID.TID 0000.0001)                 2.295958105911513E+05,      /* I =124 */
(PID.TID 0000.0001)                 2.138410773065497E+05,      /* I =125 */
(PID.TID 0000.0001)                 1.950254041626018E+05,      /* I =126 */
(PID.TID 0000.0001)                 1.716197227386011E+05,      /* I =127 */
(PID.TID 0000.0001)                 1.403701524205398E+05,      /* I =128 */
(PID.TID 0000.0001)                 1.009837800879055E+05,      /* I =129 */
(PID.TID 0000.0001)                 1.403701524205398E+05,      /* I =130 */
(PID.TID 0000.0001)                 1.716197227386011E+05,      /* I =131 */
(PID.TID 0000.0001)                 1.950254041626018E+05,      /* I =132 */
(PID.TID 0000.0001)                 2.138410773065497E+05,      /* I =133 */
(PID.TID 0000.0001)                 2.295958105911513E+05,      /* I =134 */
(PID.TID 0000.0001)                 2.430829951739083E+05,      /* I =135 */
(PID.TID 0000.0001)                 2.547526806712888E+05,      /* I =136 */
(PID.TID 0000.0001)                 2.648750305193301E+05,      /* I =137 */
(PID.TID 0000.0001)                 2.736173771018112E+05,      /* I =138 */
(PID.TID 0000.0001)                 2.810845823202646E+05,      /* I =139 */
(PID.TID 0000.0001)                 2.873420591008078E+05,      /* I =140 */
(PID.TID 0000.0001)                 2.924298293668651E+05,      /* I =141 */
(PID.TID 0000.0001)                 2.963715635865306E+05,      /* I =142 */
(PID.TID 0000.0001)                 2.991805843171258E+05,      /* I =143 */
(PID.TID 0000.0001)                 3.008638765647886E+05,      /* I =144 */
(PID.TID 0000.0001)                 3.014246674484008E+05,      /* I =145 */
(PID.TID 0000.0001)                 3.008638765647886E+05,      /* I =146 */
(PID.TID 0000.0001)                 2.991805843171258E+05,      /* I =147 */
(PID.TID 0000.0001)                 2.963715635865306E+05,      /* I =148 */
(PID.TID 0000.0001)                 2.924298293668651E+05,      /* I =149 */
(PID.TID 0000.0001)                 2.873420591008078E+05,      /* I =150 */
(PID.TID 0000.0001)                 2.810845823202646E+05,      /* I =151 */
(PID.TID 0000.0001)                 2.736173771018112E+05,      /* I =152 */
(PID.TID 0000.0001)                 2.648750305193301E+05,      /* I =153 */
(PID.TID 0000.0001)                 2.547526806712888E+05,      /* I =154 */
(PID.TID 0000.0001)                 2.430829951739083E+05,      /* I =155 */
(PID.TID 0000.0001)                 2.295958105911513E+05,      /* I =156 */
(PID.TID 0000.0001)                 2.138410773065497E+05,      /* I =157 */
(PID.TID 0000.0001)                 1.950254041626018E+05,      /* I =158 */
(PID.TID 0000.0001)                 1.716197227386011E+05,      /* I =159 */
(PID.TID 0000.0001)                 1.403701524205398E+05,      /* I =160 */
(PID.TID 0000.0001)                 1.009837800879055E+05,      /* I =161 */
(PID.TID 0000.0001)                 1.403701524205398E+05,      /* I =162 */
(PID.TID 0000.0001)                 1.716197227386011E+05,      /* I =163 */
(PID.TID 0000.0001)                 1.950254041626018E+05,      /* I =164 */
(PID.TID 0000.0001)                 2.138410773065497E+05,      /* I =165 */
(PID.TID 0000.0001)                 2.295958105911513E+05,      /* I =166 */
(PID.TID 0000.0001)                 2.430829951739083E+05,      /* I =167 */
(PID.TID 0000.0001)                 2.547526806712888E+05,      /* I =168 */
(PID.TID 0000.0001)                 2.648750305193301E+05,      /* I =169 */
(PID.TID 0000.0001)                 2.736173771018112E+05,      /* I =170 */
(PID.TID 0000.0001)                 2.810845823202646E+05,      /* I =171 */
(PID.TID 0000.0001)                 2.873420591008078E+05,      /* I =172 */
(PID.TID 0000.0001)                 2.924298293668651E+05,      /* I =173 */
(PID.TID 0000.0001)                 2.963715635865306E+05,      /* I =174 */
(PID.TID 0000.0001)                 2.991805843171258E+05,      /* I =175 */
(PID.TID 0000.0001)                 3.008638765647886E+05,      /* I =176 */
(PID.TID 0000.0001)                 3.014246674484008E+05,      /* I =177 */
(PID.TID 0000.0001)                 3.008638765647886E+05,      /* I =178 */
(PID.TID 0000.0001)                 2.991805843171258E+05,      /* I =179 */
(PID.TID 0000.0001)                 2.963715635865306E+05,      /* I =180 */
(PID.TID 0000.0001)                 2.924298293668651E+05,      /* I =181 */
(PID.TID 0000.0001)                 2.873420591008078E+05,      /* I =182 */
(PID.TID 0000.0001)                 2.810845823202646E+05,      /* I =183 */
(PID.TID 0000.0001)                 2.736173771018112E+05,      /* I =184 */
(PID.TID 0000.0001)                 2.648750305193301E+05,      /* I =185 */
(PID.TID 0000.0001)                 2.547526806712888E+05,      /* I =186 */
(PID.TID 0000.0001)                 2.430829951739083E+05,      /* I =187 */
(PID.TID 0000.0001)                 2.295958105911513E+05,      /* I =188 */
(PID.TID 0000.0001)                 2.138410773065497E+05,      /* I =189 */
(PID.TID 0000.0001)                 1.950254041626018E+05,      /* I =190 */
(PID.TID 0000.0001)                 1.716197227386011E+05,      /* I =191 */
(PID.TID 0000.0001)                 1.403701524205398E+05       /* I =192 */
(PID.TID 0000.0001)     ;
(PID.TID 0000.0001) dyG =  /* dyG(1,:,1,:) ( m - cartesian, degrees - spherical ) */
(PID.TID 0000.0001)                 1.009837800879055E+05,      /* J =  1 */
(PID.TID 0000.0001)                 1.534505834330337E+05,      /* J =  2 */
(PID.TID 0000.0001)                 1.823321598773926E+05,      /* J =  3 */
(PID.TID 0000.0001)                 2.038999045536999E+05,      /* J =  4 */
(PID.TID 0000.0001)                 2.213884732245467E+05,      /* J =  5 */
(PID.TID 0000.0001)                 2.361211699596122E+05,      /* J =  6 */
(PID.TID 0000.0001)                 2.487693460283865E+05,      /* J =  7 */
(PID.TID 0000.0001)                 2.597126963772146E+05,      /* J =  8 */
(PID.TID 0000.0001)                 2.691790288994575E+05,      /* J =  9 */
(PID.TID 0000.0001)                 2.773091043277394E+05,      /* J = 10 */
(PID.TID 0000.0001)                 2.841906470085516E+05,      /* J = 11 */
(PID.TID 0000.0001)                 2.898778860929753E+05,      /* J = 12 */
(PID.TID 0000.0001)                 2.944035815526417E+05,      /* J = 13 */
(PID.TID 0000.0001)                 2.977867909042096E+05,      /* J = 14 */
(PID.TID 0000.0001)                 3.000380090330854E+05,      /* J = 15 */
(PID.TID 0000.0001)     2 @  3.011625828699101E+05,             /* J = 16: 17 */
(PID.TID 0000.0001)                 3.000380090330854E+05,      /* J = 18 */
(PID.TID 0000.0001)                 2.977867909042096E+05,      /* J = 19 */
(PID.TID 0000.0001)                 2.944035815526417E+05,      /* J = 20 */
(PID.TID 0000.0001)                 2.898778860929753E+05,      /* J = 21 */
(PID.TID 0000.0001)                 2.841906470085516E+05,      /* J = 22 */
(PID.TID 0000.0001)                 2.773091043277394E+05,      /* J = 23 */
(PID.TID 0000.0001)                 2.691790288994575E+05,      /* J = 24 */
(PID.TID 0000.0001)                 2.597126963772146E+05,      /* J = 25 */
(PID.TID 0000.0001)                 2.487693460283865E+05,      /* J = 26 */
(PID.TID 0000.0001)                 2.361211699596122E+05,      /* J = 27 */
(PID.TID 0000.0001)                 2.213884732245467E+05,      /* J = 28 */
(PID.TID 0000.0001)                 2.038999045536999E+05,      /* J = 29 */
(PID.TID 0000.0001)                 1.823321598773926E+05,      /* J = 30 */
(PID.TID 0000.0001)                 1.534505834330337E+05,      /* J = 31 */
(PID.TID 0000.0001)                 1.009837800879055E+05       /* J = 32 */
(PID.TID 0000.0001)     ;
(PID.TID 0000.0001) dxC =  /* dxC(:,1,:,1) ( m - cartesian, degrees - spherical ) */
(PID.TID 0000.0001)                 1.114203141013064E+05,      /* I =  1 */
(PID.TID 0000.0001)                 1.391343389937105E+05,      /* I =  2 */
(PID.TID 0000.0001)                 1.709574999026266E+05,      /* I =  3 */
(PID.TID 0000.0001)                 1.946503699269892E+05,      /* I =  4 */
(PID.TID 0000.0001)                 2.135964483342134E+05,      /* I =  5 */
(PID.TID 0000.0001)                 2.294195678257306E+05,      /* I =  6 */
(PID.TID 0000.0001)                 2.429464709770498E+05,      /* I =  7 */
(PID.TID 0000.0001)                 2.546408290696998E+05,      /* I =  8 */
(PID.TID 0000.0001)                 2.647791839299727E+05,      /* I =  9 */
(PID.TID 0000.0001)                 2.735321911346108E+05,      /* I = 10 */
(PID.TID 0000.0001)                 2.810065951609633E+05,      /* I = 11 */
(PID.TID 0000.0001)                 2.872689479506989E+05,      /* I = 12 */
(PID.TID 0000.0001)                 2.923599955312932E+05,      /* I = 13 */
(PID.TID 0000.0001)                 2.963038832565530E+05,      /* I = 14 */
(PID.TID 0000.0001)                 2.991142470004740E+05,      /* I = 15 */
(PID.TID 0000.0001)                 3.007982711627968E+05,      /* I = 16 */
(PID.TID 0000.0001)                 3.013593857228136E+05,      /* I = 17 */
(PID.TID 0000.0001)                 3.007982711627968E+05,      /* I = 18 */
(PID.TID 0000.0001)                 2.991142470004740E+05,      /* I = 19 */
(PID.TID 0000.0001)                 2.963038832565530E+05,      /* I = 20 */
(PID.TID 0000.0001)                 2.923599955312932E+05,      /* I = 21 */
(PID.TID 0000.0001)                 2.872689479506989E+05,      /* I = 22 */
(PID.TID 0000.0001)                 2.810065951609633E+05,      /* I = 23 */
(PID.TID 0000.0001)                 2.735321911346108E+05,      /* I = 24 */
(PID.TID 0000.0001)                 2.647791839299727E+05,      /* I = 25 */
(PID.TID 0000.0001)                 2.546408290696998E+05,      /* I = 26 */
(PID.TID 0000.0001)                 2.429464709770498E+05,      /* I = 27 */
(PID.TID 0000.0001)                 2.294195678257306E+05,      /* I = 28 */
(PID.TID 0000.0001)                 2.135964483342134E+05,      /* I = 29 */
(PID.TID 0000.0001)                 1.946503699269892E+05,      /* I = 30 */
(PID.TID 0000.0001)                 1.709574999026266E+05,      /* I = 31 */
(PID.TID 0000.0001)                 1.391343389937105E+05,      /* I = 32 */
(PID.TID 0000.0001)                 1.114203141013064E+05,      /* I = 33 */
(PID.TID 0000.0001)                 1.391343389937105E+05,      /* I = 34 */
(PID.TID 0000.0001)                 1.709574999026266E+05,      /* I = 35 */
(PID.TID 0000.0001)                 1.946503699269892E+05,      /* I = 36 */
(PID.TID 0000.0001)                 2.135964483342134E+05,      /* I = 37 */
(PID.TID 0000.0001)                 2.294195678257306E+05,      /* I = 38 */
(PID.TID 0000.0001)                 2.429464709770498E+05,      /* I = 39 */
(PID.TID 0000.0001)                 2.546408290696998E+05,      /* I = 40 */
(PID.TID 0000.0001)                 2.647791839299727E+05,      /* I = 41 */
(PID.TID 0000.0001)                 2.735321911346108E+05,      /* I = 42 */
(PID.TID 0000.0001)                 2.810065951609633E+05,      /* I = 43 */
(PID.TID 0000.0001)                 2.872689479506989E+05,      /* I = 44 */
(PID.TID 0000.0001)                 2.923599955312932E+05,      /* I = 45 */
(PID.TID 0000.0001)                 2.963038832565530E+05,      /* I = 46 */
(PID.TID 0000.0001)                 2.991142470004740E+05,      /* I = 47 */
(PID.TID 0000.0001)                 3.007982711627968E+05,      /* I = 48 */
(PID.TID 0000.0001)                 3.013593857228136E+05,      /* I = 49 */
(PID.TID 0000.0001)                 3.007982711627968E+05,      /* I = 50 */
(PID.TID 0000.0001)                 2.991142470004740E+05,      /* I = 51 */
(PID.TID 0000.0001)                 2.963038832565530E+05,      /* I = 52 */
(PID.TID 0000.0001)                 2.923599955312932E+05,      /* I = 53 */
(PID.TID 0000.0001)                 2.872689479506989E+05,      /* I = 54 */
(PID.TID 0000.0001)                 2.810065951609633E+05,      /* I = 55 */
(PID.TID 0000.0001)                 2.735321911346108E+05,      /* I = 56 */
(PID.TID 0000.0001)                 2.647791839299727E+05,      /* I = 57 */
(PID.TID 0000.0001)                 2.546408290696998E+05,      /* I = 58 */
(PID.TID 0000.0001)                 2.429464709770498E+05,      /* I = 59 */
(PID.TID 0000.0001)                 2.294195678257306E+05,      /* I = 60 */
(PID.TID 0000.0001)                 2.135964483342134E+05,      /* I = 61 */
(PID.TID 0000.0001)                 1.946503699269892E+05,      /* I = 62 */
(PID.TID 0000.0001)                 1.709574999026266E+05,      /* I = 63 */
(PID.TID 0000.0001)                 1.391343389937105E+05,      /* I = 64 */
(PID.TID 0000.0001)                 1.114203141013064E+05,      /* I = 65 */
(PID.TID 0000.0001)                 1.391343389937105E+05,      /* I = 66 */
(PID.TID 0000.0001)                 1.709574999026266E+05,      /* I = 67 */
(PID.TID 0000.0001)                 1.946503699269892E+05,      /* I = 68 */
(PID.TID 0000.0001)                 2.135964483342134E+05,      /* I = 69 */
(PID.TID 0000.0001)                 2.294195678257306E+05,      /* I = 70 */
(PID.TID 0000.0001)                 2.429464709770498E+05,      /* I = 71 */
(PID.TID 0000.0001)                 2.546408290696998E+05,      /* I = 72 */
(PID.TID 0000.0001)                 2.647791839299727E+05,      /* I = 73 */
(PID.TID 0000.0001)                 2.735321911346108E+05,      /* I = 74 */
(PID.TID 0000.0001)                 2.810065951609633E+05,      /* I = 75 */
(PID.TID 0000.0001)                 2.872689479506989E+05,      /* I = 76 */
(PID.TID 0000.0001)                 2.923599955312932E+05,      /* I = 77 */
(PID.TID 0000.0001)                 2.963038832565530E+05,      /* I = 78 */
(PID.TID 0000.0001)                 2.991142470004740E+05,      /* I = 79 */
(PID.TID 0000.0001)                 3.007982711627968E+05,      /* I = 80 */
(PID.TID 0000.0001)                 3.013593857228136E+05,      /* I = 81 */
(PID.TID 0000.0001)                 3.007982711627968E+05,      /* I = 82 */
(PID.TID 0000.0001)                 2.991142470004740E+05,      /* I = 83 */
(PID.TID 0000.0001)                 2.963038832565530E+05,      /* I = 84 */
(PID.TID 0000.0001)                 2.923599955312932E+05,      /* I = 85 */
(PID.TID 0000.0001)                 2.872689479506989E+05,      /* I = 86 */
(PID.TID 0000.0001)                 2.810065951609633E+05,      /* I = 87 */
(PID.TID 0000.0001)                 2.735321911346108E+05,      /* I = 88 */
(PID.TID 0000.0001)                 2.647791839299727E+05,      /* I = 89 */
(PID.TID 0000.0001)                 2.546408290696998E+05,      /* I = 90 */
(PID.TID 0000.0001)                 2.429464709770498E+05,      /* I = 91 */
(PID.TID 0000.0001)                 2.294195678257306E+05,      /* I = 92 */
(PID.TID 0000.0001)                 2.135964483342134E+05,      /* I = 93 */
(PID.TID 0000.0001)                 1.946503699269892E+05,      /* I = 94 */
(PID.TID 0000.0001)                 1.709574999026266E+05,      /* I = 95 */
(PID.TID 0000.0001)                 1.391343389937105E+05,      /* I = 96 */
(PID.TID 0000.0001)                 1.114203141013064E+05,      /* I = 97 */
(PID.TID 0000.0001)                 1.391343389937105E+05,      /* I = 98 */
(PID.TID 0000.0001)                 1.709574999026266E+05,      /* I = 99 */
(PID.TID 0000.0001)                 1.946503699269892E+05,      /* I =100 */
(PID.TID 0000.0001)                 2.135964483342134E+05,      /* I =101 */
(PID.TID 0000.0001)                 2.294195678257306E+05,      /* I =102 */
(PID.TID 0000.0001)                 2.429464709770498E+05,      /* I =103 */
(PID.TID 0000.0001)                 2.546408290696998E+05,      /* I =104 */
(PID.TID 0000.0001)                 2.647791839299727E+05,      /* I =105 */
(PID.TID 0000.0001)                 2.735321911346108E+05,      /* I =106 */
(PID.TID 0000.0001)                 2.810065951609633E+05,      /* I =107 */
(PID.TID 0000.0001)                 2.872689479506989E+05,      /* I =108 */
(PID.TID 0000.0001)                 2.923599955312932E+05,      /* I =109 */
(PID.TID 0000.0001)                 2.963038832565530E+05,      /* I =110 */
(PID.TID 0000.0001)                 2.991142470004740E+05,      /* I =111 */
(PID.TID 0000.0001)                 3.007982711627968E+05,      /* I =112 */
(PID.TID 0000.0001)                 3.013593857228136E+05,      /* I =113 */
(PID.TID 0000.0001)                 3.007982711627968E+05,      /* I =114 */
(PID.TID 0000.0001)                 2.991142470004740E+05,      /* I =115 */
(PID.TID 0000.0001)                 2.963038832565530E+05,      /* I =116 */
(PID.TID 0000.0001)                 2.923599955312932E+05,      /* I =117 */
(PID.TID 0000.0001)                 2.872689479506989E+05,      /* I =118 */
(PID.TID 0000.0001)                 2.810065951609633E+05,      /* I =119 */
(PID.TID 0000.0001)                 2.735321911346108E+05,      /* I =120 */
(PID.TID 0000.0001)                 2.647791839299727E+05,      /* I =121 */
(PID.TID 0000.0001)                 2.546408290696998E+05,      /* I =122 */
(PID.TID 0000.0001)                 2.429464709770498E+05,      /* I =123 */
(PID.TID 0000.0001)                 2.294195678257306E+05,      /* I =124 */
(PID.TID 0000.0001)                 2.135964483342134E+05,      /* I =125 */
(PID.TID 0000.0001)                 1.946503699269892E+05,      /* I =126 */
(PID.TID 0000.0001)                 1.709574999026266E+05,      /* I =127 */
(PID.TID 0000.0001)                 1.391343389937105E+05,      /* I =128 */
(PID.TID 0000.0001)                 1.114203141013064E+05,      /* I =129 */
(PID.TID 0000.0001)                 1.391343389937105E+05,      /* I =130 */
(PID.TID 0000.0001)                 1.709574999026266E+05,      /* I =131 */
(PID.TID 0000.0001)                 1.946503699269892E+05,      /* I =132 */
(PID.TID 0000.0001)                 2.135964483342134E+05,      /* I =133 */
(PID.TID 0000.0001)                 2.294195678257306E+05,      /* I =134 */
(PID.TID 0000.0001)                 2.429464709770498E+05,      /* I =135 */
(PID.TID 0000.0001)                 2.546408290696998E+05,      /* I =136 */
(PID.TID 0000.0001)                 2.647791839299727E+05,      /* I =137 */
(PID.TID 0000.0001)                 2.735321911346108E+05,      /* I =138 */
(PID.TID 0000.0001)                 2.810065951609633E+05,      /* I =139 */
(PID.TID 0000.0001)                 2.872689479506989E+05,      /* I =140 */
(PID.TID 0000.0001)                 2.923599955312932E+05,      /* I =141 */
(PID.TID 0000.0001)                 2.963038832565530E+05,      /* I =142 */
(PID.TID 0000.0001)                 2.991142470004740E+05,      /* I =143 */
(PID.TID 0000.0001)                 3.007982711627968E+05,      /* I =144 */
(PID.TID 0000.0001)                 3.013593857228136E+05,      /* I =145 */
(PID.TID 0000.0001)                 3.007982711627968E+05,      /* I =146 */
(PID.TID 0000.0001)                 2.991142470004740E+05,      /* I =147 */
(PID.TID 0000.0001)                 2.963038832565530E+05,      /* I =148 */
(PID.TID 0000.0001)                 2.923599955312932E+05,      /* I =149 */
(PID.TID 0000.0001)                 2.872689479506989E+05,      /* I =150 */
(PID.TID 0000.0001)                 2.810065951609633E+05,      /* I =151 */
(PID.TID 0000.0001)                 2.735321911346108E+05,      /* I =152 */
(PID.TID 0000.0001)                 2.647791839299727E+05,      /* I =153 */
(PID.TID 0000.0001)                 2.546408290696998E+05,      /* I =154 */
(PID.TID 0000.0001)                 2.429464709770498E+05,      /* I =155 */
(PID.TID 0000.0001)                 2.294195678257306E+05,      /* I =156 */
(PID.TID 0000.0001)                 2.135964483342134E+05,      /* I =157 */
(PID.TID 0000.0001)                 1.946503699269892E+05,      /* I =158 */
(PID.TID 0000.0001)                 1.709574999026266E+05,      /* I =159 */
(PID.TID 0000.0001)                 1.391343389937105E+05,      /* I =160 */
(PID.TID 0000.0001)                 1.114203141013064E+05,      /* I =161 */
(PID.TID 0000.0001)                 1.391343389937105E+05,      /* I =162 */
(PID.TID 0000.0001)                 1.709574999026266E+05,      /* I =163 */
(PID.TID 0000.0001)                 1.946503699269892E+05,      /* I =164 */
(PID.TID 0000.0001)                 2.135964483342134E+05,      /* I =165 */
(PID.TID 0000.0001)                 2.294195678257306E+05,      /* I =166 */
(PID.TID 0000.0001)                 2.429464709770498E+05,      /* I =167 */
(PID.TID 0000.0001)                 2.546408290696998E+05,      /* I =168 */
(PID.TID 0000.0001)                 2.647791839299727E+05,      /* I =169 */
(PID.TID 0000.0001)                 2.735321911346108E+05,      /* I =170 */
(PID.TID 0000.0001)                 2.810065951609633E+05,      /* I =171 */
(PID.TID 0000.0001)                 2.872689479506989E+05,      /* I =172 */
(PID.TID 0000.0001)                 2.923599955312932E+05,      /* I =173 */
(PID.TID 0000.0001)                 2.963038832565530E+05,      /* I =174 */
(PID.TID 0000.0001)                 2.991142470004740E+05,      /* I =175 */
(PID.TID 0000.0001)                 3.007982711627968E+05,      /* I =176 */
(PID.TID 0000.0001)                 3.013593857228136E+05,      /* I =177 */
(PID.TID 0000.0001)                 3.007982711627968E+05,      /* I =178 */
(PID.TID 0000.0001)                 2.991142470004740E+05,      /* I =179 */
(PID.TID 0000.0001)                 2.963038832565530E+05,      /* I =180 */
(PID.TID 0000.0001)                 2.923599955312932E+05,      /* I =181 */
(PID.TID 0000.0001)                 2.872689479506989E+05,      /* I =182 */
(PID.TID 0000.0001)                 2.810065951609633E+05,      /* I =183 */
(PID.TID 0000.0001)                 2.735321911346108E+05,      /* I =184 */
(PID.TID 0000.0001)                 2.647791839299727E+05,      /* I =185 */
(PID.TID 0000.0001)                 2.546408290696998E+05,      /* I =186 */
(PID.TID 0000.0001)                 2.429464709770498E+05,      /* I =187 */
(PID.TID 0000.0001)                 2.294195678257306E+05,      /* I =188 */
(PID.TID 0000.0001)                 2.135964483342134E+05,      /* I =189 */
(PID.TID 0000.0001)                 1.946503699269892E+05,      /* I =190 */
(PID.TID 0000.0001)                 1.709574999026266E+05,      /* I =191 */
(PID.TID 0000.0001)                 1.391343389937105E+05       /* I =192 */
(PID.TID 0000.0001)     ;
(PID.TID 0000.0001) dxC =  /* dxC(1,:,1,:) ( m - cartesian, degrees - spherical ) */
(PID.TID 0000.0001)                 1.114203141013064E+05,      /* J =  1 */
(PID.TID 0000.0001)                 1.549545757850771E+05,      /* J =  2 */
(PID.TID 0000.0001)                 1.829777599966776E+05,      /* J =  3 */
(PID.TID 0000.0001)                 2.042717761866505E+05,      /* J =  4 */
(PID.TID 0000.0001)                 2.216367828252819E+05,      /* J =  5 */
(PID.TID 0000.0001)                 2.363029564123586E+05,      /* J =  6 */
(PID.TID 0000.0001)                 2.489113743322025E+05,      /* J =  7 */
(PID.TID 0000.0001)                 2.598293319150326E+05,      /* J =  8 */
(PID.TID 0000.0001)                 2.692787333338535E+05,      /* J =  9 */
(PID.TID 0000.0001)                 2.773972106720365E+05,      /* J = 10 */
(PID.TID 0000.0001)                 2.842706922224557E+05,      /* J = 11 */
(PID.TID 0000.0001)                 2.899523122489403E+05,      /* J = 12 */
(PID.TID 0000.0001)                 2.944741346384699E+05,      /* J = 13 */
(PID.TID 0000.0001)                 2.978547649292580E+05,      /* J = 14 */
(PID.TID 0000.0001)                 3.001044073506459E+05,      /* J = 15 */
(PID.TID 0000.0001)     2 @  3.012281885409289E+05,             /* J = 16: 17 */
(PID.TID 0000.0001)                 3.001044073506459E+05,      /* J = 18 */
(PID.TID 0000.0001)                 2.978547649292580E+05,      /* J = 19 */
(PID.TID 0000.0001)                 2.944741346384699E+05,      /* J = 20 */
(PID.TID 0000.0001)                 2.899523122489403E+05,      /* J = 21 */
(PID.TID 0000.0001)                 2.842706922224557E+05,      /* J = 22 */
(PID.TID 0000.0001)                 2.773972106720365E+05,      /* J = 23 */
(PID.TID 0000.0001)                 2.692787333338535E+05,      /* J = 24 */
(PID.TID 0000.0001)                 2.598293319150326E+05,      /* J = 25 */
(PID.TID 0000.0001)                 2.489113743322025E+05,      /* J = 26 */
(PID.TID 0000.0001)                 2.363029564123586E+05,      /* J = 27 */
(PID.TID 0000.0001)                 2.216367828252819E+05,      /* J = 28 */
(PID.TID 0000.0001)                 2.042717761866505E+05,      /* J = 29 */
(PID.TID 0000.0001)                 1.829777599966776E+05,      /* J = 30 */
(PID.TID 0000.0001)                 1.549545757850771E+05,      /* J = 31 */
(PID.TID 0000.0001)                 1.114203141013064E+05       /* J = 32 */
(PID.TID 0000.0001)     ;
(PID.TID 0000.0001) dyC =  /* dyC(:,1,:,1) ( m - cartesian, degrees - spherical ) */
(PID.TID 0000.0001)                 1.114203141013064E+05,      /* I =  1 */
(PID.TID 0000.0001)                 1.549545757850771E+05,      /* I =  2 */
(PID.TID 0000.0001)                 1.829777599966776E+05,      /* I =  3 */
(PID.TID 0000.0001)                 2.042717761866505E+05,      /* I =  4 */
(PID.TID 0000.0001)                 2.216367828252819E+05,      /* I =  5 */
(PID.TID 0000.0001)                 2.363029564123586E+05,      /* I =  6 */
(PID.TID 0000.0001)                 2.489113743322025E+05,      /* I =  7 */
(PID.TID 0000.0001)                 2.598293319150326E+05,      /* I =  8 */
(PID.TID 0000.0001)                 2.692787333338535E+05,      /* I =  9 */
(PID.TID 0000.0001)                 2.773972106720365E+05,      /* I = 10 */
(PID.TID 0000.0001)                 2.842706922224557E+05,      /* I = 11 */
(PID.TID 0000.0001)                 2.899523122489403E+05,      /* I = 12 */
(PID.TID 0000.0001)                 2.944741346384699E+05,      /* I = 13 */
(PID.TID 0000.0001)                 2.978547649292580E+05,      /* I = 14 */
(PID.TID 0000.0001)                 3.001044073506459E+05,      /* I = 15 */
(PID.TID 0000.0001)     2 @  3.012281885409289E+05,             /* I = 16: 17 */
(PID.TID 0000.0001)                 3.001044073506459E+05,      /* I = 18 */
(PID.TID 0000.0001)                 2.978547649292580E+05,      /* I = 19 */
(PID.TID 0000.0001)                 2.944741346384699E+05,      /* I = 20 */
(PID.TID 0000.0001)                 2.899523122489403E+05,      /* I = 21 */
(PID.TID 0000.0001)                 2.842706922224557E+05,      /* I = 22 */
(PID.TID 0000.0001)                 2.773972106720365E+05,      /* I = 23 */
(PID.TID 0000.0001)                 2.692787333338535E+05,      /* I = 24 */
(PID.TID 0000.0001)                 2.598293319150326E+05,      /* I = 25 */
(PID.TID 0000.0001)                 2.489113743322025E+05,      /* I = 26 */
(PID.TID 0000.0001)                 2.363029564123586E+05,      /* I = 27 */
(PID.TID 0000.0001)                 2.216367828252819E+05,      /* I = 28 */
(PID.TID 0000.0001)                 2.042717761866505E+05,      /* I = 29 */
(PID.TID 0000.0001)                 1.829777599966776E+05,      /* I = 30 */
(PID.TID 0000.0001)                 1.549545757850771E+05,      /* I = 31 */
(PID.TID 0000.0001)     2 @  1.114203141013064E+05,             /* I = 32: 33 */
(PID.TID 0000.0001)                 1.549545757850771E+05,      /* I = 34 */
(PID.TID 0000.0001)                 1.829777599966776E+05,      /* I = 35 */
(PID.TID 0000.0001)                 2.042717761866505E+05,      /* I = 36 */
(PID.TID 0000.0001)                 2.216367828252819E+05,      /* I = 37 */
(PID.TID 0000.0001)                 2.363029564123586E+05,      /* I = 38 */
(PID.TID 0000.0001)                 2.489113743322025E+05,      /* I = 39 */
(PID.TID 0000.0001)                 2.598293319150326E+05,      /* I = 40 */
(PID.TID 0000.0001)                 2.692787333338535E+05,      /* I = 41 */
(PID.TID 0000.0001)                 2.773972106720365E+05,      /* I = 42 */
(PID.TID 0000.0001)                 2.842706922224557E+05,      /* I = 43 */
(PID.TID 0000.0001)                 2.899523122489403E+05,      /* I = 44 */
(PID.TID 0000.0001)                 2.944741346384699E+05,      /* I = 45 */
(PID.TID 0000.0001)                 2.978547649292580E+05,      /* I = 46 */
(PID.TID 0000.0001)                 3.001044073506459E+05,      /* I = 47 */
(PID.TID 0000.0001)     2 @  3.012281885409289E+05,             /* I = 48: 49 */
(PID.TID 0000.0001)                 3.001044073506459E+05,      /* I = 50 */
(PID.TID 0000.0001)                 2.978547649292580E+05,      /* I = 51 */
(PID.TID 0000.0001)                 2.944741346384699E+05,      /* I = 52 */
(PID.TID 0000.0001)                 2.899523122489403E+05,      /* I = 53 */
(PID.TID 0000.0001)                 2.842706922224557E+05,      /* I = 54 */
(PID.TID 0000.0001)                 2.773972106720365E+05,      /* I = 55 */
(PID.TID 0000.0001)                 2.692787333338535E+05,      /* I = 56 */
(PID.TID 0000.0001)                 2.598293319150326E+05,      /* I = 57 */
(PID.TID 0000.0001)                 2.489113743322025E+05,      /* I = 58 */
(PID.TID 0000.0001)                 2.363029564123586E+05,      /* I = 59 */
(PID.TID 0000.0001)                 2.216367828252819E+05,      /* I = 60 */
(PID.TID 0000.0001)                 2.042717761866505E+05,      /* I = 61 */
(PID.TID 0000.0001)                 1.829777599966776E+05,      /* I = 62 */
(PID.TID 0000.0001)                 1.549545757850771E+05,      /* I = 63 */
(PID.TID 0000.0001)     2 @  1.114203141013064E+05,             /* I = 64: 65 */
(PID.TID 0000.0001)                 1.549545757850771E+05,      /* I = 66 */
(PID.TID 0000.0001)                 1.829777599966776E+05,      /* I = 67 */
(PID.TID 0000.0001)                 2.042717761866505E+05,      /* I = 68 */
(PID.TID 0000.0001)                 2.216367828252819E+05,      /* I = 69 */
(PID.TID 0000.0001)                 2.363029564123586E+05,      /* I = 70 */
(PID.TID 0000.0001)                 2.489113743322025E+05,      /* I = 71 */
(PID.TID 0000.0001)                 2.598293319150326E+05,      /* I = 72 */
(PID.TID 0000.0001)                 2.692787333338535E+05,      /* I = 73 */
(PID.TID 0000.0001)                 2.773972106720365E+05,      /* I = 74 */
(PID.TID 0000.0001)                 2.842706922224557E+05,      /* I = 75 */
(PID.TID 0000.0001)                 2.899523122489403E+05,      /* I = 76 */
(PID.TID 0000.0001)                 2.944741346384699E+05,      /* I = 77 */
(PID.TID 0000.0001)                 2.978547649292580E+05,      /* I = 78 */
(PID.TID 0000.0001)                 3.001044073506459E+05,      /* I = 79 */
(PID.TID 0000.0001)     2 @  3.012281885409289E+05,             /* I = 80: 81 */
(PID.TID 0000.0001)                 3.001044073506459E+05,      /* I = 82 */
(PID.TID 0000.0001)                 2.978547649292580E+05,      /* I = 83 */
(PID.TID 0000.0001)                 2.944741346384699E+05,      /* I = 84 */
(PID.TID 0000.0001)                 2.899523122489403E+05,      /* I = 85 */
(PID.TID 0000.0001)                 2.842706922224557E+05,      /* I = 86 */
(PID.TID 0000.0001)                 2.773972106720365E+05,      /* I = 87 */
(PID.TID 0000.0001)                 2.692787333338535E+05,      /* I = 88 */
(PID.TID 0000.0001)                 2.598293319150326E+05,      /* I = 89 */
(PID.TID 0000.0001)                 2.489113743322025E+05,      /* I = 90 */
(PID.TID 0000.0001)                 2.363029564123586E+05,      /* I = 91 */
(PID.TID 0000.0001)                 2.216367828252819E+05,      /* I = 92 */
(PID.TID 0000.0001)                 2.042717761866505E+05,      /* I = 93 */
(PID.TID 0000.0001)                 1.829777599966776E+05,      /* I = 94 */
(PID.TID 0000.0001)                 1.549545757850771E+05,      /* I = 95 */
(PID.TID 0000.0001)     2 @  1.114203141013064E+05,             /* I = 96: 97 */
(PID.TID 0000.0001)                 1.549545757850771E+05,      /* I = 98 */
(PID.TID 0000.0001)                 1.829777599966776E+05,      /* I = 99 */
(PID.TID 0000.0001)                 2.042717761866505E+05,      /* I =100 */
(PID.TID 0000.0001)                 2.216367828252819E+05,      /* I =101 */
(PID.TID 0000.0001)                 2.363029564123586E+05,      /* I =102 */
(PID.TID 0000.0001)                 2.489113743322025E+05,      /* I =103 */
(PID.TID 0000.0001)                 2.598293319150326E+05,      /* I =104 */
(PID.TID 0000.0001)                 2.692787333338535E+05,      /* I =105 */
(PID.TID 0000.0001)                 2.773972106720365E+05,      /* I =106 */
(PID.TID 0000.0001)                 2.842706922224557E+05,      /* I =107 */
(PID.TID 0000.0001)                 2.899523122489403E+05,      /* I =108 */
(PID.TID 0000.0001)                 2.944741346384699E+05,      /* I =109 */
(PID.TID 0000.0001)                 2.978547649292580E+05,      /* I =110 */
(PID.TID 0000.0001)                 3.001044073506459E+05,      /* I =111 */
(PID.TID 0000.0001)     2 @  3.012281885409289E+05,             /* I =112:113 */
(PID.TID 0000.0001)                 3.001044073506459E+05,      /* I =114 */
(PID.TID 0000.0001)                 2.978547649292580E+05,      /* I =115 */
(PID.TID 0000.0001)                 2.944741346384699E+05,      /* I =116 */
(PID.TID 0000.0001)                 2.899523122489403E+05,      /* I =117 */
(PID.TID 0000.0001)                 2.842706922224557E+05,      /* I =118 */
(PID.TID 0000.0001)                 2.773972106720365E+05,      /* I =119 */
(PID.TID 0000.0001)                 2.692787333338535E+05,      /* I =120 */
(PID.TID 0000.0001)                 2.598293319150326E+05,      /* I =121 */
(PID.TID 0000.0001)                 2.489113743322025E+05,      /* I =122 */
(PID.TID 0000.0001)                 2.363029564123586E+05,      /* I =123 */
(PID.TID 0000.0001)                 2.216367828252819E+05,      /* I =124 */
(PID.TID 0000.0001)                 2.042717761866505E+05,      /* I =125 */
(PID.TID 0000.0001)                 1.829777599966776E+05,      /* I =126 */
(PID.TID 0000.0001)                 1.549545757850771E+05,      /* I =127 */
(PID.TID 0000.0001)     2 @  1.114203141013064E+05,             /* I =128:129 */
(PID.TID 0000.0001)                 1.549545757850771E+05,      /* I =130 */
(PID.TID 0000.0001)                 1.829777599966776E+05,      /* I =131 */
(PID.TID 0000.0001)                 2.042717761866505E+05,      /* I =132 */
(PID.TID 0000.0001)                 2.216367828252819E+05,      /* I =133 */
(PID.TID 0000.0001)                 2.363029564123586E+05,      /* I =134 */
(PID.TID 0000.0001)                 2.489113743322025E+05,      /* I =135 */
(PID.TID 0000.0001)                 2.598293319150326E+05,      /* I =136 */
(PID.TID 0000.0001)                 2.692787333338535E+05,      /* I =137 */
(PID.TID 0000.0001)                 2.773972106720365E+05,      /* I =138 */
(PID.TID 0000.0001)                 2.842706922224557E+05,      /* I =139 */
(PID.TID 0000.0001)                 2.899523122489403E+05,      /* I =140 */
(PID.TID 0000.0001)                 2.944741346384699E+05,      /* I =141 */
(PID.TID 0000.0001)                 2.978547649292580E+05,      /* I =142 */
(PID.TID 0000.0001)                 3.001044073506459E+05,      /* I =143 */
(PID.TID 0000.0001)     2 @  3.012281885409289E+05,             /* I =144:145 */
(PID.TID 0000.0001)                 3.001044073506459E+05,      /* I =146 */
(PID.TID 0000.0001)                 2.978547649292580E+05,      /* I =147 */
(PID.TID 0000.0001)                 2.944741346384699E+05,      /* I =148 */
(PID.TID 0000.0001)                 2.899523122489403E+05,      /* I =149 */
(PID.TID 0000.0001)                 2.842706922224557E+05,      /* I =150 */
(PID.TID 0000.0001)                 2.773972106720365E+05,      /* I =151 */
(PID.TID 0000.0001)                 2.692787333338535E+05,      /* I =152 */
(PID.TID 0000.0001)                 2.598293319150326E+05,      /* I =153 */
(PID.TID 0000.0001)                 2.489113743322025E+05,      /* I =154 */
(PID.TID 0000.0001)                 2.363029564123586E+05,      /* I =155 */
(PID.TID 0000.0001)                 2.216367828252819E+05,      /* I =156 */
(PID.TID 0000.0001)                 2.042717761866505E+05,      /* I =157 */
(PID.TID 0000.0001)                 1.829777599966776E+05,      /* I =158 */
(PID.TID 0000.0001)                 1.549545757850771E+05,      /* I =159 */
(PID.TID 0000.0001)     2 @  1.114203141013064E+05,             /* I =160:161 */
(PID.TID 0000.0001)                 1.549545757850771E+05,      /* I =162 */
(PID.TID 0000.0001)                 1.829777599966776E+05,      /* I =163 */
(PID.TID 0000.0001)                 2.042717761866505E+05,      /* I =164 */
(PID.TID 0000.0001)                 2.216367828252819E+05,      /* I =165 */
(PID.TID 0000.0001)                 2.363029564123586E+05,      /* I =166 */
(PID.TID 0000.0001)                 2.489113743322025E+05,      /* I =167 */
(PID.TID 0000.0001)                 2.598293319150326E+05,      /* I =168 */
(PID.TID 0000.0001)                 2.692787333338535E+05,      /* I =169 */
(PID.TID 0000.0001)                 2.773972106720365E+05,      /* I =170 */
(PID.TID 0000.0001)                 2.842706922224557E+05,      /* I =171 */
(PID.TID 0000.0001)                 2.899523122489403E+05,      /* I =172 */
(PID.TID 0000.0001)                 2.944741346384699E+05,      /* I =173 */
(PID.TID 0000.0001)                 2.978547649292580E+05,      /* I =174 */
(PID.TID 0000.0001)                 3.001044073506459E+05,      /* I =175 */
(PID.TID 0000.0001)     2 @  3.012281885409289E+05,             /* I =176:177 */
(PID.TID 0000.0001)                 3.001044073506459E+05,      /* I =178 */
(PID.TID 0000.0001)                 2.978547649292580E+05,      /* I =179 */
(PID.TID 0000.0001)                 2.944741346384699E+05,      /* I =180 */
(PID.TID 0000.0001)                 2.899523122489403E+05,      /* I =181 */
(PID.TID 0000.0001)                 2.842706922224557E+05,      /* I =182 */
(PID.TID 0000.0001)                 2.773972106720365E+05,      /* I =183 */
(PID.TID 0000.0001)                 2.692787333338535E+05,      /* I =184 */
(PID.TID 0000.0001)                 2.598293319150326E+05,      /* I =185 */
(PID.TID 0000.0001)                 2.489113743322025E+05,      /* I =186 */
(PID.TID 0000.0001)                 2.363029564123586E+05,      /* I =187 */
(PID.TID 0000.0001)                 2.216367828252819E+05,      /* I =188 */
(PID.TID 0000.0001)                 2.042717761866505E+05,      /* I =189 */
(PID.TID 0000.0001)                 1.829777599966776E+05,      /* I =190 */
(PID.TID 0000.0001)                 1.549545757850771E+05,      /* I =191 */
(PID.TID 0000.0001)                 1.114203141013064E+05       /* I =192 */
(PID.TID 0000.0001)     ;
(PID.TID 0000.0001) dyC =  /* dyC(1,:,1,:) ( m - cartesian, degrees - spherical ) */
(PID.TID 0000.0001)                 1.114203141013064E+05,      /* J =  1 */
(PID.TID 0000.0001)                 1.391343389937105E+05,      /* J =  2 */
(PID.TID 0000.0001)                 1.709574999026266E+05,      /* J =  3 */
(PID.TID 0000.0001)                 1.946503699269892E+05,      /* J =  4 */
(PID.TID 0000.0001)                 2.135964483342134E+05,      /* J =  5 */
(PID.TID 0000.0001)                 2.294195678257306E+05,      /* J =  6 */
(PID.TID 0000.0001)                 2.429464709770498E+05,      /* J =  7 */
(PID.TID 0000.0001)                 2.546408290696998E+05,      /* J =  8 */
(PID.TID 0000.0001)                 2.647791839299727E+05,      /* J =  9 */
(PID.TID 0000.0001)                 2.735321911346108E+05,      /* J = 10 */
(PID.TID 0000.0001)                 2.810065951609633E+05,      /* J = 11 */
(PID.TID 0000.0001)                 2.872689479506989E+05,      /* J = 12 */
(PID.TID 0000.0001)                 2.923599955312932E+05,      /* J = 13 */
(PID.TID 0000.0001)                 2.963038832565530E+05,      /* J = 14 */
(PID.TID 0000.0001)                 2.991142470004740E+05,      /* J = 15 */
(PID.TID 0000.0001)                 3.007982711627968E+05,      /* J = 16 */
(PID.TID 0000.0001)                 3.013593857228136E+05,      /* J = 17 */
(PID.TID 0000.0001)                 3.007982711627968E+05,      /* J = 18 */
(PID.TID 0000.0001)                 2.991142470004740E+05,      /* J = 19 */
(PID.TID 0000.0001)                 2.963038832565530E+05,      /* J = 20 */
(PID.TID 0000.0001)                 2.923599955312932E+05,      /* J = 21 */
(PID.TID 0000.0001)                 2.872689479506989E+05,      /* J = 22 */
(PID.TID 0000.0001)                 2.810065951609633E+05,      /* J = 23 */
(PID.TID 0000.0001)                 2.735321911346108E+05,      /* J = 24 */
(PID.TID 0000.0001)                 2.647791839299727E+05,      /* J = 25 */
(PID.TID 0000.0001)                 2.546408290696998E+05,      /* J = 26 */
(PID.TID 0000.0001)                 2.429464709770498E+05,      /* J = 27 */
(PID.TID 0000.0001)                 2.294195678257306E+05,      /* J = 28 */
(PID.TID 0000.0001)                 2.135964483342134E+05,      /* J = 29 */
(PID.TID 0000.0001)                 1.946503699269892E+05,      /* J = 30 */
(PID.TID 0000.0001)                 1.709574999026266E+05,      /* J = 31 */
(PID.TID 0000.0001)                 1.391343389937105E+05       /* J = 32 */
(PID.TID 0000.0001)     ;
(PID.TID 0000.0001) dxV =  /* dxV(:,1,:,1) ( m - cartesian, degrees - spherical ) */
(PID.TID 0000.0001)                 8.015229982413632E+04,      /* I =  1 */
(PID.TID 0000.0001)                 1.333130744933864E+05,      /* I =  2 */
(PID.TID 0000.0001)                 1.691744868129062E+05,      /* I =  3 */
(PID.TID 0000.0001)                 1.937548202849059E+05,      /* I =  4 */
(PID.TID 0000.0001)                 2.130490056267208E+05,      /* I =  5 */
(PID.TID 0000.0001)                 2.290479919481738E+05,      /* I =  6 */
(PID.TID 0000.0001)                 2.426774358027004E+05,      /* I =  7 */
(PID.TID 0000.0001)                 2.544372984215561E+05,      /* I =  8 */
(PID.TID 0000.0001)                 2.646201463834826E+05,      /* I =  9 */
(PID.TID 0000.0001)                 2.734046499619030E+05,      /* I = 10 */
(PID.TID 0000.0001)                 2.809019351693761E+05,      /* I = 11 */
(PID.TID 0000.0001)                 2.871811105274442E+05,      /* I = 12 */
(PID.TID 0000.0001)                 2.922844849381675E+05,      /* I = 13 */
(PID.TID 0000.0001)                 2.962371870847826E+05,      /* I = 14 */
(PID.TID 0000.0001)                 2.990534755671296E+05,      /* I = 15 */
(PID.TID 0000.0001)                 3.007409169495504E+05,      /* I = 16 */
(PID.TID 0000.0001)                 3.013031486919771E+05,      /* I = 17 */
(PID.TID 0000.0001)                 3.007409169495504E+05,      /* I = 18 */
(PID.TID 0000.0001)                 2.990534755671296E+05,      /* I = 19 */
(PID.TID 0000.0001)                 2.962371870847826E+05,      /* I = 20 */
(PID.TID 0000.0001)                 2.922844849381675E+05,      /* I = 21 */
(PID.TID 0000.0001)                 2.871811105274442E+05,      /* I = 22 */
(PID.TID 0000.0001)                 2.809019351693761E+05,      /* I = 23 */
(PID.TID 0000.0001)                 2.734046499619030E+05,      /* I = 24 */
(PID.TID 0000.0001)                 2.646201463834826E+05,      /* I = 25 */
(PID.TID 0000.0001)                 2.544372984215561E+05,      /* I = 26 */
(PID.TID 0000.0001)                 2.426774358027004E+05,      /* I = 27 */
(PID.TID 0000.0001)                 2.290479919481738E+05,      /* I = 28 */
(PID.TID 0000.0001)                 2.130490056267208E+05,      /* I = 29 */
(PID.TID 0000.0001)                 1.937548202849059E+05,      /* I = 30 */
(PID.TID 0000.0001)                 1.691744868129062E+05,      /* I = 31 */
(PID.TID 0000.0001)                 1.333130744933864E+05,      /* I = 32 */
(PID.TID 0000.0001)                 8.015229982413632E+04,      /* I = 33 */
(PID.TID 0000.0001)                 1.333130744933864E+05,      /* I = 34 */
(PID.TID 0000.0001)                 1.691744868129062E+05,      /* I = 35 */
(PID.TID 0000.0001)                 1.937548202849059E+05,      /* I = 36 */
(PID.TID 0000.0001)                 2.130490056267208E+05,      /* I = 37 */
(PID.TID 0000.0001)                 2.290479919481738E+05,      /* I = 38 */
(PID.TID 0000.0001)                 2.426774358027004E+05,      /* I = 39 */
(PID.TID 0000.0001)                 2.544372984215561E+05,      /* I = 40 */
(PID.TID 0000.0001)                 2.646201463834826E+05,      /* I = 41 */
(PID.TID 0000.0001)                 2.734046499619030E+05,      /* I = 42 */
(PID.TID 0000.0001)                 2.809019351693761E+05,      /* I = 43 */
(PID.TID 0000.0001)                 2.871811105274442E+05,      /* I = 44 */
(PID.TID 0000.0001)                 2.922844849381675E+05,      /* I = 45 */
(PID.TID 0000.0001)                 2.962371870847826E+05,      /* I = 46 */
(PID.TID 0000.0001)                 2.990534755671296E+05,      /* I = 47 */
(PID.TID 0000.0001)                 3.007409169495504E+05,      /* I = 48 */
(PID.TID 0000.0001)                 3.013031486919771E+05,      /* I = 49 */
(PID.TID 0000.0001)                 3.007409169495504E+05,      /* I = 50 */
(PID.TID 0000.0001)                 2.990534755671296E+05,      /* I = 51 */
(PID.TID 0000.0001)                 2.962371870847826E+05,      /* I = 52 */
(PID.TID 0000.0001)                 2.922844849381675E+05,      /* I = 53 */
(PID.TID 0000.0001)                 2.871811105274442E+05,      /* I = 54 */
(PID.TID 0000.0001)                 2.809019351693761E+05,      /* I = 55 */
(PID.TID 0000.0001)                 2.734046499619030E+05,      /* I = 56 */
(PID.TID 0000.0001)                 2.646201463834826E+05,      /* I = 57 */
(PID.TID 0000.0001)                 2.544372984215561E+05,      /* I = 58 */
(PID.TID 0000.0001)                 2.426774358027004E+05,      /* I = 59 */
(PID.TID 0000.0001)                 2.290479919481738E+05,      /* I = 60 */
(PID.TID 0000.0001)                 2.130490056267208E+05,      /* I = 61 */
(PID.TID 0000.0001)                 1.937548202849059E+05,      /* I = 62 */
(PID.TID 0000.0001)                 1.691744868129062E+05,      /* I = 63 */
(PID.TID 0000.0001)                 1.333130744933864E+05,      /* I = 64 */
(PID.TID 0000.0001)                 8.015229982413632E+04,      /* I = 65 */
(PID.TID 0000.0001)                 1.333130744933864E+05,      /* I = 66 */
(PID.TID 0000.0001)                 1.691744868129062E+05,      /* I = 67 */
(PID.TID 0000.0001)                 1.937548202849059E+05,      /* I = 68 */
(PID.TID 0000.0001)                 2.130490056267208E+05,      /* I = 69 */
(PID.TID 0000.0001)                 2.290479919481738E+05,      /* I = 70 */
(PID.TID 0000.0001)                 2.426774358027004E+05,      /* I = 71 */
(PID.TID 0000.0001)                 2.544372984215561E+05,      /* I = 72 */
(PID.TID 0000.0001)                 2.646201463834826E+05,      /* I = 73 */
(PID.TID 0000.0001)                 2.734046499619030E+05,      /* I = 74 */
(PID.TID 0000.0001)                 2.809019351693761E+05,      /* I = 75 */
(PID.TID 0000.0001)                 2.871811105274442E+05,      /* I = 76 */
(PID.TID 0000.0001)                 2.922844849381675E+05,      /* I = 77 */
(PID.TID 0000.0001)                 2.962371870847826E+05,      /* I = 78 */
(PID.TID 0000.0001)                 2.990534755671296E+05,      /* I = 79 */
(PID.TID 0000.0001)                 3.007409169495504E+05,      /* I = 80 */
(PID.TID 0000.0001)                 3.013031486919771E+05,      /* I = 81 */
(PID.TID 0000.0001)                 3.007409169495504E+05,      /* I = 82 */
(PID.TID 0000.0001)                 2.990534755671296E+05,      /* I = 83 */
(PID.TID 0000.0001)                 2.962371870847826E+05,      /* I = 84 */
(PID.TID 0000.0001)                 2.922844849381675E+05,      /* I = 85 */
(PID.TID 0000.0001)                 2.871811105274442E+05,      /* I = 86 */
(PID.TID 0000.0001)                 2.809019351693761E+05,      /* I = 87 */
(PID.TID 0000.0001)                 2.734046499619030E+05,      /* I = 88 */
(PID.TID 0000.0001)                 2.646201463834826E+05,      /* I = 89 */
(PID.TID 0000.0001)                 2.544372984215561E+05,      /* I = 90 */
(PID.TID 0000.0001)                 2.426774358027004E+05,      /* I = 91 */
(PID.TID 0000.0001)                 2.290479919481738E+05,      /* I = 92 */
(PID.TID 0000.0001)                 2.130490056267208E+05,      /* I = 93 */
(PID.TID 0000.0001)                 1.937548202849059E+05,      /* I = 94 */
(PID.TID 0000.0001)                 1.691744868129062E+05,      /* I = 95 */
(PID.TID 0000.0001)                 1.333130744933864E+05,      /* I = 96 */
(PID.TID 0000.0001)                 8.015229982413632E+04,      /* I = 97 */
(PID.TID 0000.0001)                 1.333130744933864E+05,      /* I = 98 */
(PID.TID 0000.0001)                 1.691744868129062E+05,      /* I = 99 */
(PID.TID 0000.0001)                 1.937548202849059E+05,      /* I =100 */
(PID.TID 0000.0001)                 2.130490056267208E+05,      /* I =101 */
(PID.TID 0000.0001)                 2.290479919481738E+05,      /* I =102 */
(PID.TID 0000.0001)                 2.426774358027004E+05,      /* I =103 */
(PID.TID 0000.0001)                 2.544372984215561E+05,      /* I =104 */
(PID.TID 0000.0001)                 2.646201463834826E+05,      /* I =105 */
(PID.TID 0000.0001)                 2.734046499619030E+05,      /* I =106 */
(PID.TID 0000.0001)                 2.809019351693761E+05,      /* I =107 */
(PID.TID 0000.0001)                 2.871811105274442E+05,      /* I =108 */
(PID.TID 0000.0001)                 2.922844849381675E+05,      /* I =109 */
(PID.TID 0000.0001)                 2.962371870847826E+05,      /* I =110 */
(PID.TID 0000.0001)                 2.990534755671296E+05,      /* I =111 */
(PID.TID 0000.0001)                 3.007409169495504E+05,      /* I =112 */
(PID.TID 0000.0001)                 3.013031486919771E+05,      /* I =113 */
(PID.TID 0000.0001)                 3.007409169495504E+05,      /* I =114 */
(PID.TID 0000.0001)                 2.990534755671296E+05,      /* I =115 */
(PID.TID 0000.0001)                 2.962371870847826E+05,      /* I =116 */
(PID.TID 0000.0001)                 2.922844849381675E+05,      /* I =117 */
(PID.TID 0000.0001)                 2.871811105274442E+05,      /* I =118 */
(PID.TID 0000.0001)                 2.809019351693761E+05,      /* I =119 */
(PID.TID 0000.0001)                 2.734046499619030E+05,      /* I =120 */
(PID.TID 0000.0001)                 2.646201463834826E+05,      /* I =121 */
(PID.TID 0000.0001)                 2.544372984215561E+05,      /* I =122 */
(PID.TID 0000.0001)                 2.426774358027004E+05,      /* I =123 */
(PID.TID 0000.0001)                 2.290479919481738E+05,      /* I =124 */
(PID.TID 0000.0001)                 2.130490056267208E+05,      /* I =125 */
(PID.TID 0000.0001)                 1.937548202849059E+05,      /* I =126 */
(PID.TID 0000.0001)                 1.691744868129062E+05,      /* I =127 */
(PID.TID 0000.0001)                 1.333130744933864E+05,      /* I =128 */
(PID.TID 0000.0001)                 8.015229982413632E+04,      /* I =129 */
(PID.TID 0000.0001)                 1.333130744933864E+05,      /* I =130 */
(PID.TID 0000.0001)                 1.691744868129062E+05,      /* I =131 */
(PID.TID 0000.0001)                 1.937548202849059E+05,      /* I =132 */
(PID.TID 0000.0001)                 2.130490056267208E+05,      /* I =133 */
(PID.TID 0000.0001)                 2.290479919481738E+05,      /* I =134 */
(PID.TID 0000.0001)                 2.426774358027004E+05,      /* I =135 */
(PID.TID 0000.0001)                 2.544372984215561E+05,      /* I =136 */
(PID.TID 0000.0001)                 2.646201463834826E+05,      /* I =137 */
(PID.TID 0000.0001)                 2.734046499619030E+05,      /* I =138 */
(PID.TID 0000.0001)                 2.809019351693761E+05,      /* I =139 */
(PID.TID 0000.0001)                 2.871811105274442E+05,      /* I =140 */
(PID.TID 0000.0001)                 2.922844849381675E+05,      /* I =141 */
(PID.TID 0000.0001)                 2.962371870847826E+05,      /* I =142 */
(PID.TID 0000.0001)                 2.990534755671296E+05,      /* I =143 */
(PID.TID 0000.0001)                 3.007409169495504E+05,      /* I =144 */
(PID.TID 0000.0001)                 3.013031486919771E+05,      /* I =145 */
(PID.TID 0000.0001)                 3.007409169495504E+05,      /* I =146 */
(PID.TID 0000.0001)                 2.990534755671296E+05,      /* I =147 */
(PID.TID 0000.0001)                 2.962371870847826E+05,      /* I =148 */
(PID.TID 0000.0001)                 2.922844849381675E+05,      /* I =149 */
(PID.TID 0000.0001)                 2.871811105274442E+05,      /* I =150 */
(PID.TID 0000.0001)                 2.809019351693761E+05,      /* I =151 */
(PID.TID 0000.0001)                 2.734046499619030E+05,      /* I =152 */
(PID.TID 0000.0001)                 2.646201463834826E+05,      /* I =153 */
(PID.TID 0000.0001)                 2.544372984215561E+05,      /* I =154 */
(PID.TID 0000.0001)                 2.426774358027004E+05,      /* I =155 */
(PID.TID 0000.0001)                 2.290479919481738E+05,      /* I =156 */
(PID.TID 0000.0001)                 2.130490056267208E+05,      /* I =157 */
(PID.TID 0000.0001)                 1.937548202849059E+05,      /* I =158 */
(PID.TID 0000.0001)                 1.691744868129062E+05,      /* I =159 */
(PID.TID 0000.0001)                 1.333130744933864E+05,      /* I =160 */
(PID.TID 0000.0001)                 8.015229982413632E+04,      /* I =161 */
(PID.TID 0000.0001)                 1.333130744933864E+05,      /* I =162 */
(PID.TID 0000.0001)                 1.691744868129062E+05,      /* I =163 */
(PID.TID 0000.0001)                 1.937548202849059E+05,      /* I =164 */
(PID.TID 0000.0001)                 2.130490056267208E+05,      /* I =165 */
(PID.TID 0000.0001)                 2.290479919481738E+05,      /* I =166 */
(PID.TID 0000.0001)                 2.426774358027004E+05,      /* I =167 */
(PID.TID 0000.0001)                 2.544372984215561E+05,      /* I =168 */
(PID.TID 0000.0001)                 2.646201463834826E+05,      /* I =169 */
(PID.TID 0000.0001)                 2.734046499619030E+05,      /* I =170 */
(PID.TID 0000.0001)                 2.809019351693761E+05,      /* I =171 */
(PID.TID 0000.0001)                 2.871811105274442E+05,      /* I =172 */
(PID.TID 0000.0001)                 2.922844849381675E+05,      /* I =173 */
(PID.TID 0000.0001)                 2.962371870847826E+05,      /* I =174 */
(PID.TID 0000.0001)                 2.990534755671296E+05,      /* I =175 */
(PID.TID 0000.0001)                 3.007409169495504E+05,      /* I =176 */
(PID.TID 0000.0001)                 3.013031486919771E+05,      /* I =177 */
(PID.TID 0000.0001)                 3.007409169495504E+05,      /* I =178 */
(PID.TID 0000.0001)                 2.990534755671296E+05,      /* I =179 */
(PID.TID 0000.0001)                 2.962371870847826E+05,      /* I =180 */
(PID.TID 0000.0001)                 2.922844849381675E+05,      /* I =181 */
(PID.TID 0000.0001)                 2.871811105274442E+05,      /* I =182 */
(PID.TID 0000.0001)                 2.809019351693761E+05,      /* I =183 */
(PID.TID 0000.0001)                 2.734046499619030E+05,      /* I =184 */
(PID.TID 0000.0001)                 2.646201463834826E+05,      /* I =185 */
(PID.TID 0000.0001)                 2.544372984215561E+05,      /* I =186 */
(PID.TID 0000.0001)                 2.426774358027004E+05,      /* I =187 */
(PID.TID 0000.0001)                 2.290479919481738E+05,      /* I =188 */
(PID.TID 0000.0001)                 2.130490056267208E+05,      /* I =189 */
(PID.TID 0000.0001)                 1.937548202849059E+05,      /* I =190 */
(PID.TID 0000.0001)                 1.691744868129062E+05,      /* I =191 */
(PID.TID 0000.0001)                 1.333130744933864E+05       /* I =192 */
(PID.TID 0000.0001)     ;
(PID.TID 0000.0001) dxV =  /* dxV(1,:,1,:) ( m - cartesian, degrees - spherical ) */
(PID.TID 0000.0001)                 8.015229982413632E+04,      /* J =  1 */
(PID.TID 0000.0001)                 1.362652340208229E+05,      /* J =  2 */
(PID.TID 0000.0001)                 1.701080315742101E+05,      /* J =  3 */
(PID.TID 0000.0001)                 1.942331448101592E+05,      /* J =  4 */
(PID.TID 0000.0001)                 2.133486626971531E+05,      /* J =  5 */
(PID.TID 0000.0001)                 2.292584591272880E+05,      /* J =  6 */
(PID.TID 0000.0001)                 2.428369969078989E+05,      /* J =  7 */
(PID.TID 0000.0001)                 2.545652950875683E+05,      /* J =  8 */
(PID.TID 0000.0001)                 2.647274964828302E+05,      /* J =  9 */
(PID.TID 0000.0001)                 2.734980225206389E+05,      /* J = 10 */
(PID.TID 0000.0001)                 2.809856491525217E+05,      /* J = 11 */
(PID.TID 0000.0001)                 2.872580915202295E+05,      /* J = 12 */
(PID.TID 0000.0001)                 2.923567890694162E+05,      /* J = 13 */
(PID.TID 0000.0001)                 2.963063101754721E+05,      /* J = 14 */
(PID.TID 0000.0001)                 2.991205495886625E+05,      /* J = 15 */
(PID.TID 0000.0001)                 3.008068453676764E+05,      /* J = 16 */
(PID.TID 0000.0001)                 3.013686170436881E+05,      /* J = 17 */
(PID.TID 0000.0001)                 3.008068453676764E+05,      /* J = 18 */
(PID.TID 0000.0001)                 2.991205495886625E+05,      /* J = 19 */
(PID.TID 0000.0001)                 2.963063101754721E+05,      /* J = 20 */
(PID.TID 0000.0001)                 2.923567890694162E+05,      /* J = 21 */
(PID.TID 0000.0001)                 2.872580915202295E+05,      /* J = 22 */
(PID.TID 0000.0001)                 2.809856491525217E+05,      /* J = 23 */
(PID.TID 0000.0001)                 2.734980225206389E+05,      /* J = 24 */
(PID.TID 0000.0001)                 2.647274964828302E+05,      /* J = 25 */
(PID.TID 0000.0001)                 2.545652950875683E+05,      /* J = 26 */
(PID.TID 0000.0001)                 2.428369969078989E+05,      /* J = 27 */
(PID.TID 0000.0001)                 2.292584591272880E+05,      /* J = 28 */
(PID.TID 0000.0001)                 2.133486626971531E+05,      /* J = 29 */
(PID.TID 0000.0001)                 1.942331448101592E+05,      /* J = 30 */
(PID.TID 0000.0001)                 1.701080315742101E+05,      /* J = 31 */
(PID.TID 0000.0001)                 1.362652340208229E+05       /* J = 32 */
(PID.TID 0000.0001)     ;
(PID.TID 0000.0001) dyU =  /* dyU(:,1,:,1) ( m - cartesian, degrees - spherical ) */
(PID.TID 0000.0001)                 8.015229982413632E+04,      /* I =  1 */
(PID.TID 0000.0001)                 1.362652340208229E+05,      /* I =  2 */
(PID.TID 0000.0001)                 1.701080315742101E+05,      /* I =  3 */
(PID.TID 0000.0001)                 1.942331448101592E+05,      /* I =  4 */
(PID.TID 0000.0001)                 2.133486626971531E+05,      /* I =  5 */
(PID.TID 0000.0001)                 2.292584591272880E+05,      /* I =  6 */
(PID.TID 0000.0001)                 2.428369969078989E+05,      /* I =  7 */
(PID.TID 0000.0001)                 2.545652950875683E+05,      /* I =  8 */
(PID.TID 0000.0001)                 2.647274964828302E+05,      /* I =  9 */
(PID.TID 0000.0001)                 2.734980225206389E+05,      /* I = 10 */
(PID.TID 0000.0001)                 2.809856491525217E+05,      /* I = 11 */
(PID.TID 0000.0001)                 2.872580915202295E+05,      /* I = 12 */
(PID.TID 0000.0001)                 2.923567890694162E+05,      /* I = 13 */
(PID.TID 0000.0001)                 2.963063101754721E+05,      /* I = 14 */
(PID.TID 0000.0001)                 2.991205495886625E+05,      /* I = 15 */
(PID.TID 0000.0001)                 3.008068453676764E+05,      /* I = 16 */
(PID.TID 0000.0001)                 3.013686170436881E+05,      /* I = 17 */
(PID.TID 0000.0001)                 3.008068453676764E+05,      /* I = 18 */
(PID.TID 0000.0001)                 2.991205495886625E+05,      /* I = 19 */
(PID.TID 0000.0001)                 2.963063101754721E+05,      /* I = 20 */
(PID.TID 0000.0001)                 2.923567890694162E+05,      /* I = 21 */
(PID.TID 0000.0001)                 2.872580915202295E+05,      /* I = 22 */
(PID.TID 0000.0001)                 2.809856491525217E+05,      /* I = 23 */
(PID.TID 0000.0001)                 2.734980225206389E+05,      /* I = 24 */
(PID.TID 0000.0001)                 2.647274964828302E+05,      /* I = 25 */
(PID.TID 0000.0001)                 2.545652950875683E+05,      /* I = 26 */
(PID.TID 0000.0001)                 2.428369969078989E+05,      /* I = 27 */
(PID.TID 0000.0001)                 2.292584591272880E+05,      /* I = 28 */
(PID.TID 0000.0001)                 2.133486626971531E+05,      /* I = 29 */
(PID.TID 0000.0001)                 1.942331448101592E+05,      /* I = 30 */
(PID.TID 0000.0001)                 1.701080315742101E+05,      /* I = 31 */
(PID.TID 0000.0001)                 1.362652340208229E+05,      /* I = 32 */
(PID.TID 0000.0001)                 8.015229982413632E+04,      /* I = 33 */
(PID.TID 0000.0001)                 1.362652340208229E+05,      /* I = 34 */
(PID.TID 0000.0001)                 1.701080315742101E+05,      /* I = 35 */
(PID.TID 0000.0001)                 1.942331448101592E+05,      /* I = 36 */
(PID.TID 0000.0001)                 2.133486626971531E+05,      /* I = 37 */
(PID.TID 0000.0001)                 2.292584591272880E+05,      /* I = 38 */
(PID.TID 0000.0001)                 2.428369969078989E+05,      /* I = 39 */
(PID.TID 0000.0001)                 2.545652950875683E+05,      /* I = 40 */
(PID.TID 0000.0001)                 2.647274964828302E+05,      /* I = 41 */
(PID.TID 0000.0001)                 2.734980225206389E+05,      /* I = 42 */
(PID.TID 0000.0001)                 2.809856491525217E+05,      /* I = 43 */
(PID.TID 0000.0001)                 2.872580915202295E+05,      /* I = 44 */
(PID.TID 0000.0001)                 2.923567890694162E+05,      /* I = 45 */
(PID.TID 0000.0001)                 2.963063101754721E+05,      /* I = 46 */
(PID.TID 0000.0001)                 2.991205495886625E+05,      /* I = 47 */
(PID.TID 0000.0001)                 3.008068453676764E+05,      /* I = 48 */
(PID.TID 0000.0001)                 3.013686170436881E+05,      /* I = 49 */
(PID.TID 0000.0001)                 3.008068453676764E+05,      /* I = 50 */
(PID.TID 0000.0001)                 2.991205495886625E+05,      /* I = 51 */
(PID.TID 0000.0001)                 2.963063101754721E+05,      /* I = 52 */
(PID.TID 0000.0001)                 2.923567890694162E+05,      /* I = 53 */
(PID.TID 0000.0001)                 2.872580915202295E+05,      /* I = 54 */
(PID.TID 0000.0001)                 2.809856491525217E+05,      /* I = 55 */
(PID.TID 0000.0001)                 2.734980225206389E+05,      /* I = 56 */
(PID.TID 0000.0001)                 2.647274964828302E+05,      /* I = 57 */
(PID.TID 0000.0001)                 2.545652950875683E+05,      /* I = 58 */
(PID.TID 0000.0001)                 2.428369969078989E+05,      /* I = 59 */
(PID.TID 0000.0001)                 2.292584591272880E+05,      /* I = 60 */
(PID.TID 0000.0001)                 2.133486626971531E+05,      /* I = 61 */
(PID.TID 0000.0001)                 1.942331448101592E+05,      /* I = 62 */
(PID.TID 0000.0001)                 1.701080315742101E+05,      /* I = 63 */
(PID.TID 0000.0001)                 1.362652340208229E+05,      /* I = 64 */
(PID.TID 0000.0001)                 8.015229982413632E+04,      /* I = 65 */
(PID.TID 0000.0001)                 1.362652340208229E+05,      /* I = 66 */
(PID.TID 0000.0001)                 1.701080315742101E+05,      /* I = 67 */
(PID.TID 0000.0001)                 1.942331448101592E+05,      /* I = 68 */
(PID.TID 0000.0001)                 2.133486626971531E+05,      /* I = 69 */
(PID.TID 0000.0001)                 2.292584591272880E+05,      /* I = 70 */
(PID.TID 0000.0001)                 2.428369969078989E+05,      /* I = 71 */
(PID.TID 0000.0001)                 2.545652950875683E+05,      /* I = 72 */
(PID.TID 0000.0001)                 2.647274964828302E+05,      /* I = 73 */
(PID.TID 0000.0001)                 2.734980225206389E+05,      /* I = 74 */
(PID.TID 0000.0001)                 2.809856491525217E+05,      /* I = 75 */
(PID.TID 0000.0001)                 2.872580915202295E+05,      /* I = 76 */
(PID.TID 0000.0001)                 2.923567890694162E+05,      /* I = 77 */
(PID.TID 0000.0001)                 2.963063101754721E+05,      /* I = 78 */
(PID.TID 0000.0001)                 2.991205495886625E+05,      /* I = 79 */
(PID.TID 0000.0001)                 3.008068453676764E+05,      /* I = 80 */
(PID.TID 0000.0001)                 3.013686170436881E+05,      /* I = 81 */
(PID.TID 0000.0001)                 3.008068453676764E+05,      /* I = 82 */
(PID.TID 0000.0001)                 2.991205495886625E+05,      /* I = 83 */
(PID.TID 0000.0001)                 2.963063101754721E+05,      /* I = 84 */
(PID.TID 0000.0001)                 2.923567890694162E+05,      /* I = 85 */
(PID.TID 0000.0001)                 2.872580915202295E+05,      /* I = 86 */
(PID.TID 0000.0001)                 2.809856491525217E+05,      /* I = 87 */
(PID.TID 0000.0001)                 2.734980225206389E+05,      /* I = 88 */
(PID.TID 0000.0001)                 2.647274964828302E+05,      /* I = 89 */
(PID.TID 0000.0001)                 2.545652950875683E+05,      /* I = 90 */
(PID.TID 0000.0001)                 2.428369969078989E+05,      /* I = 91 */
(PID.TID 0000.0001)                 2.292584591272880E+05,      /* I = 92 */
(PID.TID 0000.0001)                 2.133486626971531E+05,      /* I = 93 */
(PID.TID 0000.0001)                 1.942331448101592E+05,      /* I = 94 */
(PID.TID 0000.0001)                 1.701080315742101E+05,      /* I = 95 */
(PID.TID 0000.0001)                 1.362652340208229E+05,      /* I = 96 */
(PID.TID 0000.0001)                 8.015229982413632E+04,      /* I = 97 */
(PID.TID 0000.0001)                 1.362652340208229E+05,      /* I = 98 */
(PID.TID 0000.0001)                 1.701080315742101E+05,      /* I = 99 */
(PID.TID 0000.0001)                 1.942331448101592E+05,      /* I =100 */
(PID.TID 0000.0001)                 2.133486626971531E+05,      /* I =101 */
(PID.TID 0000.0001)                 2.292584591272880E+05,      /* I =102 */
(PID.TID 0000.0001)                 2.428369969078989E+05,      /* I =103 */
(PID.TID 0000.0001)                 2.545652950875683E+05,      /* I =104 */
(PID.TID 0000.0001)                 2.647274964828302E+05,      /* I =105 */
(PID.TID 0000.0001)                 2.734980225206389E+05,      /* I =106 */
(PID.TID 0000.0001)                 2.809856491525217E+05,      /* I =107 */
(PID.TID 0000.0001)                 2.872580915202295E+05,      /* I =108 */
(PID.TID 0000.0001)                 2.923567890694162E+05,      /* I =109 */
(PID.TID 0000.0001)                 2.963063101754721E+05,      /* I =110 */
(PID.TID 0000.0001)                 2.991205495886625E+05,      /* I =111 */
(PID.TID 0000.0001)                 3.008068453676764E+05,      /* I =112 */
(PID.TID 0000.0001)                 3.013686170436881E+05,      /* I =113 */
(PID.TID 0000.0001)                 3.008068453676764E+05,      /* I =114 */
(PID.TID 0000.0001)                 2.991205495886625E+05,      /* I =115 */
(PID.TID 0000.0001)                 2.963063101754721E+05,      /* I =116 */
(PID.TID 0000.0001)                 2.923567890694162E+05,      /* I =117 */
(PID.TID 0000.0001)                 2.872580915202295E+05,      /* I =118 */
(PID.TID 0000.0001)                 2.809856491525217E+05,      /* I =119 */
(PID.TID 0000.0001)                 2.734980225206389E+05,      /* I =120 */
(PID.TID 0000.0001)                 2.647274964828302E+05,      /* I =121 */
(PID.TID 0000.0001)                 2.545652950875683E+05,      /* I =122 */
(PID.TID 0000.0001)                 2.428369969078989E+05,      /* I =123 */
(PID.TID 0000.0001)                 2.292584591272880E+05,      /* I =124 */
(PID.TID 0000.0001)                 2.133486626971531E+05,      /* I =125 */
(PID.TID 0000.0001)                 1.942331448101592E+05,      /* I =126 */
(PID.TID 0000.0001)                 1.701080315742101E+05,      /* I =127 */
(PID.TID 0000.0001)                 1.362652340208229E+05,      /* I =128 */
(PID.TID 0000.0001)                 8.015229982413632E+04,      /* I =129 */
(PID.TID 0000.0001)                 1.362652340208229E+05,      /* I =130 */
(PID.TID 0000.0001)                 1.701080315742101E+05,      /* I =131 */
(PID.TID 0000.0001)                 1.942331448101592E+05,      /* I =132 */
(PID.TID 0000.0001)                 2.133486626971531E+05,      /* I =133 */
(PID.TID 0000.0001)                 2.292584591272880E+05,      /* I =134 */
(PID.TID 0000.0001)                 2.428369969078989E+05,      /* I =135 */
(PID.TID 0000.0001)                 2.545652950875683E+05,      /* I =136 */
(PID.TID 0000.0001)                 2.647274964828302E+05,      /* I =137 */
(PID.TID 0000.0001)                 2.734980225206389E+05,      /* I =138 */
(PID.TID 0000.0001)                 2.809856491525217E+05,      /* I =139 */
(PID.TID 0000.0001)                 2.872580915202295E+05,      /* I =140 */
(PID.TID 0000.0001)                 2.923567890694162E+05,      /* I =141 */
(PID.TID 0000.0001)                 2.963063101754721E+05,      /* I =142 */
(PID.TID 0000.0001)                 2.991205495886625E+05,      /* I =143 */
(PID.TID 0000.0001)                 3.008068453676764E+05,      /* I =144 */
(PID.TID 0000.0001)                 3.013686170436881E+05,      /* I =145 */
(PID.TID 0000.0001)                 3.008068453676764E+05,      /* I =146 */
(PID.TID 0000.0001)                 2.991205495886625E+05,      /* I =147 */
(PID.TID 0000.0001)                 2.963063101754721E+05,      /* I =148 */
(PID.TID 0000.0001)                 2.923567890694162E+05,      /* I =149 */
(PID.TID 0000.0001)                 2.872580915202295E+05,      /* I =150 */
(PID.TID 0000.0001)                 2.809856491525217E+05,      /* I =151 */
(PID.TID 0000.0001)                 2.734980225206389E+05,      /* I =152 */
(PID.TID 0000.0001)                 2.647274964828302E+05,      /* I =153 */
(PID.TID 0000.0001)                 2.545652950875683E+05,      /* I =154 */
(PID.TID 0000.0001)                 2.428369969078989E+05,      /* I =155 */
(PID.TID 0000.0001)                 2.292584591272880E+05,      /* I =156 */
(PID.TID 0000.0001)                 2.133486626971531E+05,      /* I =157 */
(PID.TID 0000.0001)                 1.942331448101592E+05,      /* I =158 */
(PID.TID 0000.0001)                 1.701080315742101E+05,      /* I =159 */
(PID.TID 0000.0001)                 1.362652340208229E+05,      /* I =160 */
(PID.TID 0000.0001)                 8.015229982413632E+04,      /* I =161 */
(PID.TID 0000.0001)                 1.362652340208229E+05,      /* I =162 */
(PID.TID 0000.0001)                 1.701080315742101E+05,      /* I =163 */
(PID.TID 0000.0001)                 1.942331448101592E+05,      /* I =164 */
(PID.TID 0000.0001)                 2.133486626971531E+05,      /* I =165 */
(PID.TID 0000.0001)                 2.292584591272880E+05,      /* I =166 */
(PID.TID 0000.0001)                 2.428369969078989E+05,      /* I =167 */
(PID.TID 0000.0001)                 2.545652950875683E+05,      /* I =168 */
(PID.TID 0000.0001)                 2.647274964828302E+05,      /* I =169 */
(PID.TID 0000.0001)                 2.734980225206389E+05,      /* I =170 */
(PID.TID 0000.0001)                 2.809856491525217E+05,      /* I =171 */
(PID.TID 0000.0001)                 2.872580915202295E+05,      /* I =172 */
(PID.TID 0000.0001)                 2.923567890694162E+05,      /* I =173 */
(PID.TID 0000.0001)                 2.963063101754721E+05,      /* I =174 */
(PID.TID 0000.0001)                 2.991205495886625E+05,      /* I =175 */
(PID.TID 0000.0001)                 3.008068453676764E+05,      /* I =176 */
(PID.TID 0000.0001)                 3.013686170436881E+05,      /* I =177 */
(PID.TID 0000.0001)                 3.008068453676764E+05,      /* I =178 */
(PID.TID 0000.0001)                 2.991205495886625E+05,      /* I =179 */
(PID.TID 0000.0001)                 2.963063101754721E+05,      /* I =180 */
(PID.TID 0000.0001)                 2.923567890694162E+05,      /* I =181 */
(PID.TID 0000.0001)                 2.872580915202295E+05,      /* I =182 */
(PID.TID 0000.0001)                 2.809856491525217E+05,      /* I =183 */
(PID.TID 0000.0001)                 2.734980225206389E+05,      /* I =184 */
(PID.TID 0000.0001)                 2.647274964828302E+05,      /* I =185 */
(PID.TID 0000.0001)                 2.545652950875683E+05,      /* I =186 */
(PID.TID 0000.0001)                 2.428369969078989E+05,      /* I =187 */
(PID.TID 0000.0001)                 2.292584591272880E+05,      /* I =188 */
(PID.TID 0000.0001)                 2.133486626971531E+05,      /* I =189 */
(PID.TID 0000.0001)                 1.942331448101592E+05,      /* I =190 */
(PID.TID 0000.0001)                 1.701080315742101E+05,      /* I =191 */
(PID.TID 0000.0001)                 1.362652340208229E+05       /* I =192 */
(PID.TID 0000.0001)     ;
(PID.TID 0000.0001) dyU =  /* dyU(1,:,1,:) ( m - cartesian, degrees - spherical ) */
(PID.TID 0000.0001)                 8.015229982413632E+04,      /* J =  1 */
(PID.TID 0000.0001)                 1.333130744933864E+05,      /* J =  2 */
(PID.TID 0000.0001)                 1.691744868129062E+05,      /* J =  3 */
(PID.TID 0000.0001)                 1.937548202849059E+05,      /* J =  4 */
(PID.TID 0000.0001)                 2.130490056267208E+05,      /* J =  5 */
(PID.TID 0000.0001)                 2.290479919481738E+05,      /* J =  6 */
(PID.TID 0000.0001)                 2.426774358027004E+05,      /* J =  7 */
(PID.TID 0000.0001)                 2.544372984215561E+05,      /* J =  8 */
(PID.TID 0000.0001)                 2.646201463834826E+05,      /* J =  9 */
(PID.TID 0000.0001)                 2.734046499619030E+05,      /* J = 10 */
(PID.TID 0000.0001)                 2.809019351693761E+05,      /* J = 11 */
(PID.TID 0000.0001)                 2.871811105274442E+05,      /* J = 12 */
(PID.TID 0000.0001)                 2.922844849381675E+05,      /* J = 13 */
(PID.TID 0000.0001)                 2.962371870847826E+05,      /* J = 14 */
(PID.TID 0000.0001)                 2.990534755671296E+05,      /* J = 15 */
(PID.TID 0000.0001)                 3.007409169495504E+05,      /* J = 16 */
(PID.TID 0000.0001)                 3.013031486919771E+05,      /* J = 17 */
(PID.TID 0000.0001)                 3.007409169495504E+05,      /* J = 18 */
(PID.TID 0000.0001)                 2.990534755671296E+05,      /* J = 19 */
(PID.TID 0000.0001)                 2.962371870847826E+05,      /* J = 20 */
(PID.TID 0000.0001)                 2.922844849381675E+05,      /* J = 21 */
(PID.TID 0000.0001)                 2.871811105274442E+05,      /* J = 22 */
(PID.TID 0000.0001)                 2.809019351693761E+05,      /* J = 23 */
(PID.TID 0000.0001)                 2.734046499619030E+05,      /* J = 24 */
(PID.TID 0000.0001)                 2.646201463834826E+05,      /* J = 25 */
(PID.TID 0000.0001)                 2.544372984215561E+05,      /* J = 26 */
(PID.TID 0000.0001)                 2.426774358027004E+05,      /* J = 27 */
(PID.TID 0000.0001)                 2.290479919481738E+05,      /* J = 28 */
(PID.TID 0000.0001)                 2.130490056267208E+05,      /* J = 29 */
(PID.TID 0000.0001)                 1.937548202849059E+05,      /* J = 30 */
(PID.TID 0000.0001)                 1.691744868129062E+05,      /* J = 31 */
(PID.TID 0000.0001)                 1.333130744933864E+05       /* J = 32 */
(PID.TID 0000.0001)     ;
(PID.TID 0000.0001) rA =  /* rA(:,1,:,1) ( m - cartesian, degrees - spherical ) */
(PID.TID 0000.0001)                 1.401900702255611E+10,      /* I =  1 */
(PID.TID 0000.0001)                 2.459906945574446E+10,      /* I =  2 */
(PID.TID 0000.0001)                 3.378518544307869E+10,      /* I =  3 */
(PID.TID 0000.0001)                 4.192037169898667E+10,      /* I =  4 */
(PID.TID 0000.0001)                 4.925938996118163E+10,      /* I =  5 */
(PID.TID 0000.0001)                 5.594154126607554E+10,      /* I =  6 */
(PID.TID 0000.0001)                 6.203683527772524E+10,      /* I =  7 */
(PID.TID 0000.0001)                 6.757541173817516E+10,      /* I =  8 */
(PID.TID 0000.0001)                 7.256353271748119E+10,      /* I =  9 */
(PID.TID 0000.0001)                 7.699293007098555E+10,      /* I = 10 */
(PID.TID 0000.0001)                 8.084683449728901E+10,      /* I = 11 */
(PID.TID 0000.0001)                 8.410423102796222E+10,      /* I = 12 */
(PID.TID 0000.0001)                 8.674306976737517E+10,      /* I = 13 */
(PID.TID 0000.0001)                 8.874277443041927E+10,      /* I = 14 */
(PID.TID 0000.0001)                 9.008620045350864E+10,      /* I = 15 */
(PID.TID 0000.0001)                 9.076111290418456E+10,      /* I = 16 */
(PID.TID 0000.0001)                 9.076111290422058E+10,      /* I = 17 */
(PID.TID 0000.0001)                 9.008620045354469E+10,      /* I = 18 */
(PID.TID 0000.0001)                 8.874277443041927E+10,      /* I = 19 */
(PID.TID 0000.0001)                 8.674306976741121E+10,      /* I = 20 */
(PID.TID 0000.0001)                 8.410423102799827E+10,      /* I = 21 */
(PID.TID 0000.0001)                 8.084683449728901E+10,      /* I = 22 */
(PID.TID 0000.0001)                 7.699293007098555E+10,      /* I = 23 */
(PID.TID 0000.0001)                 7.256353271748119E+10,      /* I = 24 */
(PID.TID 0000.0001)                 6.757541173817516E+10,      /* I = 25 */
(PID.TID 0000.0001)                 6.203683527772524E+10,      /* I = 26 */
(PID.TID 0000.0001)                 5.594154126611157E+10,      /* I = 27 */
(PID.TID 0000.0001)                 4.925938996118163E+10,      /* I = 28 */
(PID.TID 0000.0001)                 4.192037169898667E+10,      /* I = 29 */
(PID.TID 0000.0001)                 3.378518544304265E+10,      /* I = 30 */
(PID.TID 0000.0001)                 2.459906945574446E+10,      /* I = 31 */
(PID.TID 0000.0001)                 1.401900702259215E+10,      /* I = 32 */
(PID.TID 0000.0001)                 1.401900702255611E+10,      /* I = 33 */
(PID.TID 0000.0001)                 2.459906945574446E+10,      /* I = 34 */
(PID.TID 0000.0001)                 3.378518544307869E+10,      /* I = 35 */
(PID.TID 0000.0001)                 4.192037169898667E+10,      /* I = 36 */
(PID.TID 0000.0001)                 4.925938996118163E+10,      /* I = 37 */
(PID.TID 0000.0001)                 5.594154126607554E+10,      /* I = 38 */
(PID.TID 0000.0001)                 6.203683527772524E+10,      /* I = 39 */
(PID.TID 0000.0001)                 6.757541173817516E+10,      /* I = 40 */
(PID.TID 0000.0001)                 7.256353271748119E+10,      /* I = 41 */
(PID.TID 0000.0001)                 7.699293007098555E+10,      /* I = 42 */
(PID.TID 0000.0001)                 8.084683449728901E+10,      /* I = 43 */
(PID.TID 0000.0001)                 8.410423102796222E+10,      /* I = 44 */
(PID.TID 0000.0001)                 8.674306976737517E+10,      /* I = 45 */
(PID.TID 0000.0001)                 8.874277443041927E+10,      /* I = 46 */
(PID.TID 0000.0001)                 9.008620045350864E+10,      /* I = 47 */
(PID.TID 0000.0001)                 9.076111290418456E+10,      /* I = 48 */
(PID.TID 0000.0001)                 9.076111290422058E+10,      /* I = 49 */
(PID.TID 0000.0001)                 9.008620045354469E+10,      /* I = 50 */
(PID.TID 0000.0001)                 8.874277443041927E+10,      /* I = 51 */
(PID.TID 0000.0001)                 8.674306976741121E+10,      /* I = 52 */
(PID.TID 0000.0001)                 8.410423102799827E+10,      /* I = 53 */
(PID.TID 0000.0001)                 8.084683449728901E+10,      /* I = 54 */
(PID.TID 0000.0001)                 7.699293007098555E+10,      /* I = 55 */
(PID.TID 0000.0001)                 7.256353271748119E+10,      /* I = 56 */
(PID.TID 0000.0001)                 6.757541173817516E+10,      /* I = 57 */
(PID.TID 0000.0001)                 6.203683527772524E+10,      /* I = 58 */
(PID.TID 0000.0001)                 5.594154126611157E+10,      /* I = 59 */
(PID.TID 0000.0001)                 4.925938996118163E+10,      /* I = 60 */
(PID.TID 0000.0001)                 4.192037169898667E+10,      /* I = 61 */
(PID.TID 0000.0001)                 3.378518544304265E+10,      /* I = 62 */
(PID.TID 0000.0001)                 2.459906945574446E+10,      /* I = 63 */
(PID.TID 0000.0001)                 1.401900702259215E+10,      /* I = 64 */
(PID.TID 0000.0001)                 1.401900702255611E+10,      /* I = 65 */
(PID.TID 0000.0001)                 2.459906945574446E+10,      /* I = 66 */
(PID.TID 0000.0001)                 3.378518544307869E+10,      /* I = 67 */
(PID.TID 0000.0001)                 4.192037169898667E+10,      /* I = 68 */
(PID.TID 0000.0001)                 4.925938996118163E+10,      /* I = 69 */
(PID.TID 0000.0001)                 5.594154126607554E+10,      /* I = 70 */
(PID.TID 0000.0001)                 6.203683527772524E+10,      /* I = 71 */
(PID.TID 0000.0001)                 6.757541173817516E+10,      /* I = 72 */
(PID.TID 0000.0001)                 7.256353271748119E+10,      /* I = 73 */
(PID.TID 0000.0001)                 7.699293007098555E+10,      /* I = 74 */
(PID.TID 0000.0001)                 8.084683449728901E+10,      /* I = 75 */
(PID.TID 0000.0001)                 8.410423102796222E+10,      /* I = 76 */
(PID.TID 0000.0001)                 8.674306976737517E+10,      /* I = 77 */
(PID.TID 0000.0001)                 8.874277443041927E+10,      /* I = 78 */
(PID.TID 0000.0001)                 9.008620045350864E+10,      /* I = 79 */
(PID.TID 0000.0001)                 9.076111290418456E+10,      /* I = 80 */
(PID.TID 0000.0001)                 9.076111290422058E+10,      /* I = 81 */
(PID.TID 0000.0001)                 9.008620045354469E+10,      /* I = 82 */
(PID.TID 0000.0001)                 8.874277443041927E+10,      /* I = 83 */
(PID.TID 0000.0001)                 8.674306976741121E+10,      /* I = 84 */
(PID.TID 0000.0001)                 8.410423102799827E+10,      /* I = 85 */
(PID.TID 0000.0001)                 8.084683449728901E+10,      /* I = 86 */
(PID.TID 0000.0001)                 7.699293007098555E+10,      /* I = 87 */
(PID.TID 0000.0001)                 7.256353271748119E+10,      /* I = 88 */
(PID.TID 0000.0001)                 6.757541173817516E+10,      /* I = 89 */
(PID.TID 0000.0001)                 6.203683527772524E+10,      /* I = 90 */
(PID.TID 0000.0001)                 5.594154126611157E+10,      /* I = 91 */
(PID.TID 0000.0001)                 4.925938996118163E+10,      /* I = 92 */
(PID.TID 0000.0001)                 4.192037169898667E+10,      /* I = 93 */
(PID.TID 0000.0001)                 3.378518544304265E+10,      /* I = 94 */
(PID.TID 0000.0001)                 2.459906945574446E+10,      /* I = 95 */
(PID.TID 0000.0001)                 1.401900702259215E+10,      /* I = 96 */
(PID.TID 0000.0001)                 1.401900702255611E+10,      /* I = 97 */
(PID.TID 0000.0001)                 2.459906945574446E+10,      /* I = 98 */
(PID.TID 0000.0001)                 3.378518544307869E+10,      /* I = 99 */
(PID.TID 0000.0001)                 4.192037169898667E+10,      /* I =100 */
(PID.TID 0000.0001)                 4.925938996118163E+10,      /* I =101 */
(PID.TID 0000.0001)                 5.594154126607554E+10,      /* I =102 */
(PID.TID 0000.0001)                 6.203683527772524E+10,      /* I =103 */
(PID.TID 0000.0001)                 6.757541173817516E+10,      /* I =104 */
(PID.TID 0000.0001)                 7.256353271748119E+10,      /* I =105 */
(PID.TID 0000.0001)                 7.699293007098555E+10,      /* I =106 */
(PID.TID 0000.0001)                 8.084683449728901E+10,      /* I =107 */
(PID.TID 0000.0001)                 8.410423102796222E+10,      /* I =108 */
(PID.TID 0000.0001)                 8.674306976737517E+10,      /* I =109 */
(PID.TID 0000.0001)                 8.874277443041927E+10,      /* I =110 */
(PID.TID 0000.0001)                 9.008620045350864E+10,      /* I =111 */
(PID.TID 0000.0001)                 9.076111290418456E+10,      /* I =112 */
(PID.TID 0000.0001)                 9.076111290422058E+10,      /* I =113 */
(PID.TID 0000.0001)                 9.008620045354469E+10,      /* I =114 */
(PID.TID 0000.0001)                 8.874277443041927E+10,      /* I =115 */
(PID.TID 0000.0001)                 8.674306976741121E+10,      /* I =116 */
(PID.TID 0000.0001)                 8.410423102799827E+10,      /* I =117 */
(PID.TID 0000.0001)                 8.084683449728901E+10,      /* I =118 */
(PID.TID 0000.0001)                 7.699293007098555E+10,      /* I =119 */
(PID.TID 0000.0001)                 7.256353271748119E+10,      /* I =120 */
(PID.TID 0000.0001)                 6.757541173817516E+10,      /* I =121 */
(PID.TID 0000.0001)                 6.203683527772524E+10,      /* I =122 */
(PID.TID 0000.0001)                 5.594154126611157E+10,      /* I =123 */
(PID.TID 0000.0001)                 4.925938996118163E+10,      /* I =124 */
(PID.TID 0000.0001)                 4.192037169898667E+10,      /* I =125 */
(PID.TID 0000.0001)                 3.378518544304265E+10,      /* I =126 */
(PID.TID 0000.0001)                 2.459906945574446E+10,      /* I =127 */
(PID.TID 0000.0001)                 1.401900702259215E+10,      /* I =128 */
(PID.TID 0000.0001)                 1.401900702255611E+10,      /* I =129 */
(PID.TID 0000.0001)                 2.459906945574446E+10,      /* I =130 */
(PID.TID 0000.0001)                 3.378518544307869E+10,      /* I =131 */
(PID.TID 0000.0001)                 4.192037169898667E+10,      /* I =132 */
(PID.TID 0000.0001)                 4.925938996118163E+10,      /* I =133 */
(PID.TID 0000.0001)                 5.594154126607554E+10,      /* I =134 */
(PID.TID 0000.0001)                 6.203683527772524E+10,      /* I =135 */
(PID.TID 0000.0001)                 6.757541173817516E+10,      /* I =136 */
(PID.TID 0000.0001)                 7.256353271748119E+10,      /* I =137 */
(PID.TID 0000.0001)                 7.699293007098555E+10,      /* I =138 */
(PID.TID 0000.0001)                 8.084683449728901E+10,      /* I =139 */
(PID.TID 0000.0001)                 8.410423102796222E+10,      /* I =140 */
(PID.TID 0000.0001)                 8.674306976737517E+10,      /* I =141 */
(PID.TID 0000.0001)                 8.874277443041927E+10,      /* I =142 */
(PID.TID 0000.0001)                 9.008620045350864E+10,      /* I =143 */
(PID.TID 0000.0001)                 9.076111290418456E+10,      /* I =144 */
(PID.TID 0000.0001)                 9.076111290422058E+10,      /* I =145 */
(PID.TID 0000.0001)                 9.008620045354469E+10,      /* I =146 */
(PID.TID 0000.0001)                 8.874277443041927E+10,      /* I =147 */
(PID.TID 0000.0001)                 8.674306976741121E+10,      /* I =148 */
(PID.TID 0000.0001)                 8.410423102799827E+10,      /* I =149 */
(PID.TID 0000.0001)                 8.084683449728901E+10,      /* I =150 */
(PID.TID 0000.0001)                 7.699293007098555E+10,      /* I =151 */
(PID.TID 0000.0001)                 7.256353271748119E+10,      /* I =152 */
(PID.TID 0000.0001)                 6.757541173817516E+10,      /* I =153 */
(PID.TID 0000.0001)                 6.203683527772524E+10,      /* I =154 */
(PID.TID 0000.0001)                 5.594154126611157E+10,      /* I =155 */
(PID.TID 0000.0001)                 4.925938996118163E+10,      /* I =156 */
(PID.TID 0000.0001)                 4.192037169898667E+10,      /* I =157 */
(PID.TID 0000.0001)                 3.378518544304265E+10,      /* I =158 */
(PID.TID 0000.0001)                 2.459906945574446E+10,      /* I =159 */
(PID.TID 0000.0001)                 1.401900702259215E+10,      /* I =160 */
(PID.TID 0000.0001)                 1.401900702255611E+10,      /* I =161 */
(PID.TID 0000.0001)                 2.459906945574446E+10,      /* I =162 */
(PID.TID 0000.0001)                 3.378518544307869E+10,      /* I =163 */
(PID.TID 0000.0001)                 4.192037169898667E+10,      /* I =164 */
(PID.TID 0000.0001)                 4.925938996118163E+10,      /* I =165 */
(PID.TID 0000.0001)                 5.594154126607554E+10,      /* I =166 */
(PID.TID 0000.0001)                 6.203683527772524E+10,      /* I =167 */
(PID.TID 0000.0001)                 6.757541173817516E+10,      /* I =168 */
(PID.TID 0000.0001)                 7.256353271748119E+10,      /* I =169 */
(PID.TID 0000.0001)                 7.699293007098555E+10,      /* I =170 */
(PID.TID 0000.0001)                 8.084683449728901E+10,      /* I =171 */
(PID.TID 0000.0001)                 8.410423102796222E+10,      /* I =172 */
(PID.TID 0000.0001)                 8.674306976737517E+10,      /* I =173 */
(PID.TID 0000.0001)                 8.874277443041927E+10,      /* I =174 */
(PID.TID 0000.0001)                 9.008620045350864E+10,      /* I =175 */
(PID.TID 0000.0001)                 9.076111290418456E+10,      /* I =176 */
(PID.TID 0000.0001)                 9.076111290422058E+10,      /* I =177 */
(PID.TID 0000.0001)                 9.008620045354469E+10,      /* I =178 */
(PID.TID 0000.0001)                 8.874277443041927E+10,      /* I =179 */
(PID.TID 0000.0001)                 8.674306976741121E+10,      /* I =180 */
(PID.TID 0000.0001)                 8.410423102799827E+10,      /* I =181 */
(PID.TID 0000.0001)                 8.084683449728901E+10,      /* I =182 */
(PID.TID 0000.0001)                 7.699293007098555E+10,      /* I =183 */
(PID.TID 0000.0001)                 7.256353271748119E+10,      /* I =184 */
(PID.TID 0000.0001)                 6.757541173817516E+10,      /* I =185 */
(PID.TID 0000.0001)                 6.203683527772524E+10,      /* I =186 */
(PID.TID 0000.0001)                 5.594154126611157E+10,      /* I =187 */
(PID.TID 0000.0001)                 4.925938996118163E+10,      /* I =188 */
(PID.TID 0000.0001)                 4.192037169898667E+10,      /* I =189 */
(PID.TID 0000.0001)                 3.378518544304265E+10,      /* I =190 */
(PID.TID 0000.0001)                 2.459906945574446E+10,      /* I =191 */
(PID.TID 0000.0001)                 1.401900702259215E+10       /* I =192 */
(PID.TID 0000.0001)     ;
(PID.TID 0000.0001) rA =  /* rA(1,:,1,:) ( m - cartesian, degrees - spherical ) */
(PID.TID 0000.0001)                 1.401900702255611E+10,      /* J =  1 */
(PID.TID 0000.0001)                 2.459906945574446E+10,      /* J =  2 */
(PID.TID 0000.0001)                 3.378518544307869E+10,      /* J =  3 */
(PID.TID 0000.0001)                 4.192037169898667E+10,      /* J =  4 */
(PID.TID 0000.0001)                 4.925938996118163E+10,      /* J =  5 */
(PID.TID 0000.0001)                 5.594154126607554E+10,      /* J =  6 */
(PID.TID 0000.0001)                 6.203683527776127E+10,      /* J =  7 */
(PID.TID 0000.0001)                 6.757541173817516E+10,      /* J =  8 */
(PID.TID 0000.0001)                 7.256353271748119E+10,      /* J =  9 */
(PID.TID 0000.0001)                 7.699293007098555E+10,      /* J = 10 */
(PID.TID 0000.0001)                 8.084683449728901E+10,      /* J = 11 */
(PID.TID 0000.0001)                 8.410423102799827E+10,      /* J = 12 */
(PID.TID 0000.0001)                 8.674306976737517E+10,      /* J = 13 */
(PID.TID 0000.0001)                 8.874277443041927E+10,      /* J = 14 */
(PID.TID 0000.0001)                 9.008620045350864E+10,      /* J = 15 */
(PID.TID 0000.0001)                 9.076111290418456E+10,      /* J = 16 */
(PID.TID 0000.0001)                 9.076111290422058E+10,      /* J = 17 */
(PID.TID 0000.0001)                 9.008620045354469E+10,      /* J = 18 */
(PID.TID 0000.0001)                 8.874277443041927E+10,      /* J = 19 */
(PID.TID 0000.0001)                 8.674306976737517E+10,      /* J = 20 */
(PID.TID 0000.0001)                 8.410423102799827E+10,      /* J = 21 */
(PID.TID 0000.0001)                 8.084683449728901E+10,      /* J = 22 */
(PID.TID 0000.0001)                 7.699293007098555E+10,      /* J = 23 */
(PID.TID 0000.0001)                 7.256353271748119E+10,      /* J = 24 */
(PID.TID 0000.0001)                 6.757541173817516E+10,      /* J = 25 */
(PID.TID 0000.0001)                 6.203683527772524E+10,      /* J = 26 */
(PID.TID 0000.0001)                 5.594154126607554E+10,      /* J = 27 */
(PID.TID 0000.0001)                 4.925938996118163E+10,      /* J = 28 */
(PID.TID 0000.0001)                 4.192037169898667E+10,      /* J = 29 */
(PID.TID 0000.0001)                 3.378518544307869E+10,      /* J = 30 */
(PID.TID 0000.0001)                 2.459906945574446E+10,      /* J = 31 */
(PID.TID 0000.0001)                 1.401900702259215E+10       /* J = 32 */
(PID.TID 0000.0001)     ;
(PID.TID 0000.0001) rAw =  /* rAw(:,1,:,1) ( m - cartesian, degrees - spherical ) */
(PID.TID 0000.0001)                 1.216690346714270E+10,      /* I =  1 */
(PID.TID 0000.0001)                 1.974052138506315E+10,      /* I =  2 */
(PID.TID 0000.0001)                 2.943712825252015E+10,      /* I =  3 */
(PID.TID 0000.0001)                 3.801790263324359E+10,      /* I =  4 */
(PID.TID 0000.0001)                 4.571243814189866E+10,      /* I =  5 */
(PID.TID 0000.0001)                 5.269930713599979E+10,      /* I =  6 */
(PID.TID 0000.0001)                 5.907428494299064E+10,      /* I =  7 */
(PID.TID 0000.0001)                 6.488320895111515E+10,      /* I =  8 */
(PID.TID 0000.0001)                 7.014205907741883E+10,      /* I =  9 */
(PID.TID 0000.0001)                 7.484854821847499E+10,      /* I = 10 */
(PID.TID 0000.0001)                 7.898934631431560E+10,      /* I = 11 */
(PID.TID 0000.0001)                 8.254500894894537E+10,      /* I = 12 */
(PID.TID 0000.0001)                 8.549360686473493E+10,      /* I = 13 */
(PID.TID 0000.0001)                 8.781353403175085E+10,      /* I = 14 */
(PID.TID 0000.0001)                 8.948571540392020E+10,      /* I = 15 */
(PID.TID 0000.0001)                 9.049530583086168E+10,      /* I = 16 */
(PID.TID 0000.0001)                 9.083293515008307E+10,      /* I = 17 */
(PID.TID 0000.0001)                 9.049530583087069E+10,      /* I = 18 */
(PID.TID 0000.0001)                 8.948571540391121E+10,      /* I = 19 */
(PID.TID 0000.0001)                 8.781353403174184E+10,      /* I = 20 */
(PID.TID 0000.0001)                 8.549360686467183E+10,      /* I = 21 */
(PID.TID 0000.0001)                 8.254500894890933E+10,      /* I = 22 */
(PID.TID 0000.0001)                 7.898934631434262E+10,      /* I = 23 */
(PID.TID 0000.0001)                 7.484854821844796E+10,      /* I = 24 */
(PID.TID 0000.0001)                 7.014205907742783E+10,      /* I = 25 */
(PID.TID 0000.0001)                 6.488320895111515E+10,      /* I = 26 */
(PID.TID 0000.0001)                 5.907428494299064E+10,      /* I = 27 */
(PID.TID 0000.0001)                 5.269930713599078E+10,      /* I = 28 */
(PID.TID 0000.0001)                 4.571243814190768E+10,      /* I = 29 */
(PID.TID 0000.0001)                 3.801790263325260E+10,      /* I = 30 */
(PID.TID 0000.0001)                 2.943712825251114E+10,      /* I = 31 */
(PID.TID 0000.0001)                 1.974052138509018E+10,      /* I = 32 */
(PID.TID 0000.0001)                 1.216690346714270E+10,      /* I = 33 */
(PID.TID 0000.0001)                 1.974052138506315E+10,      /* I = 34 */
(PID.TID 0000.0001)                 2.943712825252015E+10,      /* I = 35 */
(PID.TID 0000.0001)                 3.801790263324359E+10,      /* I = 36 */
(PID.TID 0000.0001)                 4.571243814189866E+10,      /* I = 37 */
(PID.TID 0000.0001)                 5.269930713599979E+10,      /* I = 38 */
(PID.TID 0000.0001)                 5.907428494299064E+10,      /* I = 39 */
(PID.TID 0000.0001)                 6.488320895111515E+10,      /* I = 40 */
(PID.TID 0000.0001)                 7.014205907741883E+10,      /* I = 41 */
(PID.TID 0000.0001)                 7.484854821847499E+10,      /* I = 42 */
(PID.TID 0000.0001)                 7.898934631431560E+10,      /* I = 43 */
(PID.TID 0000.0001)                 8.254500894894537E+10,      /* I = 44 */
(PID.TID 0000.0001)                 8.549360686473493E+10,      /* I = 45 */
(PID.TID 0000.0001)                 8.781353403175085E+10,      /* I = 46 */
(PID.TID 0000.0001)                 8.948571540392020E+10,      /* I = 47 */
(PID.TID 0000.0001)                 9.049530583086168E+10,      /* I = 48 */
(PID.TID 0000.0001)                 9.083293515008307E+10,      /* I = 49 */
(PID.TID 0000.0001)                 9.049530583087069E+10,      /* I = 50 */
(PID.TID 0000.0001)                 8.948571540391121E+10,      /* I = 51 */
(PID.TID 0000.0001)                 8.781353403174184E+10,      /* I = 52 */
(PID.TID 0000.0001)                 8.549360686467183E+10,      /* I = 53 */
(PID.TID 0000.0001)                 8.254500894890933E+10,      /* I = 54 */
(PID.TID 0000.0001)                 7.898934631434262E+10,      /* I = 55 */
(PID.TID 0000.0001)                 7.484854821844796E+10,      /* I = 56 */
(PID.TID 0000.0001)                 7.014205907742783E+10,      /* I = 57 */
(PID.TID 0000.0001)                 6.488320895111515E+10,      /* I = 58 */
(PID.TID 0000.0001)                 5.907428494299064E+10,      /* I = 59 */
(PID.TID 0000.0001)                 5.269930713599078E+10,      /* I = 60 */
(PID.TID 0000.0001)                 4.571243814190768E+10,      /* I = 61 */
(PID.TID 0000.0001)                 3.801790263325260E+10,      /* I = 62 */
(PID.TID 0000.0001)                 2.943712825251114E+10,      /* I = 63 */
(PID.TID 0000.0001)                 1.974052138509018E+10,      /* I = 64 */
(PID.TID 0000.0001)                 1.216690346714270E+10,      /* I = 65 */
(PID.TID 0000.0001)                 1.974052138506315E+10,      /* I = 66 */
(PID.TID 0000.0001)                 2.943712825252015E+10,      /* I = 67 */
(PID.TID 0000.0001)                 3.801790263324359E+10,      /* I = 68 */
(PID.TID 0000.0001)                 4.571243814189866E+10,      /* I = 69 */
(PID.TID 0000.0001)                 5.269930713599979E+10,      /* I = 70 */
(PID.TID 0000.0001)                 5.907428494299064E+10,      /* I = 71 */
(PID.TID 0000.0001)                 6.488320895111515E+10,      /* I = 72 */
(PID.TID 0000.0001)                 7.014205907741883E+10,      /* I = 73 */
(PID.TID 0000.0001)                 7.484854821847499E+10,      /* I = 74 */
(PID.TID 0000.0001)                 7.898934631431560E+10,      /* I = 75 */
(PID.TID 0000.0001)                 8.254500894894537E+10,      /* I = 76 */
(PID.TID 0000.0001)                 8.549360686473493E+10,      /* I = 77 */
(PID.TID 0000.0001)                 8.781353403175085E+10,      /* I = 78 */
(PID.TID 0000.0001)                 8.948571540392020E+10,      /* I = 79 */
(PID.TID 0000.0001)                 9.049530583086168E+10,      /* I = 80 */
(PID.TID 0000.0001)                 9.083293515008307E+10,      /* I = 81 */
(PID.TID 0000.0001)                 9.049530583087069E+10,      /* I = 82 */
(PID.TID 0000.0001)                 8.948571540391121E+10,      /* I = 83 */
(PID.TID 0000.0001)                 8.781353403174184E+10,      /* I = 84 */
(PID.TID 0000.0001)                 8.549360686467183E+10,      /* I = 85 */
(PID.TID 0000.0001)                 8.254500894890933E+10,      /* I = 86 */
(PID.TID 0000.0001)                 7.898934631434262E+10,      /* I = 87 */
(PID.TID 0000.0001)                 7.484854821844796E+10,      /* I = 88 */
(PID.TID 0000.0001)                 7.014205907742783E+10,      /* I = 89 */
(PID.TID 0000.0001)                 6.488320895111515E+10,      /* I = 90 */
(PID.TID 0000.0001)                 5.907428494299064E+10,      /* I = 91 */
(PID.TID 0000.0001)                 5.269930713599078E+10,      /* I = 92 */
(PID.TID 0000.0001)                 4.571243814190768E+10,      /* I = 93 */
(PID.TID 0000.0001)                 3.801790263325260E+10,      /* I = 94 */
(PID.TID 0000.0001)                 2.943712825251114E+10,      /* I = 95 */
(PID.TID 0000.0001)                 1.974052138509018E+10,      /* I = 96 */
(PID.TID 0000.0001)                 1.216690346714270E+10,      /* I = 97 */
(PID.TID 0000.0001)                 1.974052138506315E+10,      /* I = 98 */
(PID.TID 0000.0001)                 2.943712825252015E+10,      /* I = 99 */
(PID.TID 0000.0001)                 3.801790263324359E+10,      /* I =100 */
(PID.TID 0000.0001)                 4.571243814189866E+10,      /* I =101 */
(PID.TID 0000.0001)                 5.269930713599979E+10,      /* I =102 */
(PID.TID 0000.0001)                 5.907428494299064E+10,      /* I =103 */
(PID.TID 0000.0001)                 6.488320895111515E+10,      /* I =104 */
(PID.TID 0000.0001)                 7.014205907741883E+10,      /* I =105 */
(PID.TID 0000.0001)                 7.484854821847499E+10,      /* I =106 */
(PID.TID 0000.0001)                 7.898934631431560E+10,      /* I =107 */
(PID.TID 0000.0001)                 8.254500894894537E+10,      /* I =108 */
(PID.TID 0000.0001)                 8.549360686473493E+10,      /* I =109 */
(PID.TID 0000.0001)                 8.781353403175085E+10,      /* I =110 */
(PID.TID 0000.0001)                 8.948571540392020E+10,      /* I =111 */
(PID.TID 0000.0001)                 9.049530583086168E+10,      /* I =112 */
(PID.TID 0000.0001)                 9.083293515008307E+10,      /* I =113 */
(PID.TID 0000.0001)                 9.049530583087069E+10,      /* I =114 */
(PID.TID 0000.0001)                 8.948571540391121E+10,      /* I =115 */
(PID.TID 0000.0001)                 8.781353403174184E+10,      /* I =116 */
(PID.TID 0000.0001)                 8.549360686467183E+10,      /* I =117 */
(PID.TID 0000.0001)                 8.254500894890933E+10,      /* I =118 */
(PID.TID 0000.0001)                 7.898934631434262E+10,      /* I =119 */
(PID.TID 0000.0001)                 7.484854821844796E+10,      /* I =120 */
(PID.TID 0000.0001)                 7.014205907742783E+10,      /* I =121 */
(PID.TID 0000.0001)                 6.488320895111515E+10,      /* I =122 */
(PID.TID 0000.0001)                 5.907428494299064E+10,      /* I =123 */
(PID.TID 0000.0001)                 5.269930713599078E+10,      /* I =124 */
(PID.TID 0000.0001)                 4.571243814190768E+10,      /* I =125 */
(PID.TID 0000.0001)                 3.801790263325260E+10,      /* I =126 */
(PID.TID 0000.0001)                 2.943712825251114E+10,      /* I =127 */
(PID.TID 0000.0001)                 1.974052138509018E+10,      /* I =128 */
(PID.TID 0000.0001)                 1.216690346714270E+10,      /* I =129 */
(PID.TID 0000.0001)                 1.974052138506315E+10,      /* I =130 */
(PID.TID 0000.0001)                 2.943712825252015E+10,      /* I =131 */
(PID.TID 0000.0001)                 3.801790263324359E+10,      /* I =132 */
(PID.TID 0000.0001)                 4.571243814189866E+10,      /* I =133 */
(PID.TID 0000.0001)                 5.269930713599979E+10,      /* I =134 */
(PID.TID 0000.0001)                 5.907428494299064E+10,      /* I =135 */
(PID.TID 0000.0001)                 6.488320895111515E+10,      /* I =136 */
(PID.TID 0000.0001)                 7.014205907741883E+10,      /* I =137 */
(PID.TID 0000.0001)                 7.484854821847499E+10,      /* I =138 */
(PID.TID 0000.0001)                 7.898934631431560E+10,      /* I =139 */
(PID.TID 0000.0001)                 8.254500894894537E+10,      /* I =140 */
(PID.TID 0000.0001)                 8.549360686473493E+10,      /* I =141 */
(PID.TID 0000.0001)                 8.781353403175085E+10,      /* I =142 */
(PID.TID 0000.0001)                 8.948571540392020E+10,      /* I =143 */
(PID.TID 0000.0001)                 9.049530583086168E+10,      /* I =144 */
(PID.TID 0000.0001)                 9.083293515008307E+10,      /* I =145 */
(PID.TID 0000.0001)                 9.049530583087069E+10,      /* I =146 */
(PID.TID 0000.0001)                 8.948571540391121E+10,      /* I =147 */
(PID.TID 0000.0001)                 8.781353403174184E+10,      /* I =148 */
(PID.TID 0000.0001)                 8.549360686467183E+10,      /* I =149 */
(PID.TID 0000.0001)                 8.254500894890933E+10,      /* I =150 */
(PID.TID 0000.0001)                 7.898934631434262E+10,      /* I =151 */
(PID.TID 0000.0001)                 7.484854821844796E+10,      /* I =152 */
(PID.TID 0000.0001)                 7.014205907742783E+10,      /* I =153 */
(PID.TID 0000.0001)                 6.488320895111515E+10,      /* I =154 */
(PID.TID 0000.0001)                 5.907428494299064E+10,      /* I =155 */
(PID.TID 0000.0001)                 5.269930713599078E+10,      /* I =156 */
(PID.TID 0000.0001)                 4.571243814190768E+10,      /* I =157 */
(PID.TID 0000.0001)                 3.801790263325260E+10,      /* I =158 */
(PID.TID 0000.0001)                 2.943712825251114E+10,      /* I =159 */
(PID.TID 0000.0001)                 1.974052138509018E+10,      /* I =160 */
(PID.TID 0000.0001)                 1.216690346714270E+10,      /* I =161 */
(PID.TID 0000.0001)                 1.974052138506315E+10,      /* I =162 */
(PID.TID 0000.0001)                 2.943712825252015E+10,      /* I =163 */
(PID.TID 0000.0001)                 3.801790263324359E+10,      /* I =164 */
(PID.TID 0000.0001)                 4.571243814189866E+10,      /* I =165 */
(PID.TID 0000.0001)                 5.269930713599979E+10,      /* I =166 */
(PID.TID 0000.0001)                 5.907428494299064E+10,      /* I =167 */
(PID.TID 0000.0001)                 6.488320895111515E+10,      /* I =168 */
(PID.TID 0000.0001)                 7.014205907741883E+10,      /* I =169 */
(PID.TID 0000.0001)                 7.484854821847499E+10,      /* I =170 */
(PID.TID 0000.0001)                 7.898934631431560E+10,      /* I =171 */
(PID.TID 0000.0001)                 8.254500894894537E+10,      /* I =172 */
(PID.TID 0000.0001)                 8.549360686473493E+10,      /* I =173 */
(PID.TID 0000.0001)                 8.781353403175085E+10,      /* I =174 */
(PID.TID 0000.0001)                 8.948571540392020E+10,      /* I =175 */
(PID.TID 0000.0001)                 9.049530583086168E+10,      /* I =176 */
(PID.TID 0000.0001)                 9.083293515008307E+10,      /* I =177 */
(PID.TID 0000.0001)                 9.049530583087069E+10,      /* I =178 */
(PID.TID 0000.0001)                 8.948571540391121E+10,      /* I =179 */
(PID.TID 0000.0001)                 8.781353403174184E+10,      /* I =180 */
(PID.TID 0000.0001)                 8.549360686467183E+10,      /* I =181 */
(PID.TID 0000.0001)                 8.254500894890933E+10,      /* I =182 */
(PID.TID 0000.0001)                 7.898934631434262E+10,      /* I =183 */
(PID.TID 0000.0001)                 7.484854821844796E+10,      /* I =184 */
(PID.TID 0000.0001)                 7.014205907742783E+10,      /* I =185 */
(PID.TID 0000.0001)                 6.488320895111515E+10,      /* I =186 */
(PID.TID 0000.0001)                 5.907428494299064E+10,      /* I =187 */
(PID.TID 0000.0001)                 5.269930713599078E+10,      /* I =188 */
(PID.TID 0000.0001)                 4.571243814190768E+10,      /* I =189 */
(PID.TID 0000.0001)                 3.801790263325260E+10,      /* I =190 */
(PID.TID 0000.0001)                 2.943712825251114E+10,      /* I =191 */
(PID.TID 0000.0001)                 1.974052138509018E+10       /* I =192 */
(PID.TID 0000.0001)     ;
(PID.TID 0000.0001) rAw =  /* rAw(1,:,1,:) ( m - cartesian, degrees - spherical ) */
(PID.TID 0000.0001)                 1.216690346714270E+10,      /* J =  1 */
(PID.TID 0000.0001)                 2.390126200743558E+10,      /* J =  2 */
(PID.TID 0000.0001)                 3.341968103208270E+10,      /* J =  3 */
(PID.TID 0000.0001)                 4.168532893152940E+10,      /* J =  4 */
(PID.TID 0000.0001)                 4.909074590409594E+10,      /* J =  5 */
(PID.TID 0000.0001)                 5.581203765722642E+10,      /* J =  6 */
(PID.TID 0000.0001)                 6.193257577506789E+10,      /* J =  7 */
(PID.TID 0000.0001)                 6.748840226738273E+10,      /* J =  8 */
(PID.TID 0000.0001)                 7.248875782324816E+10,      /* J =  9 */
(PID.TID 0000.0001)                 7.692702995909871E+10,      /* J = 10 */
(PID.TID 0000.0001)                 8.078743937057303E+10,      /* J = 11 */
(PID.TID 0000.0001)                 8.404959656062837E+10,      /* J = 12 */
(PID.TID 0000.0001)                 8.669186205742539E+10,      /* J = 13 */
(PID.TID 0000.0001)                 8.869393350723612E+10,      /* J = 14 */
(PID.TID 0000.0001)                 9.003884657168852E+10,      /* J = 15 */
(PID.TID 0000.0001)     2 @  9.071447638299398E+10,             /* J = 16: 17 */
(PID.TID 0000.0001)                 9.003884657168852E+10,      /* J = 18 */
(PID.TID 0000.0001)                 8.869393350723612E+10,      /* J = 19 */
(PID.TID 0000.0001)                 8.669186205742539E+10,      /* J = 20 */
(PID.TID 0000.0001)                 8.404959656062837E+10,      /* J = 21 */
(PID.TID 0000.0001)                 8.078743937057303E+10,      /* J = 22 */
(PID.TID 0000.0001)                 7.692702995909871E+10,      /* J = 23 */
(PID.TID 0000.0001)                 7.248875782324816E+10,      /* J = 24 */
(PID.TID 0000.0001)                 6.748840226738273E+10,      /* J = 25 */
(PID.TID 0000.0001)                 6.193257577506789E+10,      /* J = 26 */
(PID.TID 0000.0001)                 5.581203765722642E+10,      /* J = 27 */
(PID.TID 0000.0001)                 4.909074590409594E+10,      /* J = 28 */
(PID.TID 0000.0001)                 4.168532893152940E+10,      /* J = 29 */
(PID.TID 0000.0001)                 3.341968103208270E+10,      /* J = 30 */
(PID.TID 0000.0001)                 2.390126200743558E+10,      /* J = 31 */
(PID.TID 0000.0001)                 1.216690346714270E+10       /* J = 32 */
(PID.TID 0000.0001)     ;
(PID.TID 0000.0001) rAs =  /* rAs(:,1,:,1) ( m - cartesian, degrees - spherical ) */
(PID.TID 0000.0001)                 1.216690346714270E+10,      /* I =  1 */
(PID.TID 0000.0001)                 2.390126200743558E+10,      /* I =  2 */
(PID.TID 0000.0001)                 3.341968103208270E+10,      /* I =  3 */
(PID.TID 0000.0001)                 4.168532893152940E+10,      /* I =  4 */
(PID.TID 0000.0001)                 4.909074590409594E+10,      /* I =  5 */
(PID.TID 0000.0001)                 5.581203765722642E+10,      /* I =  6 */
(PID.TID 0000.0001)                 6.193257577506789E+10,      /* I =  7 */
(PID.TID 0000.0001)                 6.748840226738273E+10,      /* I =  8 */
(PID.TID 0000.0001)                 7.248875782324816E+10,      /* I =  9 */
(PID.TID 0000.0001)                 7.692702995909871E+10,      /* I = 10 */
(PID.TID 0000.0001)                 8.078743937057303E+10,      /* I = 11 */
(PID.TID 0000.0001)                 8.404959656062837E+10,      /* I = 12 */
(PID.TID 0000.0001)                 8.669186205742539E+10,      /* I = 13 */
(PID.TID 0000.0001)                 8.869393350723612E+10,      /* I = 14 */
(PID.TID 0000.0001)                 9.003884657168852E+10,      /* I = 15 */
(PID.TID 0000.0001)     2 @  9.071447638299398E+10,             /* I = 16: 17 */
(PID.TID 0000.0001)                 9.003884657168852E+10,      /* I = 18 */
(PID.TID 0000.0001)                 8.869393350723612E+10,      /* I = 19 */
(PID.TID 0000.0001)                 8.669186205742539E+10,      /* I = 20 */
(PID.TID 0000.0001)                 8.404959656062837E+10,      /* I = 21 */
(PID.TID 0000.0001)                 8.078743937057303E+10,      /* I = 22 */
(PID.TID 0000.0001)                 7.692702995909871E+10,      /* I = 23 */
(PID.TID 0000.0001)                 7.248875782324816E+10,      /* I = 24 */
(PID.TID 0000.0001)                 6.748840226738273E+10,      /* I = 25 */
(PID.TID 0000.0001)                 6.193257577506789E+10,      /* I = 26 */
(PID.TID 0000.0001)                 5.581203765722642E+10,      /* I = 27 */
(PID.TID 0000.0001)                 4.909074590409594E+10,      /* I = 28 */
(PID.TID 0000.0001)                 4.168532893152940E+10,      /* I = 29 */
(PID.TID 0000.0001)                 3.341968103208270E+10,      /* I = 30 */
(PID.TID 0000.0001)                 2.390126200743558E+10,      /* I = 31 */
(PID.TID 0000.0001)     2 @  1.216690346714270E+10,             /* I = 32: 33 */
(PID.TID 0000.0001)                 2.390126200743558E+10,      /* I = 34 */
(PID.TID 0000.0001)                 3.341968103208270E+10,      /* I = 35 */
(PID.TID 0000.0001)                 4.168532893152940E+10,      /* I = 36 */
(PID.TID 0000.0001)                 4.909074590409594E+10,      /* I = 37 */
(PID.TID 0000.0001)                 5.581203765722642E+10,      /* I = 38 */
(PID.TID 0000.0001)                 6.193257577506789E+10,      /* I = 39 */
(PID.TID 0000.0001)                 6.748840226738273E+10,      /* I = 40 */
(PID.TID 0000.0001)                 7.248875782324816E+10,      /* I = 41 */
(PID.TID 0000.0001)                 7.692702995909871E+10,      /* I = 42 */
(PID.TID 0000.0001)                 8.078743937057303E+10,      /* I = 43 */
(PID.TID 0000.0001)                 8.404959656062837E+10,      /* I = 44 */
(PID.TID 0000.0001)                 8.669186205742539E+10,      /* I = 45 */
(PID.TID 0000.0001)                 8.869393350723612E+10,      /* I = 46 */
(PID.TID 0000.0001)                 9.003884657168852E+10,      /* I = 47 */
(PID.TID 0000.0001)     2 @  9.071447638299398E+10,             /* I = 48: 49 */
(PID.TID 0000.0001)                 9.003884657168852E+10,      /* I = 50 */
(PID.TID 0000.0001)                 8.869393350723612E+10,      /* I = 51 */
(PID.TID 0000.0001)                 8.669186205742539E+10,      /* I = 52 */
(PID.TID 0000.0001)                 8.404959656062837E+10,      /* I = 53 */
(PID.TID 0000.0001)                 8.078743937057303E+10,      /* I = 54 */
(PID.TID 0000.0001)                 7.692702995909871E+10,      /* I = 55 */
(PID.TID 0000.0001)                 7.248875782324816E+10,      /* I = 56 */
(PID.TID 0000.0001)                 6.748840226738273E+10,      /* I = 57 */
(PID.TID 0000.0001)                 6.193257577506789E+10,      /* I = 58 */
(PID.TID 0000.0001)                 5.581203765722642E+10,      /* I = 59 */
(PID.TID 0000.0001)                 4.909074590409594E+10,      /* I = 60 */
(PID.TID 0000.0001)                 4.168532893152940E+10,      /* I = 61 */
(PID.TID 0000.0001)                 3.341968103208270E+10,      /* I = 62 */
(PID.TID 0000.0001)                 2.390126200743558E+10,      /* I = 63 */
(PID.TID 0000.0001)     2 @  1.216690346714270E+10,             /* I = 64: 65 */
(PID.TID 0000.0001)                 2.390126200743558E+10,      /* I = 66 */
(PID.TID 0000.0001)                 3.341968103208270E+10,      /* I = 67 */
(PID.TID 0000.0001)                 4.168532893152940E+10,      /* I = 68 */
(PID.TID 0000.0001)                 4.909074590409594E+10,      /* I = 69 */
(PID.TID 0000.0001)                 5.581203765722642E+10,      /* I = 70 */
(PID.TID 0000.0001)                 6.193257577506789E+10,      /* I = 71 */
(PID.TID 0000.0001)                 6.748840226738273E+10,      /* I = 72 */
(PID.TID 0000.0001)                 7.248875782324816E+10,      /* I = 73 */
(PID.TID 0000.0001)                 7.692702995909871E+10,      /* I = 74 */
(PID.TID 0000.0001)                 8.078743937057303E+10,      /* I = 75 */
(PID.TID 0000.0001)                 8.404959656062837E+10,      /* I = 76 */
(PID.TID 0000.0001)                 8.669186205742539E+10,      /* I = 77 */
(PID.TID 0000.0001)                 8.869393350723612E+10,      /* I = 78 */
(PID.TID 0000.0001)                 9.003884657168852E+10,      /* I = 79 */
(PID.TID 0000.0001)     2 @  9.071447638299398E+10,             /* I = 80: 81 */
(PID.TID 0000.0001)                 9.003884657168852E+10,      /* I = 82 */
(PID.TID 0000.0001)                 8.869393350723612E+10,      /* I = 83 */
(PID.TID 0000.0001)                 8.669186205742539E+10,      /* I = 84 */
(PID.TID 0000.0001)                 8.404959656062837E+10,      /* I = 85 */
(PID.TID 0000.0001)                 8.078743937057303E+10,      /* I = 86 */
(PID.TID 0000.0001)                 7.692702995909871E+10,      /* I = 87 */
(PID.TID 0000.0001)                 7.248875782324816E+10,      /* I = 88 */
(PID.TID 0000.0001)                 6.748840226738273E+10,      /* I = 89 */
(PID.TID 0000.0001)                 6.193257577506789E+10,      /* I = 90 */
(PID.TID 0000.0001)                 5.581203765722642E+10,      /* I = 91 */
(PID.TID 0000.0001)                 4.909074590409594E+10,      /* I = 92 */
(PID.TID 0000.0001)                 4.168532893152940E+10,      /* I = 93 */
(PID.TID 0000.0001)                 3.341968103208270E+10,      /* I = 94 */
(PID.TID 0000.0001)                 2.390126200743558E+10,      /* I = 95 */
(PID.TID 0000.0001)     2 @  1.216690346714270E+10,             /* I = 96: 97 */
(PID.TID 0000.0001)                 2.390126200743558E+10,      /* I = 98 */
(PID.TID 0000.0001)                 3.341968103208270E+10,      /* I = 99 */
(PID.TID 0000.0001)                 4.168532893152940E+10,      /* I =100 */
(PID.TID 0000.0001)                 4.909074590409594E+10,      /* I =101 */
(PID.TID 0000.0001)                 5.581203765722642E+10,      /* I =102 */
(PID.TID 0000.0001)                 6.193257577506789E+10,      /* I =103 */
(PID.TID 0000.0001)                 6.748840226738273E+10,      /* I =104 */
(PID.TID 0000.0001)                 7.248875782324816E+10,      /* I =105 */
(PID.TID 0000.0001)                 7.692702995909871E+10,      /* I =106 */
(PID.TID 0000.0001)                 8.078743937057303E+10,      /* I =107 */
(PID.TID 0000.0001)                 8.404959656062837E+10,      /* I =108 */
(PID.TID 0000.0001)                 8.669186205742539E+10,      /* I =109 */
(PID.TID 0000.0001)                 8.869393350723612E+10,      /* I =110 */
(PID.TID 0000.0001)                 9.003884657168852E+10,      /* I =111 */
(PID.TID 0000.0001)     2 @  9.071447638299398E+10,             /* I =112:113 */
(PID.TID 0000.0001)                 9.003884657168852E+10,      /* I =114 */
(PID.TID 0000.0001)                 8.869393350723612E+10,      /* I =115 */
(PID.TID 0000.0001)                 8.669186205742539E+10,      /* I =116 */
(PID.TID 0000.0001)                 8.404959656062837E+10,      /* I =117 */
(PID.TID 0000.0001)                 8.078743937057303E+10,      /* I =118 */
(PID.TID 0000.0001)                 7.692702995909871E+10,      /* I =119 */
(PID.TID 0000.0001)                 7.248875782324816E+10,      /* I =120 */
(PID.TID 0000.0001)                 6.748840226738273E+10,      /* I =121 */
(PID.TID 0000.0001)                 6.193257577506789E+10,      /* I =122 */
(PID.TID 0000.0001)                 5.581203765722642E+10,      /* I =123 */
(PID.TID 0000.0001)                 4.909074590409594E+10,      /* I =124 */
(PID.TID 0000.0001)                 4.168532893152940E+10,      /* I =125 */
(PID.TID 0000.0001)                 3.341968103208270E+10,      /* I =126 */
(PID.TID 0000.0001)                 2.390126200743558E+10,      /* I =127 */
(PID.TID 0000.0001)     2 @  1.216690346714270E+10,             /* I =128:129 */
(PID.TID 0000.0001)                 2.390126200743558E+10,      /* I =130 */
(PID.TID 0000.0001)                 3.341968103208270E+10,      /* I =131 */
(PID.TID 0000.0001)                 4.168532893152940E+10,      /* I =132 */
(PID.TID 0000.0001)                 4.909074590409594E+10,      /* I =133 */
(PID.TID 0000.0001)                 5.581203765722642E+10,      /* I =134 */
(PID.TID 0000.0001)                 6.193257577506789E+10,      /* I =135 */
(PID.TID 0000.0001)                 6.748840226738273E+10,      /* I =136 */
(PID.TID 0000.0001)                 7.248875782324816E+10,      /* I =137 */
(PID.TID 0000.0001)                 7.692702995909871E+10,      /* I =138 */
(PID.TID 0000.0001)                 8.078743937057303E+10,      /* I =139 */
(PID.TID 0000.0001)                 8.404959656062837E+10,      /* I =140 */
(PID.TID 0000.0001)                 8.669186205742539E+10,      /* I =141 */
(PID.TID 0000.0001)                 8.869393350723612E+10,      /* I =142 */
(PID.TID 0000.0001)                 9.003884657168852E+10,      /* I =143 */
(PID.TID 0000.0001)     2 @  9.071447638299398E+10,             /* I =144:145 */
(PID.TID 0000.0001)                 9.003884657168852E+10,      /* I =146 */
(PID.TID 0000.0001)                 8.869393350723612E+10,      /* I =147 */
(PID.TID 0000.0001)                 8.669186205742539E+10,      /* I =148 */
(PID.TID 0000.0001)                 8.404959656062837E+10,      /* I =149 */
(PID.TID 0000.0001)                 8.078743937057303E+10,      /* I =150 */
(PID.TID 0000.0001)                 7.692702995909871E+10,      /* I =151 */
(PID.TID 0000.0001)                 7.248875782324816E+10,      /* I =152 */
(PID.TID 0000.0001)                 6.748840226738273E+10,      /* I =153 */
(PID.TID 0000.0001)                 6.193257577506789E+10,      /* I =154 */
(PID.TID 0000.0001)                 5.581203765722642E+10,      /* I =155 */
(PID.TID 0000.0001)                 4.909074590409594E+10,      /* I =156 */
(PID.TID 0000.0001)                 4.168532893152940E+10,      /* I =157 */
(PID.TID 0000.0001)                 3.341968103208270E+10,      /* I =158 */
(PID.TID 0000.0001)                 2.390126200743558E+10,      /* I =159 */
(PID.TID 0000.0001)     2 @  1.216690346714270E+10,             /* I =160:161 */
(PID.TID 0000.0001)                 2.390126200743558E+10,      /* I =162 */
(PID.TID 0000.0001)                 3.341968103208270E+10,      /* I =163 */
(PID.TID 0000.0001)                 4.168532893152940E+10,      /* I =164 */
(PID.TID 0000.0001)                 4.909074590409594E+10,      /* I =165 */
(PID.TID 0000.0001)                 5.581203765722642E+10,      /* I =166 */
(PID.TID 0000.0001)                 6.193257577506789E+10,      /* I =167 */
(PID.TID 0000.0001)                 6.748840226738273E+10,      /* I =168 */
(PID.TID 0000.0001)                 7.248875782324816E+10,      /* I =169 */
(PID.TID 0000.0001)                 7.692702995909871E+10,      /* I =170 */
(PID.TID 0000.0001)                 8.078743937057303E+10,      /* I =171 */
(PID.TID 0000.0001)                 8.404959656062837E+10,      /* I =172 */
(PID.TID 0000.0001)                 8.669186205742539E+10,      /* I =173 */
(PID.TID 0000.0001)                 8.869393350723612E+10,      /* I =174 */
(PID.TID 0000.0001)                 9.003884657168852E+10,      /* I =175 */
(PID.TID 0000.0001)     2 @  9.071447638299398E+10,             /* I =176:177 */
(PID.TID 0000.0001)                 9.003884657168852E+10,      /* I =178 */
(PID.TID 0000.0001)                 8.869393350723612E+10,      /* I =179 */
(PID.TID 0000.0001)                 8.669186205742539E+10,      /* I =180 */
(PID.TID 0000.0001)                 8.404959656062837E+10,      /* I =181 */
(PID.TID 0000.0001)                 8.078743937057303E+10,      /* I =182 */
(PID.TID 0000.0001)                 7.692702995909871E+10,      /* I =183 */
(PID.TID 0000.0001)                 7.248875782324816E+10,      /* I =184 */
(PID.TID 0000.0001)                 6.748840226738273E+10,      /* I =185 */
(PID.TID 0000.0001)                 6.193257577506789E+10,      /* I =186 */
(PID.TID 0000.0001)                 5.581203765722642E+10,      /* I =187 */
(PID.TID 0000.0001)                 4.909074590409594E+10,      /* I =188 */
(PID.TID 0000.0001)                 4.168532893152940E+10,      /* I =189 */
(PID.TID 0000.0001)                 3.341968103208270E+10,      /* I =190 */
(PID.TID 0000.0001)                 2.390126200743558E+10,      /* I =191 */
(PID.TID 0000.0001)                 1.216690346714270E+10       /* I =192 */
(PID.TID 0000.0001)     ;
(PID.TID 0000.0001) rAs =  /* rAs(1,:,1,:) ( m - cartesian, degrees - spherical ) */
(PID.TID 0000.0001)                 1.216690346714270E+10,      /* J =  1 */
(PID.TID 0000.0001)                 1.974052138506315E+10,      /* J =  2 */
(PID.TID 0000.0001)                 2.943712825252015E+10,      /* J =  3 */
(PID.TID 0000.0001)                 3.801790263324359E+10,      /* J =  4 */
(PID.TID 0000.0001)                 4.571243814189866E+10,      /* J =  5 */
(PID.TID 0000.0001)                 5.269930713599979E+10,      /* J =  6 */
(PID.TID 0000.0001)                 5.907428494299064E+10,      /* J =  7 */
(PID.TID 0000.0001)                 6.488320895111515E+10,      /* J =  8 */
(PID.TID 0000.0001)                 7.014205907741883E+10,      /* J =  9 */
(PID.TID 0000.0001)                 7.484854821847499E+10,      /* J = 10 */
(PID.TID 0000.0001)                 7.898934631431560E+10,      /* J = 11 */
(PID.TID 0000.0001)                 8.254500894894537E+10,      /* J = 12 */
(PID.TID 0000.0001)                 8.549360686473493E+10,      /* J = 13 */
(PID.TID 0000.0001)                 8.781353403175085E+10,      /* J = 14 */
(PID.TID 0000.0001)                 8.948571540392020E+10,      /* J = 15 */
(PID.TID 0000.0001)                 9.049530583086168E+10,      /* J = 16 */
(PID.TID 0000.0001)                 9.083293515008307E+10,      /* J = 17 */
(PID.TID 0000.0001)                 9.049530583087069E+10,      /* J = 18 */
(PID.TID 0000.0001)                 8.948571540391121E+10,      /* J = 19 */
(PID.TID 0000.0001)                 8.781353403174184E+10,      /* J = 20 */
(PID.TID 0000.0001)                 8.549360686467183E+10,      /* J = 21 */
(PID.TID 0000.0001)                 8.254500894890933E+10,      /* J = 22 */
(PID.TID 0000.0001)                 7.898934631434262E+10,      /* J = 23 */
(PID.TID 0000.0001)                 7.484854821844796E+10,      /* J = 24 */
(PID.TID 0000.0001)                 7.014205907742783E+10,      /* J = 25 */
(PID.TID 0000.0001)                 6.488320895111515E+10,      /* J = 26 */
(PID.TID 0000.0001)                 5.907428494299064E+10,      /* J = 27 */
(PID.TID 0000.0001)                 5.269930713599078E+10,      /* J = 28 */
(PID.TID 0000.0001)                 4.571243814190768E+10,      /* J = 29 */
(PID.TID 0000.0001)                 3.801790263325260E+10,      /* J = 30 */
(PID.TID 0000.0001)                 2.943712825251114E+10,      /* J = 31 */
(PID.TID 0000.0001)                 1.974052138509018E+10       /* J = 32 */
(PID.TID 0000.0001)     ;
(PID.TID 0000.0001) // =======================================================
(PID.TID 0000.0001) // End of Model config. summary
(PID.TID 0000.0001) // =======================================================
(PID.TID 0000.0001) 
(PID.TID 0000.0001) // =======================================================
(PID.TID 0000.0001) // Field Ocean mixed-layer depth on atmos grid at iteration          1
(PID.TID 0000.0001) // CMIN =          5.000000000000000E+01
(PID.TID 0000.0001) // CMAX =          5.000000000000000E+01
(PID.TID 0000.0001) // CINT =          0.000000000000000E+00
(PID.TID 0000.0001) // SYMBOLS (CMIN->CMAX): -abcdefghijklmnopqrstuvwxyz+
(PID.TID 0000.0001) //                  0.0: .
(PID.TID 0000.0001) // RANGE I (Lo:Hi:Step):(  -1: 194:   1)
(PID.TID 0000.0001) // RANGE J (Lo:Hi:Step):(  34:  -1:  -1)
(PID.TID 0000.0001) // RANGE K (Lo:Hi:Step):(   1:   1:   1)
(PID.TID 0000.0001) // =======================================================
(PID.TID 0000.0001) // =======================================================
(PID.TID 0000.0001) // END OF FIELD                                          =
(PID.TID 0000.0001) // =======================================================
(PID.TID 0000.0001) 
(PID.TID 0000.0001) // =======================================================
(PID.TID 0000.0001) // Field Initial Temperature at iteration          1
(PID.TID 0000.0001) // CMIN =          2.896000000000000E+02
(PID.TID 0000.0001) // CMAX =          2.896000000000000E+02
(PID.TID 0000.0001) // CINT =          0.000000000000000E+00
(PID.TID 0000.0001) // SYMBOLS (CMIN->CMAX): -abcdefghijklmnopqrstuvwxyz+
(PID.TID 0000.0001) //                  0.0: .
(PID.TID 0000.0001) // RANGE I (Lo:Hi:Step):(   1: 192:   1)
(PID.TID 0000.0001) // RANGE J (Lo:Hi:Step):(  32:   1:  -1)
(PID.TID 0000.0001) // RANGE K (Lo:Hi:Step):(   1:   1:   1)
(PID.TID 0000.0001) // =======================================================
(PID.TID 0000.0001) // =======================================================
(PID.TID 0000.0001) // END OF FIELD                                          =
(PID.TID 0000.0001) // =======================================================
(PID.TID 0000.0001) 
(PID.TID 0000.0001) // =======================================================
(PID.TID 0000.0001) // Field Initial Salinity at iteration          1
(PID.TID 0000.0001) // CMIN =          1.000000000000000E+32
(PID.TID 0000.0001) // CMAX =         -1.000000000000000E+32
(PID.TID 0000.0001) // CINT =          0.000000000000000E+00
(PID.TID 0000.0001) // SYMBOLS (CMIN->CMAX): -abcdefghijklmnopqrstuvwxyz+
(PID.TID 0000.0001) //                  0.0: .
(PID.TID 0000.0001) // RANGE I (Lo:Hi:Step):(   1: 192:   1)
(PID.TID 0000.0001) // RANGE J (Lo:Hi:Step):(  32:   1:  -1)
(PID.TID 0000.0001) // RANGE K (Lo:Hi:Step):(   1:   1:   1)
(PID.TID 0000.0001) // =======================================================
(PID.TID 0000.0001) // =======================================================
(PID.TID 0000.0001) // END OF FIELD                                          =
(PID.TID 0000.0001) // =======================================================
(PID.TID 0000.0001) 
(PID.TID 0000.0001) Start initial hydrostatic pressure computation
(PID.TID 0000.0001) Pressure is predetermined for buoyancyRelation ATMOSPHERIC
(PID.TID 0000.0001) 
(PID.TID 0000.0001)  MDSREADFIELD: opening global file: land_grT_ini.cpl.bin
(PID.TID 0000.0001)  MDSREADFIELD: opening global file: land_grW_ini.mn.bin
(PID.TID 0000.0001)  MDSREADFIELD: opening global file: land_snw_ini.cpl.bin
(PID.TID 0000.0001) // =======================================================
(PID.TID 0000.0001) // Model current state
(PID.TID 0000.0001) // =======================================================
(PID.TID 0000.0001) 
(PID.TID 0000.0001) // =======================================================
(PID.TID 0000.0001) // Begin MONITOR dynamic field statistics
(PID.TID 0000.0001) // =======================================================
(PID.TID 0000.0001) %MON time_tsnumber                =                     0
(PID.TID 0000.0001) %MON time_secondsf                =   0.0000000000000E+00
(PID.TID 0000.0001) %MON dynstat_eta_max              =   0.0000000000000E+00
(PID.TID 0000.0001) %MON dynstat_eta_min              =   0.0000000000000E+00
(PID.TID 0000.0001) %MON dynstat_eta_mean             =   0.0000000000000E+00
(PID.TID 0000.0001) %MON dynstat_eta_sd               =   0.0000000000000E+00
(PID.TID 0000.0001) %MON dynstat_eta_del2             =   0.0000000000000E+00
(PID.TID 0000.0001) %MON dynstat_uvel_max             =   0.0000000000000E+00
(PID.TID 0000.0001) %MON dynstat_uvel_min             =   0.0000000000000E+00
(PID.TID 0000.0001) %MON dynstat_uvel_mean            =   0.0000000000000E+00
(PID.TID 0000.0001) %MON dynstat_uvel_sd              =   0.0000000000000E+00
(PID.TID 0000.0001) %MON dynstat_uvel_del2            =   0.0000000000000E+00
(PID.TID 0000.0001) %MON dynstat_vvel_max             =   0.0000000000000E+00
(PID.TID 0000.0001) %MON dynstat_vvel_min             =   0.0000000000000E+00
(PID.TID 0000.0001) %MON dynstat_vvel_mean            =   0.0000000000000E+00
(PID.TID 0000.0001) %MON dynstat_vvel_sd              =   0.0000000000000E+00
(PID.TID 0000.0001) %MON dynstat_vvel_del2            =   0.0000000000000E+00
(PID.TID 0000.0001) %MON dynstat_wvel_max             =   0.0000000000000E+00
(PID.TID 0000.0001) %MON dynstat_wvel_min             =   0.0000000000000E+00
(PID.TID 0000.0001) %MON dynstat_wvel_mean            =   0.0000000000000E+00
(PID.TID 0000.0001) %MON dynstat_wvel_sd              =   0.0000000000000E+00
(PID.TID 0000.0001) %MON dynstat_wvel_del2            =   0.0000000000000E+00
(PID.TID 0000.0001) %MON dynstat_theta_max            =   4.3740000000000E+02
(PID.TID 0000.0001) %MON dynstat_theta_min            =   2.8960000000000E+02
(PID.TID 0000.0001) %MON dynstat_theta_mean           =   3.3171566851928E+02
(PID.TID 0000.0001) %MON dynstat_theta_sd             =   4.7418367738381E+01
(PID.TID 0000.0001) %MON dynstat_theta_del2           =   0.0000000000000E+00
(PID.TID 0000.0001) %MON dynstat_salt_max             =   0.0000000000000E+00
(PID.TID 0000.0001) %MON dynstat_salt_min             =   0.0000000000000E+00
(PID.TID 0000.0001) %MON dynstat_salt_mean            =   0.0000000000000E+00
(PID.TID 0000.0001) %MON dynstat_salt_sd              =   0.0000000000000E+00
(PID.TID 0000.0001) %MON dynstat_salt_del2            =   0.0000000000000E+00
(PID.TID 0000.0001) %MON advcfl_uvel_max              =   0.0000000000000E+00
(PID.TID 0000.0001) %MON advcfl_vvel_max              =   0.0000000000000E+00
(PID.TID 0000.0001) %MON advcfl_wvel_max              =   0.0000000000000E+00
(PID.TID 0000.0001) %MON advcfl_W_hf_max              =   0.0000000000000E+00
(PID.TID 0000.0001) %MON pe_b_mean                    =   0.0000000000000E+00
(PID.TID 0000.0001) %MON ke_max                       =   0.0000000000000E+00
(PID.TID 0000.0001) %MON ke_mean                      =   0.0000000000000E+00
(PID.TID 0000.0001) %MON ke_vol                       =   4.9523908919847E+19
(PID.TID 0000.0001) %MON vort_r_min                   =   0.0000000000000E+00
(PID.TID 0000.0001) %MON vort_r_max                   =   0.0000000000000E+00
(PID.TID 0000.0001) %MON vort_a_mean                  =   6.7059142262023E-08
(PID.TID 0000.0001) %MON vort_a_sd                    =   8.3707550193536E-05
(PID.TID 0000.0001) %MON vort_p_mean                  =   6.8751141692627E-08
(PID.TID 0000.0001) %MON vort_p_sd                    =   9.1376237406444E-05
(PID.TID 0000.0001) %MON surfExpan_theta_mean         =   0.0000000000000E+00
(PID.TID 0000.0001) %MON surfExpan_salt_mean          =   0.0000000000000E+00
(PID.TID 0000.0001) %MON surfExpan_Heat_mean          =   0.0000000000000E+00
(PID.TID 0000.0001) %MON En_Budget_T2PE_mean          =   0.0000000000000E+00
(PID.TID 0000.0001) // =======================================================
(PID.TID 0000.0001) // End MONITOR dynamic field statistics
(PID.TID 0000.0001) // =======================================================
(PID.TID 0000.0001) // =======================================================
(PID.TID 0000.0001) // Begin MONITOR Land statistics
(PID.TID 0000.0001) // =======================================================
(PID.TID 0000.0001) %MON land_time_sec                =   0.0000000000000E+00
(PID.TID 0000.0001) %MON land_SnwH_ave_G              =   1.5327595968918E-01
(PID.TID 0000.0001) %MON land_SnwH_ave_S              =   5.5906277570341E-01
(PID.TID 0000.0001) %MON land_SnwH_ave_T              =   2.7405468051285E-07
(PID.TID 0000.0001) %MON land_SnwH_ave_N              =   1.2399418417812E-01
(PID.TID 0000.0001) %MON land_SnwH_max_S              =   1.0000000000000E+00
(PID.TID 0000.0001) %MON land_SnwH_max_T              =   7.7654719504950E-05
(PID.TID 0000.0001) %MON land_SnwH_max_N              =   1.0000000000000E+00
(PID.TID 0000.0001) %MON land_TotEnerg_G              =  -6.2318014275423E+21
(PID.TID 0000.0001) %MON land_TotEnerg_S              =  -4.9893442833974E+21
(PID.TID 0000.0001) %MON land_TotEnerg_T              =   7.3640891470528E+21
(PID.TID 0000.0001) %MON land_TotEnerg_N              =  -8.6065462911976E+21
(PID.TID 0000.0001) %MON land_Tsrf_ave_G              =  -2.5815959216687E+00
(PID.TID 0000.0001) %MON land_Tsrf_ave_S              =  -3.3132697963695E+00
(PID.TID 0000.0001) %MON land_Tsrf_ave_T              =   2.0149199094728E+01
(PID.TID 0000.0001) %MON land_Tsrf_ave_N              =  -1.7523201785581E+01
(PID.TID 0000.0001) %MON land_Tsrf_min_S              =  -3.8985871813098E+01
(PID.TID 0000.0001) %MON land_Tsrf_min_T              =  -8.0316451094858E+00
(PID.TID 0000.0001) %MON land_Tsrf_min_N              =  -5.5018877502675E+01
(PID.TID 0000.0001) %MON land_Tsrf_max_S              =   3.3608904510445E+01
(PID.TID 0000.0001) %MON land_Tsrf_max_T              =   3.7568273139015E+01
(PID.TID 0000.0001) %MON land_Tsrf_max_N              =   1.5686208531239E+01
(PID.TID 0000.0001) %MON land_Tgr1_ave_G              =  -2.5815959216687E+00
(PID.TID 0000.0001) %MON land_Tgr1_ave_S              =  -3.3132697963695E+00
(PID.TID 0000.0001) %MON land_Tgr1_ave_T              =   2.0149199094728E+01
(PID.TID 0000.0001) %MON land_Tgr1_ave_N              =  -1.7523201785581E+01
(PID.TID 0000.0001) %MON land_Tgr1_min_S              =  -3.8985871813098E+01
(PID.TID 0000.0001) %MON land_Tgr1_min_T              =  -8.0316451094858E+00
(PID.TID 0000.0001) %MON land_Tgr1_min_N              =  -5.5018877502675E+01
(PID.TID 0000.0001) %MON land_Tgr1_max_S              =   3.3608904510445E+01
(PID.TID 0000.0001) %MON land_Tgr1_max_T              =   3.7568273139015E+01
(PID.TID 0000.0001) %MON land_Tgr1_max_N              =   1.5686208531239E+01
(PID.TID 0000.0001) %MON land_Tgr2_ave_G              =   4.2075844789702E+00
(PID.TID 0000.0001) %MON land_Tgr2_ave_S              =  -1.8731900381715E+01
(PID.TID 0000.0001) %MON land_Tgr2_ave_T              =   2.2013117275370E+01
(PID.TID 0000.0001) %MON land_Tgr2_ave_N              =  -2.4099755438273E-01
(PID.TID 0000.0001) %MON land_Tgr2_min_S              =  -6.4762296561906E+01
(PID.TID 0000.0001) %MON land_Tgr2_min_T              =  -9.7051070040243E+00
(PID.TID 0000.0001) %MON land_Tgr2_min_N              =  -4.0193619391069E+01
(PID.TID 0000.0001) %MON land_Tgr2_max_S              =   2.3360008819708E+01
(PID.TID 0000.0001) %MON land_Tgr2_max_T              =   3.1360925912704E+01
(PID.TID 0000.0001) %MON land_Tgr2_max_N              =   2.9833038898793E+01
(PID.TID 0000.0001) %MON land_grdW_ave_G              =   4.8705004606900E-01
(PID.TID 0000.0001) %MON land_grdW_ave_S              =   3.0877764965169E-01
(PID.TID 0000.0001) %MON land_grdW_ave_T              =   5.6494425086260E-01
(PID.TID 0000.0001) %MON land_grdW_ave_N              =   4.9286506610416E-01
(PID.TID 0000.0001) %MON land_grdW_min_S              =   2.5944074829007E-02
(PID.TID 0000.0001) %MON land_grdW_min_T              =   0.0000000000000E+00
(PID.TID 0000.0001) %MON land_grdW_min_N              =   0.0000000000000E+00
(PID.TID 0000.0001) // =======================================================
(PID.TID 0000.0001) // End MONITOR Land statistics
(PID.TID 0000.0001) // =======================================================
(PID.TID 0000.0001) // =======================================================
(PID.TID 0000.0001) // Begin MONITOR Therm.SeaIce statistics
(PID.TID 0000.0001) // =======================================================
(PID.TID 0000.0001) %MON thSI_time_sec                =   0.0000000000000E+00
(PID.TID 0000.0001) %MON thSI_Ice_Area_G              =   0.0000000000000E+00
(PID.TID 0000.0001) %MON thSI_Ice_Area_S              =   0.0000000000000E+00
(PID.TID 0000.0001) %MON thSI_Ice_Area_N              =   0.0000000000000E+00
(PID.TID 0000.0001) %MON thSI_IceH_ave_G              =   0.0000000000000E+00
(PID.TID 0000.0001) %MON thSI_IceH_ave_S              =   0.0000000000000E+00
(PID.TID 0000.0001) %MON thSI_IceH_ave_N              =   0.0000000000000E+00
(PID.TID 0000.0001) %MON thSI_IceH_max_S              =   0.0000000000000E+00
(PID.TID 0000.0001) %MON thSI_IceH_max_N              =   0.0000000000000E+00
(PID.TID 0000.0001) %MON thSI_SnwH_ave_G              =   0.0000000000000E+00
(PID.TID 0000.0001) %MON thSI_SnwH_ave_S              =   0.0000000000000E+00
(PID.TID 0000.0001) %MON thSI_SnwH_ave_N              =   0.0000000000000E+00
(PID.TID 0000.0001) %MON thSI_SnwH_max_S              =   0.0000000000000E+00
(PID.TID 0000.0001) %MON thSI_SnwH_max_N              =   0.0000000000000E+00
(PID.TID 0000.0001) %MON thSI_TotEnerg_G              =   0.0000000000000E+00
(PID.TID 0000.0001) %MON thSI_Tsrf_ave_G              =   0.0000000000000E+00
(PID.TID 0000.0001) %MON thSI_Tsrf_ave_S              =   0.0000000000000E+00
(PID.TID 0000.0001) %MON thSI_Tsrf_ave_N              =   0.0000000000000E+00
(PID.TID 0000.0001) %MON thSI_Tsrf_min_S              =   0.0000000000000E+00
(PID.TID 0000.0001) %MON thSI_Tsrf_min_N              =   0.0000000000000E+00
(PID.TID 0000.0001) %MON thSI_Tsrf_max_S              =   0.0000000000000E+00
(PID.TID 0000.0001) %MON thSI_Tsrf_max_N              =   0.0000000000000E+00
(PID.TID 0000.0001) %MON thSI_Tic1_ave_G              =   0.0000000000000E+00
(PID.TID 0000.0001) %MON thSI_Tic1_ave_S              =   0.0000000000000E+00
(PID.TID 0000.0001) %MON thSI_Tic1_ave_N              =   0.0000000000000E+00
(PID.TID 0000.0001) %MON thSI_Tic1_min_S              =   0.0000000000000E+00
(PID.TID 0000.0001) %MON thSI_Tic1_min_N              =   0.0000000000000E+00
(PID.TID 0000.0001) %MON thSI_Tic1_max_S              =   0.0000000000000E+00
(PID.TID 0000.0001) %MON thSI_Tic1_max_N              =   0.0000000000000E+00
(PID.TID 0000.0001) %MON thSI_Tic2_ave_G              =   0.0000000000000E+00
(PID.TID 0000.0001) %MON thSI_Tic2_ave_S              =   0.0000000000000E+00
(PID.TID 0000.0001) %MON thSI_Tic2_ave_N              =   0.0000000000000E+00
(PID.TID 0000.0001) %MON thSI_Tic2_min_S              =   0.0000000000000E+00
(PID.TID 0000.0001) %MON thSI_Tic2_min_N              =   0.0000000000000E+00
(PID.TID 0000.0001) %MON thSI_Tic2_max_S              =   0.0000000000000E+00
(PID.TID 0000.0001) %MON thSI_Tic2_max_N              =   0.0000000000000E+00
(PID.TID 0000.0001) // =======================================================
(PID.TID 0000.0001) // End MONITOR Therm.SeaIce statistics
(PID.TID 0000.0001) // =======================================================
(PID.TID 0000.0001)  MDSREADFIELD: opening global file: albedo_cs32.bin
(PID.TID 0000.0001)  MDSREADFIELD: opening global file: vegetFrc.cpl_FM.bin
(PID.TID 0000.0001)  MDSREADFIELD: opening global file: seaSurfT.cpl_FM.bin
(PID.TID 0000.0001)  MDSREADFIELD: opening global file: seaSurfT.cpl_FM.bin
(PID.TID 0000.0001)  MDSREADFIELD: opening global file: lndSurfT.cpl_FM.bin
(PID.TID 0000.0001)  MDSREADFIELD: opening global file: lndSurfT.cpl_FM.bin
(PID.TID 0000.0001)  MDSREADFIELD: opening global file: seaIce.cpl3FM.bin
(PID.TID 0000.0001)  MDSREADFIELD: opening global file: seaIce.cpl3FM.bin
(PID.TID 0000.0001)  MDSREADFIELD: opening global file: snowDepth.cpl_FM.bin
(PID.TID 0000.0001)  MDSREADFIELD: opening global file: snowDepth.cpl_FM.bin
(PID.TID 0000.0001)  MDSREADFIELD: opening global file: soilMoist.cpl_FM.bin
(PID.TID 0000.0001)  MDSREADFIELD: opening global file: soilMoist.cpl_FM.bin
(PID.TID 0000.0001)  MDSREADFIELD: opening global file: soilMoist.cpl_FM.bin
(PID.TID 0000.0001)  MDSREADFIELD: opening global file: soilMoist.cpl_FM.bin
 cg2d: Sum(rhs),rhsMax =   3.97903932025656E-12  4.56406615217961E+03
(PID.TID 0000.0001)                    cg2d_init_res =    2.69435642942126E+04
(PID.TID 0000.0001)                       cg2d_iters =    16
(PID.TID 0000.0001)                         cg2d_res =    1.06445831620481E-10
(PID.TID 0000.0001) // =======================================================
(PID.TID 0000.0001) // Begin MONITOR dynamic field statistics
(PID.TID 0000.0001) // =======================================================
(PID.TID 0000.0001) %MON time_tsnumber                =                     1
(PID.TID 0000.0001) %MON time_secondsf                =   4.5000000000000E+02
(PID.TID 0000.0001) %MON dynstat_eta_max              =   4.9613836014184E+02
(PID.TID 0000.0001) %MON dynstat_eta_min              =  -4.3215362210608E+02
(PID.TID 0000.0001) %MON dynstat_eta_mean             =  -2.2435579713723E-16
(PID.TID 0000.0001) %MON dynstat_eta_sd               =   4.9165804759269E+01
(PID.TID 0000.0001) %MON dynstat_eta_del2             =   1.4268407331310E+01
(PID.TID 0000.0001) %MON dynstat_uvel_max             =   3.4896271935293E+00
(PID.TID 0000.0001) %MON dynstat_uvel_min             =  -2.8043477370503E+00
(PID.TID 0000.0001) %MON dynstat_uvel_mean            =  -8.6186344161884E-04
(PID.TID 0000.0001) %MON dynstat_uvel_sd              =   2.3938982710456E-01
(PID.TID 0000.0001) %MON dynstat_uvel_del2            =   3.3130023277177E-02
(PID.TID 0000.0001) %MON dynstat_vvel_max             =   3.6044902563287E+00
(PID.TID 0000.0001) %MON dynstat_vvel_min             =  -3.8832729647589E+00
(PID.TID 0000.0001) %MON dynstat_vvel_mean            =   1.0770655299200E-03
(PID.TID 0000.0001) %MON dynstat_vvel_sd              =   2.3140373950851E-01
(PID.TID 0000.0001) %MON dynstat_vvel_del2            =   3.3576370990052E-02
(PID.TID 0000.0001) %MON dynstat_wvel_max             =   4.7528267180664E-02
(PID.TID 0000.0001) %MON dynstat_wvel_min             =  -3.2491026139051E-01
(PID.TID 0000.0001) %MON dynstat_wvel_mean            =  -1.2601788696702E-03
(PID.TID 0000.0001) %MON dynstat_wvel_sd              =   1.0323039191429E-02
(PID.TID 0000.0001) %MON dynstat_wvel_del2            =   1.1364719435226E-03
(PID.TID 0000.0001) %MON dynstat_theta_max            =   4.3742421279788E+02
(PID.TID 0000.0001) %MON dynstat_theta_min            =   2.8934446142054E+02
(PID.TID 0000.0001) %MON dynstat_theta_mean           =   3.3171676172326E+02
(PID.TID 0000.0001) %MON dynstat_theta_sd             =   4.7417133656499E+01
(PID.TID 0000.0001) %MON dynstat_theta_del2           =   1.8580024936098E-03
(PID.TID 0000.0001) %MON dynstat_salt_max             =   4.8330616477211E-01
(PID.TID 0000.0001) %MON dynstat_salt_min             =  -3.6263106967984E-03
(PID.TID 0000.0001) %MON dynstat_salt_mean            =   4.0262311598958E-03
(PID.TID 0000.0001) %MON dynstat_salt_sd              =   1.7723624218200E-02
(PID.TID 0000.0001) %MON dynstat_salt_del2            =   7.7663633143347E-04
(PID.TID 0000.0001) %MON advcfl_uvel_max              =   5.0093339770585E-03
(PID.TID 0000.0001) %MON advcfl_vvel_max              =   5.5233695889847E-03
(PID.TID 0000.0001) %MON advcfl_wvel_max              =   5.3167133682084E-03
(PID.TID 0000.0001) %MON advcfl_W_hf_max              =   1.3330281514811E-02
(PID.TID 0000.0001) %MON pe_b_mean                    =  -1.2347200430462E-01
(PID.TID 0000.0001) %MON ke_max                       =   6.1065189290563E+00
(PID.TID 0000.0001) %MON ke_mean                      =   5.5101768014871E-02
(PID.TID 0000.0001) %MON ke_vol                       =   4.9523908919847E+19
(PID.TID 0000.0001) %MON vort_r_min                   =  -9.4580139346488E-06
(PID.TID 0000.0001) %MON vort_r_max                   =   7.4909088464658E-06
(PID.TID 0000.0001) %MON vort_a_mean                  =   6.7059142262051E-08
(PID.TID 0000.0001) %MON vort_a_sd                    =   8.3707668575653E-05
(PID.TID 0000.0001) %MON vort_p_mean                  =   6.8751141692655E-08
(PID.TID 0000.0001) %MON vort_p_sd                    =   9.1371923286236E-05
(PID.TID 0000.0001) %MON surfExpan_theta_mean         =   1.1973318489192E-01
(PID.TID 0000.0001) %MON surfExpan_salt_mean          =   8.6085474370720E-07
(PID.TID 0000.0001) %MON surfExpan_Heat_mean          =  -9.8253401830281E+00
(PID.TID 0000.0001) %MON En_Budget_T2PE_mean          =   1.8746049275873E+01
(PID.TID 0000.0001) // =======================================================
(PID.TID 0000.0001) // End MONITOR dynamic field statistics
(PID.TID 0000.0001) // =======================================================
(PID.TID 0000.0001) // =======================================================
(PID.TID 0000.0001) // Begin MONITOR Land statistics
(PID.TID 0000.0001) // =======================================================
(PID.TID 0000.0001) %MON land_time_sec                =   4.5000000000000E+02
(PID.TID 0000.0001) %MON land_SnwH_ave_G              =   1.5324899397338E-01
(PID.TID 0000.0001) %MON land_SnwH_ave_S              =   5.5906218965844E-01
(PID.TID 0000.0001) %MON land_SnwH_ave_T              =   0.0000000000000E+00
(PID.TID 0000.0001) %MON land_SnwH_ave_N              =   1.2394083715153E-01
(PID.TID 0000.0001) %MON land_SnwH_max_S              =   9.9999995109566E-01
(PID.TID 0000.0001) %MON land_SnwH_max_T              =   0.0000000000000E+00
(PID.TID 0000.0001) %MON land_SnwH_max_N              =   9.9999994050054E-01
(PID.TID 0000.0001) %MON LAND : Area= 1.460176263E+14 ; Lat sep= -24.00  24.00
(PID.TID 0000.0001) %MON LAND : LatA= 2.377676559E+13 4.894489218E+13 7.329596851E+13
(PID.TID 0000.0001) %MON land_TotEnerg_G              =  -6.2449515374219E+21
(PID.TID 0000.0001) %MON land_TotEnerg_S              =  -4.9909822313117E+21
(PID.TID 0000.0001) %MON land_TotEnerg_T              =   7.3535791679035E+21
(PID.TID 0000.0001) %MON land_TotEnerg_N              =  -8.6075484740138E+21
(PID.TID 0000.0001) %MON land_Tsrf_ave_G              =  -4.5052770691886E+00
(PID.TID 0000.0001) %MON land_Tsrf_ave_S              =  -4.8557437392646E+00
(PID.TID 0000.0001) %MON land_Tsrf_ave_T              =   1.8966286014486E+01
(PID.TID 0000.0001) %MON land_Tsrf_ave_N              =  -2.0065207357261E+01
(PID.TID 0000.0001) %MON land_Tsrf_min_S              =  -3.4789766254951E+01
(PID.TID 0000.0001) %MON land_Tsrf_min_T              =  -7.7792666782447E+00
(PID.TID 0000.0001) %MON land_Tsrf_min_N              =  -5.2214355600519E+01
(PID.TID 0000.0001) %MON land_Tsrf_max_S              =   3.1948450259187E+01
(PID.TID 0000.0001) %MON land_Tsrf_max_T              =   3.5749274328408E+01
(PID.TID 0000.0001) %MON land_Tsrf_max_N              =   1.5372300088674E+01
(PID.TID 0000.0001) %MON land_Tgr1_ave_G              =  -3.1128744327563E+00
(PID.TID 0000.0001) %MON land_Tgr1_ave_S              =  -3.7817603349593E+00
(PID.TID 0000.0001) %MON land_Tgr1_ave_T              =   1.8966286014486E+01
(PID.TID 0000.0001) %MON land_Tgr1_ave_N              =  -1.7639705931337E+01
(PID.TID 0000.0001) %MON land_Tgr1_min_S              =  -3.8998400972344E+01
(PID.TID 0000.0001) %MON land_Tgr1_min_T              =  -7.7792666782447E+00
(PID.TID 0000.0001) %MON land_Tgr1_min_N              =  -5.5006040010541E+01
(PID.TID 0000.0001) %MON land_Tgr1_max_S              =   3.1948450259187E+01
(PID.TID 0000.0001) %MON land_Tgr1_max_T              =   3.5749274328408E+01
(PID.TID 0000.0001) %MON land_Tgr1_max_N              =   1.5372300088674E+01
(PID.TID 0000.0001) %MON land_Tgr2_ave_G              =   4.2074719542915E+00
(PID.TID 0000.0001) %MON land_Tgr2_ave_S              =  -1.8731652801597E+01
(PID.TID 0000.0001) %MON land_Tgr2_ave_T              =   2.2013064780622E+01
(PID.TID 0000.0001) %MON land_Tgr2_ave_N              =  -2.4126698108521E-01
(PID.TID 0000.0001) %MON land_Tgr2_min_S              =  -6.4761861869264E+01
(PID.TID 0000.0001) %MON land_Tgr2_min_T              =  -9.7050826694738E+00
(PID.TID 0000.0001) %MON land_Tgr2_min_N              =  -4.0193860864839E+01
(PID.TID 0000.0001) %MON land_Tgr2_max_S              =   2.3360154761154E+01
(PID.TID 0000.0001) %MON land_Tgr2_max_T              =   3.1360681941136E+01
(PID.TID 0000.0001) %MON land_Tgr2_max_N              =   2.9832408494537E+01
(PID.TID 0000.0001) %MON land_grdW_ave_G              =   4.8703719987843E-01
(PID.TID 0000.0001) %MON land_grdW_ave_S              =   3.0876198463413E-01
(PID.TID 0000.0001) %MON land_grdW_ave_T              =   5.6488810374958E-01
(PID.TID 0000.0001) %MON land_grdW_ave_N              =   4.9288204940644E-01
(PID.TID 0000.0001) %MON land_grdW_min_S              =   2.5934335757901E-02
(PID.TID 0000.0001) %MON land_grdW_min_T              =   0.0000000000000E+00
(PID.TID 0000.0001) %MON land_grdW_min_N              =   0.0000000000000E+00
(PID.TID 0000.0001) // =======================================================
(PID.TID 0000.0001) // End MONITOR Land statistics
(PID.TID 0000.0001) // =======================================================
(PID.TID 0000.0001) // =======================================================
(PID.TID 0000.0001) // Begin MONITOR Therm.SeaIce statistics
(PID.TID 0000.0001) // =======================================================
(PID.TID 0000.0001) %MON thSI_time_sec                =   4.5000000000000E+02
(PID.TID 0000.0001) %MON thSI_Ice_Area_G              =   1.4228206176723E+10
(PID.TID 0000.0001) %MON thSI_Ice_Area_S              =   0.0000000000000E+00
(PID.TID 0000.0001) %MON thSI_Ice_Area_N              =   1.4228206176723E+10
(PID.TID 0000.0001) %MON thSI_IceH_ave_G              =   1.0000000000000E-01
(PID.TID 0000.0001) %MON thSI_IceH_ave_S              =   0.0000000000000E+00
(PID.TID 0000.0001) %MON thSI_IceH_ave_N              =   1.0000000000000E-01
(PID.TID 0000.0001) %MON thSI_IceH_max_S              =   0.0000000000000E+00
(PID.TID 0000.0001) %MON thSI_IceH_max_N              =   1.0000000000000E-01
(PID.TID 0000.0001) %MON thSI_SnwH_ave_G              =   0.0000000000000E+00
(PID.TID 0000.0001) %MON thSI_SnwH_ave_S              =   0.0000000000000E+00
(PID.TID 0000.0001) %MON thSI_SnwH_ave_N              =   0.0000000000000E+00
(PID.TID 0000.0001) %MON thSI_SnwH_max_S              =   0.0000000000000E+00
(PID.TID 0000.0001) %MON thSI_SnwH_max_N              =   0.0000000000000E+00
(PID.TID 0000.0001) %MON thSI_TotEnerg_G              =  -4.2531549312148E+17
(PID.TID 0000.0001) %MON thSI_Tsrf_ave_G              =  -1.6648040993130E+00
(PID.TID 0000.0001) %MON thSI_Tsrf_ave_S              =   0.0000000000000E+00
(PID.TID 0000.0001) %MON thSI_Tsrf_ave_N              =  -1.6648040993130E+00
(PID.TID 0000.0001) %MON thSI_Tsrf_min_S              =   0.0000000000000E+00
(PID.TID 0000.0001) %MON thSI_Tsrf_min_N              =  -1.7019828369658E+00
(PID.TID 0000.0001) %MON thSI_Tsrf_max_S              =   0.0000000000000E+00
(PID.TID 0000.0001) %MON thSI_Tsrf_max_N              =  -1.6162307215484E+00
(PID.TID 0000.0001) %MON thSI_Tic1_ave_G              =  -1.6648040993130E+00
(PID.TID 0000.0001) %MON thSI_Tic1_ave_S              =   0.0000000000000E+00
(PID.TID 0000.0001) %MON thSI_Tic1_ave_N              =  -1.6648040993130E+00
(PID.TID 0000.0001) %MON thSI_Tic1_min_S              =   0.0000000000000E+00
(PID.TID 0000.0001) %MON thSI_Tic1_min_N              =  -1.7019828369658E+00
(PID.TID 0000.0001) %MON thSI_Tic1_max_S              =   0.0000000000000E+00
(PID.TID 0000.0001) %MON thSI_Tic1_max_N              =  -1.6162307215484E+00
(PID.TID 0000.0001) %MON thSI_Tic2_ave_G              =  -1.6648040993130E+00
(PID.TID 0000.0001) %MON thSI_Tic2_ave_S              =   0.0000000000000E+00
(PID.TID 0000.0001) %MON thSI_Tic2_ave_N              =  -1.6648040993130E+00
(PID.TID 0000.0001) %MON thSI_Tic2_min_S              =   0.0000000000000E+00
(PID.TID 0000.0001) %MON thSI_Tic2_min_N              =  -1.7019828369658E+00
(PID.TID 0000.0001) %MON thSI_Tic2_max_S              =   0.0000000000000E+00
(PID.TID 0000.0001) %MON thSI_Tic2_max_N              =  -1.6162307215484E+00
(PID.TID 0000.0001) // =======================================================
(PID.TID 0000.0001) // End MONITOR Therm.SeaIce statistics
(PID.TID 0000.0001) // =======================================================
 cg2d: Sum(rhs),rhsMax =  -3.04680725093931E-11  9.58133855637376E+03
(PID.TID 0000.0001)                    cg2d_init_res =    3.46523922474631E+04
(PID.TID 0000.0001)                       cg2d_iters =    17
(PID.TID 0000.0001)                         cg2d_res =    1.39031591782391E-11
(PID.TID 0000.0001) // =======================================================
(PID.TID 0000.0001) // Begin MONITOR dynamic field statistics
(PID.TID 0000.0001) // =======================================================
(PID.TID 0000.0001) %MON time_tsnumber                =                     2
(PID.TID 0000.0001) %MON time_secondsf                =   9.0000000000000E+02
(PID.TID 0000.0001) %MON dynstat_eta_max              =   1.0853910514170E+03
(PID.TID 0000.0001) %MON dynstat_eta_min              =  -1.0760012114455E+03
(PID.TID 0000.0001) %MON dynstat_eta_mean             =   1.1766912437267E-16
(PID.TID 0000.0001) %MON dynstat_eta_sd               =   1.1831655587544E+02
(PID.TID 0000.0001) %MON dynstat_eta_del2             =   2.9872882700092E+01
(PID.TID 0000.0001) %MON dynstat_uvel_max             =   5.5537477516381E+00
(PID.TID 0000.0001) %MON dynstat_uvel_min             =  -4.8926401841035E+00
(PID.TID 0000.0001) %MON dynstat_uvel_mean            =  -1.7288069464190E-03
(PID.TID 0000.0001) %MON dynstat_uvel_sd              =   4.1490169209761E-01
(PID.TID 0000.0001) %MON dynstat_uvel_del2            =   4.0980180503145E-02
(PID.TID 0000.0001) %MON dynstat_vvel_max             =   5.9063976158412E+00
(PID.TID 0000.0001) %MON dynstat_vvel_min             =  -6.6425516121518E+00
(PID.TID 0000.0001) %MON dynstat_vvel_mean            =   2.2384813946970E-03
(PID.TID 0000.0001) %MON dynstat_vvel_sd              =   3.9223923254290E-01
(PID.TID 0000.0001) %MON dynstat_vvel_del2            =   4.1445127997104E-02
(PID.TID 0000.0001) %MON dynstat_wvel_max             =   6.4868831768549E-02
(PID.TID 0000.0001) %MON dynstat_wvel_min             =  -5.1947527924529E-01
(PID.TID 0000.0001) %MON dynstat_wvel_mean            =  -2.0758537953006E-03
(PID.TID 0000.0001) %MON dynstat_wvel_sd              =   1.6609471738070E-02
(PID.TID 0000.0001) %MON dynstat_wvel_del2            =   1.6510634796858E-03
(PID.TID 0000.0001) %MON dynstat_theta_max            =   4.3746525739541E+02
(PID.TID 0000.0001) %MON dynstat_theta_min            =   2.8908988113879E+02
(PID.TID 0000.0001) %MON dynstat_theta_mean           =   3.3171699700049E+02
(PID.TID 0000.0001) %MON dynstat_theta_sd             =   4.7416616094114E+01
(PID.TID 0000.0001) %MON dynstat_theta_del2           =   3.8019489061692E-03
(PID.TID 0000.0001) %MON dynstat_salt_max             =   9.1989086893775E-01
(PID.TID 0000.0001) %MON dynstat_salt_min             =  -2.9723593176112E-03
(PID.TID 0000.0001) %MON dynstat_salt_mean            =   7.9943952216883E-03
(PID.TID 0000.0001) %MON dynstat_salt_sd              =   3.4968210277647E-02
(PID.TID 0000.0001) %MON dynstat_salt_del2            =   1.4851476418646E-03
(PID.TID 0000.0001) %MON advcfl_uvel_max              =   7.9723637424306E-03
(PID.TID 0000.0001) %MON advcfl_vvel_max              =   9.4480269352115E-03
(PID.TID 0000.0001) %MON advcfl_wvel_max              =   8.5005045694683E-03
(PID.TID 0000.0001) %MON advcfl_W_hf_max              =   2.1179804752582E-02
(PID.TID 0000.0001) %MON pe_b_mean                    =  -2.8685684258101E-01
(PID.TID 0000.0001) %MON ke_max                       =   1.6261953701544E+01
(PID.TID 0000.0001) %MON ke_mean                      =   1.6204074476864E-01
(PID.TID 0000.0001) %MON ke_vol                       =   4.9523908919847E+19
(PID.TID 0000.0001) %MON vort_r_min                   =  -1.6352536154171E-05
(PID.TID 0000.0001) %MON vort_r_max                   =   1.1014442377250E-05
(PID.TID 0000.0001) %MON vort_a_mean                  =   6.7059142262023E-08
(PID.TID 0000.0001) %MON vort_a_sd                    =   8.3708269774210E-05
(PID.TID 0000.0001) %MON vort_p_mean                  =   6.8751141547647E-08
(PID.TID 0000.0001) %MON vort_p_sd                    =   9.1387046133613E-05
(PID.TID 0000.0001) %MON surfExpan_theta_mean         =   1.9851912684024E-01
(PID.TID 0000.0001) %MON surfExpan_salt_mean          =   1.7496764490061E-06
(PID.TID 0000.0001) %MON surfExpan_Heat_mean          =  -1.6220506418192E+01
(PID.TID 0000.0001) %MON En_Budget_T2PE_mean          =   3.0984365028490E+01
(PID.TID 0000.0001) // =======================================================
(PID.TID 0000.0001) // End MONITOR dynamic field statistics
(PID.TID 0000.0001) // =======================================================
(PID.TID 0000.0001) // =======================================================
(PID.TID 0000.0001) // Begin MONITOR Land statistics
(PID.TID 0000.0001) // =======================================================
(PID.TID 0000.0001) %MON land_time_sec                =   9.0000000000000E+02
(PID.TID 0000.0001) %MON land_SnwH_ave_G              =   1.5324757180228E-01
(PID.TID 0000.0001) %MON land_SnwH_ave_S              =   5.5906150893174E-01
(PID.TID 0000.0001) %MON land_SnwH_ave_T              =   0.0000000000000E+00
(PID.TID 0000.0001) %MON land_SnwH_ave_N              =   1.2393822477635E-01
(PID.TID 0000.0001) %MON land_SnwH_max_S              =   9.9999903262772E-01
(PID.TID 0000.0001) %MON land_SnwH_max_T              =   0.0000000000000E+00
(PID.TID 0000.0001) %MON land_SnwH_max_N              =   9.9999987508519E-01
(PID.TID 0000.0001) %MON land_TotEnerg_G              =  -6.2564815953304E+21
(PID.TID 0000.0001) %MON land_TotEnerg_S              =  -4.9923928132787E+21
(PID.TID 0000.0001) %MON land_TotEnerg_T              =   7.3445863805968E+21
(PID.TID 0000.0001) %MON land_TotEnerg_N              =  -8.6086751626486E+21
(PID.TID 0000.0001) %MON land_Tsrf_ave_G              =  -5.0729778646852E+00
(PID.TID 0000.0001) %MON land_Tsrf_ave_S              =  -5.5210828801944E+00
(PID.TID 0000.0001) %MON land_Tsrf_ave_T              =   1.7948308537027E+01
(PID.TID 0000.0001) %MON land_Tsrf_ave_N              =  -2.0300553342615E+01
(PID.TID 0000.0001) %MON land_Tsrf_min_S              =  -3.4815105324779E+01
(PID.TID 0000.0001) %MON land_Tsrf_min_T              =  -7.5297669213811E+00
(PID.TID 0000.0001) %MON land_Tsrf_min_N              =  -5.1963151923798E+01
(PID.TID 0000.0001) %MON land_Tsrf_max_S              =   3.0526187593677E+01
(PID.TID 0000.0001) %MON land_Tsrf_max_T              =   3.4123617405344E+01
(PID.TID 0000.0001) %MON land_Tsrf_max_N              =   1.4714652401307E+01
(PID.TID 0000.0001) %MON land_Tgr1_ave_G              =  -3.5654986475994E+00
(PID.TID 0000.0001) %MON land_Tgr1_ave_S              =  -4.1884732916978E+00
(PID.TID 0000.0001) %MON land_Tgr1_ave_T              =   1.7948308537027E+01
(PID.TID 0000.0001) %MON land_Tgr1_ave_N              =  -1.7729697196547E+01
(PID.TID 0000.0001) %MON land_Tgr1_min_S              =  -3.9010948749135E+01
(PID.TID 0000.0001) %MON land_Tgr1_min_T              =  -7.5297669213811E+00
(PID.TID 0000.0001) %MON land_Tgr1_min_N              =  -5.4992979126802E+01
(PID.TID 0000.0001) %MON land_Tgr1_max_S              =   3.0526187593677E+01
(PID.TID 0000.0001) %MON land_Tgr1_max_T              =   3.4123617405344E+01
(PID.TID 0000.0001) %MON land_Tgr1_max_N              =   1.4714652401307E+01
(PID.TID 0000.0001) %MON land_Tgr2_ave_G              =   4.2073557436843E+00
(PID.TID 0000.0001) %MON land_Tgr2_ave_S              =  -1.8731411682894E+01
(PID.TID 0000.0001) %MON land_Tgr2_ave_T              =   2.2012996564054E+01
(PID.TID 0000.0001) %MON land_Tgr2_ave_N              =  -2.4153115615139E-01
(PID.TID 0000.0001) %MON land_Tgr2_min_S              =  -6.4761427410580E+01
(PID.TID 0000.0001) %MON land_Tgr2_min_T              =  -9.7050551832179E+00
(PID.TID 0000.0001) %MON land_Tgr2_min_N              =  -4.0194102086638E+01
(PID.TID 0000.0001) %MON land_Tgr2_max_S              =   2.3360276042917E+01
(PID.TID 0000.0001) %MON land_Tgr2_max_T              =   3.1360419768010E+01
(PID.TID 0000.0001) %MON land_Tgr2_max_N              =   2.9832066072851E+01
(PID.TID 0000.0001) %MON land_grdW_ave_G              =   4.8701735000251E-01
(PID.TID 0000.0001) %MON land_grdW_ave_S              =   3.0874741400518E-01
(PID.TID 0000.0001) %MON land_grdW_ave_T              =   5.6483645251108E-01
(PID.TID 0000.0001) %MON land_grdW_ave_N              =   4.9288172298963E-01
(PID.TID 0000.0001) %MON land_grdW_min_S              =   2.5938631412469E-02
(PID.TID 0000.0001) %MON land_grdW_min_T              =   0.0000000000000E+00
(PID.TID 0000.0001) %MON land_grdW_min_N              =   0.0000000000000E+00
(PID.TID 0000.0001) // =======================================================
(PID.TID 0000.0001) // End MONITOR Land statistics
(PID.TID 0000.0001) // =======================================================
(PID.TID 0000.0001) // =======================================================
(PID.TID 0000.0001) // Begin MONITOR Therm.SeaIce statistics
(PID.TID 0000.0001) // =======================================================
(PID.TID 0000.0001) %MON thSI_time_sec                =   9.0000000000000E+02
(PID.TID 0000.0001) %MON thSI_Ice_Area_G              =   2.7746328336626E+10
(PID.TID 0000.0001) %MON thSI_Ice_Area_S              =   0.0000000000000E+00
(PID.TID 0000.0001) %MON thSI_Ice_Area_N              =   2.7746328336626E+10
(PID.TID 0000.0001) %MON thSI_IceH_ave_G              =   1.0238174705879E-01
(PID.TID 0000.0001) %MON thSI_IceH_ave_S              =   0.0000000000000E+00
(PID.TID 0000.0001) %MON thSI_IceH_ave_N              =   1.0238174705879E-01
(PID.TID 0000.0001) %MON thSI_IceH_max_S              =   0.0000000000000E+00
(PID.TID 0000.0001) %MON thSI_IceH_max_N              =   1.0298625601109E-01
(PID.TID 0000.0001) %MON thSI_SnwH_ave_G              =   0.0000000000000E+00
(PID.TID 0000.0001) %MON thSI_SnwH_ave_S              =   0.0000000000000E+00
(PID.TID 0000.0001) %MON thSI_SnwH_ave_N              =   0.0000000000000E+00
(PID.TID 0000.0001) %MON thSI_SnwH_max_S              =   0.0000000000000E+00
(PID.TID 0000.0001) %MON thSI_SnwH_max_N              =   0.0000000000000E+00
(PID.TID 0000.0001) %MON thSI_TotEnerg_G              =  -8.5185611162644E+17
(PID.TID 0000.0001) %MON thSI_Tsrf_ave_G              =  -4.2744947711150E+00
(PID.TID 0000.0001) %MON thSI_Tsrf_ave_S              =   0.0000000000000E+00
(PID.TID 0000.0001) %MON thSI_Tsrf_ave_N              =  -4.2744947711150E+00
(PID.TID 0000.0001) %MON thSI_Tsrf_min_S              =   0.0000000000000E+00
(PID.TID 0000.0001) %MON thSI_Tsrf_min_N              =  -4.3153550678667E+00
(PID.TID 0000.0001) %MON thSI_Tsrf_max_S              =   0.0000000000000E+00
(PID.TID 0000.0001) %MON thSI_Tsrf_max_N              =  -4.2209527584233E+00
(PID.TID 0000.0001) %MON thSI_Tic1_ave_G              =  -1.9009253651304E+00
(PID.TID 0000.0001) %MON thSI_Tic1_ave_S              =   0.0000000000000E+00
(PID.TID 0000.0001) %MON thSI_Tic1_ave_N              =  -1.9009253651304E+00
(PID.TID 0000.0001) %MON thSI_Tic1_min_S              =   0.0000000000000E+00
(PID.TID 0000.0001) %MON thSI_Tic1_min_N              =  -1.9452830897484E+00
(PID.TID 0000.0001) %MON thSI_Tic1_max_S              =   0.0000000000000E+00
(PID.TID 0000.0001) %MON thSI_Tic1_max_N              =  -1.8429323090860E+00
(PID.TID 0000.0001) %MON thSI_Tic2_ave_G              =  -1.6936451784549E+00
(PID.TID 0000.0001) %MON thSI_Tic2_ave_S              =   0.0000000000000E+00
(PID.TID 0000.0001) %MON thSI_Tic2_ave_N              =  -1.6936451784549E+00
(PID.TID 0000.0001) %MON thSI_Tic2_min_S              =   0.0000000000000E+00
(PID.TID 0000.0001) %MON thSI_Tic2_min_N              =  -1.7317000158556E+00
(PID.TID 0000.0001) %MON thSI_Tic2_max_S              =   0.0000000000000E+00
(PID.TID 0000.0001) %MON thSI_Tic2_max_N              =  -1.6439205063078E+00
(PID.TID 0000.0001) // =======================================================
(PID.TID 0000.0001) // End MONITOR Therm.SeaIce statistics
(PID.TID 0000.0001) // =======================================================
 cg2d: Sum(rhs),rhsMax =   1.90993887372315E-11  1.30306981588842E+04
(PID.TID 0000.0001)                    cg2d_init_res =    3.21688263649777E+04
(PID.TID 0000.0001)                       cg2d_iters =    17
(PID.TID 0000.0001)                         cg2d_res =    1.32088130947284E-11
(PID.TID 0000.0001) // =======================================================
(PID.TID 0000.0001) // Begin MONITOR dynamic field statistics
(PID.TID 0000.0001) // =======================================================
(PID.TID 0000.0001) %MON time_tsnumber                =                     3
(PID.TID 0000.0001) %MON time_secondsf                =   1.3500000000000E+03
(PID.TID 0000.0001) %MON dynstat_eta_max              =   1.7332761812826E+03
(PID.TID 0000.0001) %MON dynstat_eta_min              =  -1.7700845854026E+03
(PID.TID 0000.0001) %MON dynstat_eta_mean             =  -4.4557375095785E-16
(PID.TID 0000.0001) %MON dynstat_eta_sd               =   1.8802243287395E+02
(PID.TID 0000.0001) %MON dynstat_eta_del2             =   4.0442981579336E+01
(PID.TID 0000.0001) %MON dynstat_uvel_max             =   6.2745187419254E+00
(PID.TID 0000.0001) %MON dynstat_uvel_min             =  -6.2706946548471E+00
(PID.TID 0000.0001) %MON dynstat_uvel_mean            =  -2.5950103987387E-03
(PID.TID 0000.0001) %MON dynstat_uvel_sd              =   5.3869628293678E-01
(PID.TID 0000.0001) %MON dynstat_uvel_del2            =   3.5257197799903E-02
(PID.TID 0000.0001) %MON dynstat_vvel_max             =   7.0874679184824E+00
(PID.TID 0000.0001) %MON dynstat_vvel_min             =  -8.1796181163035E+00
(PID.TID 0000.0001) %MON dynstat_vvel_mean            =   3.4205984491861E-03
(PID.TID 0000.0001) %MON dynstat_vvel_sd              =   5.0058829620056E-01
(PID.TID 0000.0001) %MON dynstat_vvel_del2            =   3.5417717267086E-02
(PID.TID 0000.0001) %MON dynstat_wvel_max             =   5.9168602375489E-02
(PID.TID 0000.0001) %MON dynstat_wvel_min             =  -6.0038431243309E-01
(PID.TID 0000.0001) %MON dynstat_wvel_mean            =  -2.4816469105560E-03
(PID.TID 0000.0001) %MON dynstat_wvel_sd              =   1.9351189536359E-02
(PID.TID 0000.0001) %MON dynstat_wvel_del2            =   1.7155234959269E-03
(PID.TID 0000.0001) %MON dynstat_theta_max            =   4.3749846784206E+02
(PID.TID 0000.0001) %MON dynstat_theta_min            =   2.8883949511180E+02
(PID.TID 0000.0001) %MON dynstat_theta_mean           =   3.3171692033260E+02
(PID.TID 0000.0001) %MON dynstat_theta_sd             =   4.7416684875655E+01
(PID.TID 0000.0001) %MON dynstat_theta_del2           =   5.4079472014716E-03
(PID.TID 0000.0001) %MON dynstat_salt_max             =   1.2942924762471E+00
(PID.TID 0000.0001) %MON dynstat_salt_min             =  -2.2927518459455E-03
(PID.TID 0000.0001) %MON dynstat_salt_mean            =   1.1907482223733E-02
(PID.TID 0000.0001) %MON dynstat_salt_sd              =   5.1818121883856E-02
(PID.TID 0000.0001) %MON dynstat_salt_del2            =   2.1443312462019E-03
(PID.TID 0000.0001) %MON advcfl_uvel_max              =   9.0070251578446E-03
(PID.TID 0000.0001) %MON advcfl_vvel_max              =   1.1634272007944E-02
(PID.TID 0000.0001) %MON advcfl_wvel_max              =   9.8244705670870E-03
(PID.TID 0000.0001) %MON advcfl_W_hf_max              =   2.4449333209941E-02
(PID.TID 0000.0001) %MON pe_b_mean                    =  -4.4124735108333E-01
(PID.TID 0000.0001) %MON ke_max                       =   2.3380509282262E+01
(PID.TID 0000.0001) %MON ke_mean                      =   2.6880662674485E-01
(PID.TID 0000.0001) %MON ke_vol                       =   4.9523908919847E+19
(PID.TID 0000.0001) %MON vort_r_min                   =  -2.0633711655562E-05
(PID.TID 0000.0001) %MON vort_r_max                   =   1.2393203680429E-05
(PID.TID 0000.0001) %MON vort_a_mean                  =   6.7059142262001E-08
(PID.TID 0000.0001) %MON vort_a_sd                    =   8.3709216247851E-05
(PID.TID 0000.0001) %MON vort_p_mean                  =   6.8751141656443E-08
(PID.TID 0000.0001) %MON vort_p_sd                    =   9.1409428997003E-05
(PID.TID 0000.0001) %MON surfExpan_theta_mean         =   2.3862110834953E-01
(PID.TID 0000.0001) %MON surfExpan_salt_mean          =   1.5189382148250E-07
(PID.TID 0000.0001) %MON surfExpan_Heat_mean          =  -1.9469909384901E+01
(PID.TID 0000.0001) %MON En_Budget_T2PE_mean          =   3.7182220578436E+01
(PID.TID 0000.0001) // =======================================================
(PID.TID 0000.0001) // End MONITOR dynamic field statistics
(PID.TID 0000.0001) // =======================================================
(PID.TID 0000.0001) // =======================================================
(PID.TID 0000.0001) // Begin MONITOR Land statistics
(PID.TID 0000.0001) // =======================================================
(PID.TID 0000.0001) %MON land_time_sec                =   1.3500000000000E+03
(PID.TID 0000.0001) %MON land_SnwH_ave_G              =   1.5324622328414E-01
(PID.TID 0000.0001) %MON land_SnwH_ave_S              =   5.5906076491929E-01
(PID.TID 0000.0001) %MON land_SnwH_ave_T              =   0.0000000000000E+00
(PID.TID 0000.0001) %MON land_SnwH_ave_N              =   1.2393577965949E-01
(PID.TID 0000.0001) %MON land_SnwH_max_S              =   9.9999852974913E-01
(PID.TID 0000.0001) %MON land_SnwH_max_T              =   0.0000000000000E+00
(PID.TID 0000.0001) %MON land_SnwH_max_N              =   9.9999980255616E-01
(PID.TID 0000.0001) %MON land_TotEnerg_G              =  -6.2665864083573E+21
(PID.TID 0000.0001) %MON land_TotEnerg_S              =  -4.9936184855847E+21
(PID.TID 0000.0001) %MON land_TotEnerg_T              =   7.3367862243533E+21
(PID.TID 0000.0001) %MON land_TotEnerg_N              =  -8.6097541471259E+21
(PID.TID 0000.0001) %MON land_Tsrf_ave_G              =  -5.4214422469811E+00
(PID.TID 0000.0001) %MON land_Tsrf_ave_S              =  -5.7076728995765E+00
(PID.TID 0000.0001) %MON land_Tsrf_ave_T              =   1.7061714369254E+01
(PID.TID 0000.0001) %MON land_Tsrf_ave_N              =  -2.0342181537309E+01
(PID.TID 0000.0001) %MON land_Tsrf_min_S              =  -3.4758813974738E+01
(PID.TID 0000.0001) %MON land_Tsrf_min_T              =  -7.2831021823542E+00
(PID.TID 0000.0001) %MON land_Tsrf_min_N              =  -5.1364622721666E+01
(PID.TID 0000.0001) %MON land_Tsrf_max_S              =   2.9347021809230E+01
(PID.TID 0000.0001) %MON land_Tsrf_max_T              =   3.2666593190106E+01
(PID.TID 0000.0001) %MON land_Tsrf_max_N              =   1.4113892577715E+01
(PID.TID 0000.0001) %MON land_Tgr1_ave_G              =  -3.9629305920829E+00
(PID.TID 0000.0001) %MON land_Tgr1_ave_S              =  -4.5441747925605E+00
(PID.TID 0000.0001) %MON land_Tgr1_ave_T              =   1.7061714369254E+01
(PID.TID 0000.0001) %MON land_Tgr1_ave_N              =  -1.7814018095976E+01
(PID.TID 0000.0001) %MON land_Tgr1_min_S              =  -3.9023408469890E+01
(PID.TID 0000.0001) %MON land_Tgr1_min_T              =  -7.2831021823542E+00
(PID.TID 0000.0001) %MON land_Tgr1_min_N              =  -5.4979357028454E+01
(PID.TID 0000.0001) %MON land_Tgr1_max_S              =   2.9347021809230E+01
(PID.TID 0000.0001) %MON land_Tgr1_max_T              =   3.2666593190106E+01
(PID.TID 0000.0001) %MON land_Tgr1_max_N              =   1.4113892577715E+01
(PID.TID 0000.0001) %MON land_Tgr2_ave_G              =   4.2072329172634E+00
(PID.TID 0000.0001) %MON land_Tgr2_ave_S              =  -1.8731176221012E+01
(PID.TID 0000.0001) %MON land_Tgr2_ave_T              =   2.2012913713609E+01
(PID.TID 0000.0001) %MON land_Tgr2_ave_N              =  -2.4179690389590E-01
(PID.TID 0000.0001) %MON land_Tgr2_min_S              =  -6.4760993184559E+01
(PID.TID 0000.0001) %MON land_Tgr2_min_T              =  -9.7050245811227E+00
(PID.TID 0000.0001) %MON land_Tgr2_min_N              =  -4.0194343044151E+01
(PID.TID 0000.0001) %MON land_Tgr2_max_S              =   2.3360375667087E+01
(PID.TID 0000.0001) %MON land_Tgr2_max_T              =   3.1360140929534E+01
(PID.TID 0000.0001) %MON land_Tgr2_max_N              =   2.9831710315087E+01
(PID.TID 0000.0001) %MON land_grdW_ave_G              =   4.8699895613051E-01
(PID.TID 0000.0001) %MON land_grdW_ave_S              =   3.0873374237944E-01
(PID.TID 0000.0001) %MON land_grdW_ave_T              =   5.6478870574609E-01
(PID.TID 0000.0001) %MON land_grdW_ave_N              =   4.9288139824840E-01
(PID.TID 0000.0001) %MON land_grdW_min_S              =   2.5954898336220E-02
(PID.TID 0000.0001) %MON land_grdW_min_T              =   0.0000000000000E+00
(PID.TID 0000.0001) %MON land_grdW_min_N              =   0.0000000000000E+00
(PID.TID 0000.0001) // =======================================================
(PID.TID 0000.0001) // End MONITOR Land statistics
(PID.TID 0000.0001) // =======================================================
(PID.TID 0000.0001) // =======================================================
(PID.TID 0000.0001) // Begin MONITOR Therm.SeaIce statistics
(PID.TID 0000.0001) // =======================================================
(PID.TID 0000.0001) %MON thSI_time_sec                =   1.3500000000000E+03
(PID.TID 0000.0001) %MON thSI_Ice_Area_G              =   4.0609715853917E+10
(PID.TID 0000.0001) %MON thSI_Ice_Area_S              =   0.0000000000000E+00
(PID.TID 0000.0001) %MON thSI_Ice_Area_N              =   4.0609715853917E+10
(PID.TID 0000.0001) %MON thSI_IceH_ave_G              =   1.0476430916441E-01
(PID.TID 0000.0001) %MON thSI_IceH_ave_S              =   0.0000000000000E+00
(PID.TID 0000.0001) %MON thSI_IceH_ave_N              =   1.0476430916441E-01
(PID.TID 0000.0001) %MON thSI_IceH_max_S              =   0.0000000000000E+00
(PID.TID 0000.0001) %MON thSI_IceH_max_N              =   1.0597833202171E-01
(PID.TID 0000.0001) %MON thSI_SnwH_ave_G              =   0.0000000000000E+00
(PID.TID 0000.0001) %MON thSI_SnwH_ave_S              =   0.0000000000000E+00
(PID.TID 0000.0001) %MON thSI_SnwH_ave_N              =   0.0000000000000E+00
(PID.TID 0000.0001) %MON thSI_SnwH_max_S              =   0.0000000000000E+00
(PID.TID 0000.0001) %MON thSI_SnwH_max_N              =   0.0000000000000E+00
(PID.TID 0000.0001) %MON thSI_TotEnerg_G              =  -1.2795226607761E+18
(PID.TID 0000.0001) %MON thSI_Tsrf_ave_G              =  -4.5859547165538E+00
(PID.TID 0000.0001) %MON thSI_Tsrf_ave_S              =   0.0000000000000E+00
(PID.TID 0000.0001) %MON thSI_Tsrf_ave_N              =  -4.5859547165538E+00
(PID.TID 0000.0001) %MON thSI_Tsrf_min_S              =   0.0000000000000E+00
(PID.TID 0000.0001) %MON thSI_Tsrf_min_N              =  -4.6321265322822E+00
(PID.TID 0000.0001) %MON thSI_Tsrf_max_S              =   0.0000000000000E+00
(PID.TID 0000.0001) %MON thSI_Tsrf_max_N              =  -4.5177411619713E+00
(PID.TID 0000.0001) %MON thSI_Tic1_ave_G              =  -2.1943569913102E+00
(PID.TID 0000.0001) %MON thSI_Tic1_ave_S              =   0.0000000000000E+00
(PID.TID 0000.0001) %MON thSI_Tic1_ave_N              =  -2.1943569913102E+00
(PID.TID 0000.0001) %MON thSI_Tic1_min_S              =   0.0000000000000E+00
(PID.TID 0000.0001) %MON thSI_Tic1_min_N              =  -2.2412931216751E+00
(PID.TID 0000.0001) %MON thSI_Tic1_max_S              =   0.0000000000000E+00
(PID.TID 0000.0001) %MON thSI_Tic1_max_N              =  -2.1247803577198E+00
(PID.TID 0000.0001) %MON thSI_Tic2_ave_G              =  -1.7453073927689E+00
(PID.TID 0000.0001) %MON thSI_Tic2_ave_S              =   0.0000000000000E+00
(PID.TID 0000.0001) %MON thSI_Tic2_ave_N              =  -1.7453073927689E+00
(PID.TID 0000.0001) %MON thSI_Tic2_min_S              =   0.0000000000000E+00
(PID.TID 0000.0001) %MON thSI_Tic2_min_N              =  -1.7845250965179E+00
(PID.TID 0000.0001) %MON thSI_Tic2_max_S              =   0.0000000000000E+00
(PID.TID 0000.0001) %MON thSI_Tic2_max_N              =  -1.6937231729029E+00
(PID.TID 0000.0001) // =======================================================
(PID.TID 0000.0001) // End MONITOR Therm.SeaIce statistics
(PID.TID 0000.0001) // =======================================================
 cg2d: Sum(rhs),rhsMax =   7.99218469182961E-11  1.49235470950240E+04
(PID.TID 0000.0001)                    cg2d_init_res =    2.74425693393058E+04
(PID.TID 0000.0001)                       cg2d_iters =    16
(PID.TID 0000.0001)                         cg2d_res =    1.12133529496477E-10
(PID.TID 0000.0001) // =======================================================
(PID.TID 0000.0001) // Begin MONITOR dynamic field statistics
(PID.TID 0000.0001) // =======================================================
(PID.TID 0000.0001) %MON time_tsnumber                =                     4
(PID.TID 0000.0001) %MON time_secondsf                =   1.8000000000000E+03
(PID.TID 0000.0001) %MON dynstat_eta_max              =   2.5069589574289E+03
(PID.TID 0000.0001) %MON dynstat_eta_min              =  -2.3444590065565E+03
(PID.TID 0000.0001) %MON dynstat_eta_mean             =   3.9536825789218E-16
(PID.TID 0000.0001) %MON dynstat_eta_sd               =   2.4937336480209E+02
(PID.TID 0000.0001) %MON dynstat_eta_del2             =   4.5058120306700E+01
(PID.TID 0000.0001) %MON dynstat_uvel_max             =   7.1223765823278E+00
(PID.TID 0000.0001) %MON dynstat_uvel_min             =  -7.0658898778893E+00
(PID.TID 0000.0001) %MON dynstat_uvel_mean            =  -3.4315641035855E-03
(PID.TID 0000.0001) %MON dynstat_uvel_sd              =   6.2637452525021E-01
(PID.TID 0000.0001) %MON dynstat_uvel_del2            =   2.7368572369876E-02
(PID.TID 0000.0001) %MON dynstat_vvel_max             =   7.5134798883193E+00
(PID.TID 0000.0001) %MON dynstat_vvel_min             =  -8.7187833356111E+00
(PID.TID 0000.0001) %MON dynstat_vvel_mean            =   4.6553273437904E-03
(PID.TID 0000.0001) %MON dynstat_vvel_sd              =   5.7918907478907E-01
(PID.TID 0000.0001) %MON dynstat_vvel_del2            =   2.6778452557600E-02
(PID.TID 0000.0001) %MON dynstat_wvel_max             =   5.7915400782582E-02
(PID.TID 0000.0001) %MON dynstat_wvel_min             =  -6.0297454644980E-01
(PID.TID 0000.0001) %MON dynstat_wvel_mean            =  -2.5888569861588E-03
(PID.TID 0000.0001) %MON dynstat_wvel_sd              =   1.9703662490296E-02
(PID.TID 0000.0001) %MON dynstat_wvel_del2            =   1.5737174971105E-03
(PID.TID 0000.0001) %MON dynstat_theta_max            =   4.3752944210504E+02
(PID.TID 0000.0001) %MON dynstat_theta_min            =   2.8859308931609E+02
(PID.TID 0000.0001) %MON dynstat_theta_mean           =   3.3171662126183E+02
(PID.TID 0000.0001) %MON dynstat_theta_sd             =   4.7417182920216E+01
(PID.TID 0000.0001) %MON dynstat_theta_del2           =   6.6628737908569E-03
(PID.TID 0000.0001) %MON dynstat_salt_max             =   1.6281646445777E+00
(PID.TID 0000.0001) %MON dynstat_salt_min             =  -1.6185246342542E-03
(PID.TID 0000.0001) %MON dynstat_salt_mean            =   1.5772127094111E-02
(PID.TID 0000.0001) %MON dynstat_salt_sd              =   6.8295324350139E-02
(PID.TID 0000.0001) %MON dynstat_salt_del2            =   2.7492766166057E-03
(PID.TID 0000.0001) %MON advcfl_uvel_max              =   1.0097863755251E-02
(PID.TID 0000.0001) %MON advcfl_vvel_max              =   1.2401153142180E-02
(PID.TID 0000.0001) %MON advcfl_wvel_max              =   9.8668562146331E-03
(PID.TID 0000.0001) %MON advcfl_W_hf_max              =   2.4510753596785E-02
(PID.TID 0000.0001) %MON pe_b_mean                    =  -5.7499236147328E-01
(PID.TID 0000.0001) %MON ke_max                       =   2.9081722032713E+01
(PID.TID 0000.0001) %MON ke_mean                      =   3.6177441811558E-01
(PID.TID 0000.0001) %MON ke_vol                       =   4.9523908919847E+19
(PID.TID 0000.0001) %MON vort_r_min                   =  -2.3035498976118E-05
(PID.TID 0000.0001) %MON vort_r_max                   =   1.2760203817092E-05
(PID.TID 0000.0001) %MON vort_a_mean                  =   6.7059142262120E-08
(PID.TID 0000.0001) %MON vort_a_sd                    =   8.3710509794239E-05
(PID.TID 0000.0001) %MON vort_p_mean                  =   6.8751141900585E-08
(PID.TID 0000.0001) %MON vort_p_sd                    =   9.1436908082600E-05
(PID.TID 0000.0001) %MON surfExpan_theta_mean         =   2.4998755296969E-01
(PID.TID 0000.0001) %MON surfExpan_salt_mean          =  -5.3285640847031E-06
(PID.TID 0000.0001) %MON surfExpan_Heat_mean          =  -2.0423823822300E+01
(PID.TID 0000.0001) %MON En_Budget_T2PE_mean          =   3.8943999126398E+01
(PID.TID 0000.0001) // =======================================================
(PID.TID 0000.0001) // End MONITOR dynamic field statistics
(PID.TID 0000.0001) // =======================================================
(PID.TID 0000.0001) // =======================================================
(PID.TID 0000.0001) // Begin MONITOR Land statistics
(PID.TID 0000.0001) // =======================================================
(PID.TID 0000.0001) %MON land_time_sec                =   1.8000000000000E+03
(PID.TID 0000.0001) %MON land_SnwH_ave_G              =   1.5324495077139E-01
(PID.TID 0000.0001) %MON land_SnwH_ave_S              =   5.5905997275328E-01
(PID.TID 0000.0001) %MON land_SnwH_ave_T              =   0.0000000000000E+00
(PID.TID 0000.0001) %MON land_SnwH_ave_N              =   1.2393350157859E-01
(PID.TID 0000.0001) %MON land_SnwH_max_S              =   9.9999802230261E-01
(PID.TID 0000.0001) %MON land_SnwH_max_T              =   0.0000000000000E+00
(PID.TID 0000.0001) %MON land_SnwH_max_N              =   9.9999972369849E-01
(PID.TID 0000.0001) %MON land_TotEnerg_G              =  -6.2755335785809E+21
(PID.TID 0000.0001) %MON land_TotEnerg_S              =  -4.9946903545653E+21
(PID.TID 0000.0001) %MON land_TotEnerg_T              =   7.3299482510163E+21
(PID.TID 0000.0001) %MON land_TotEnerg_N              =  -8.6107914750320E+21
(PID.TID 0000.0001) %MON land_Tsrf_ave_G              =  -5.7258741159158E+00
(PID.TID 0000.0001) %MON land_Tsrf_ave_S              =  -5.8196551083296E+00
(PID.TID 0000.0001) %MON land_Tsrf_ave_T              =   1.6282163302812E+01
(PID.TID 0000.0001) %MON land_Tsrf_ave_N              =  -2.0391772276313E+01
(PID.TID 0000.0001) %MON land_Tsrf_min_S              =  -3.4693266775545E+01
(PID.TID 0000.0001) %MON land_Tsrf_min_T              =  -7.0446215482610E+00
(PID.TID 0000.0001) %MON land_Tsrf_min_N              =  -5.0887040048198E+01
(PID.TID 0000.0001) %MON land_Tsrf_max_S              =   2.8299077193722E+01
(PID.TID 0000.0001) %MON land_Tsrf_max_T              =   3.1357644718788E+01
(PID.TID 0000.0001) %MON land_Tsrf_max_N              =   1.3560187850053E+01
(PID.TID 0000.0001) %MON land_Tgr1_ave_G              =  -4.3146637683648E+00
(PID.TID 0000.0001) %MON land_Tgr1_ave_S              =  -4.8569762056927E+00
(PID.TID 0000.0001) %MON land_Tgr1_ave_T              =   1.6282163302812E+01
(PID.TID 0000.0001) %MON land_Tgr1_ave_N              =  -1.7892696293869E+01
(PID.TID 0000.0001) %MON land_Tgr1_min_S              =  -3.9035767758389E+01
(PID.TID 0000.0001) %MON land_Tgr1_min_T              =  -7.0446215482610E+00
(PID.TID 0000.0001) %MON land_Tgr1_min_N              =  -5.4965292399821E+01
(PID.TID 0000.0001) %MON land_Tgr1_max_S              =   2.8299077193722E+01
(PID.TID 0000.0001) %MON land_Tgr1_max_T              =   3.1357644718788E+01
(PID.TID 0000.0001) %MON land_Tgr1_max_N              =   1.3560187850053E+01
(PID.TID 0000.0001) %MON land_Tgr2_ave_G              =   4.2071042628001E+00
(PID.TID 0000.0001) %MON land_Tgr2_ave_S              =  -1.8730945736236E+01
(PID.TID 0000.0001) %MON land_Tgr2_ave_T              =   2.2012818085677E+01
(PID.TID 0000.0001) %MON land_Tgr2_ave_N              =  -2.4206411508609E-01
(PID.TID 0000.0001) %MON land_Tgr2_min_S              =  -6.4760559189761E+01
(PID.TID 0000.0001) %MON land_Tgr2_min_T              =  -9.7049909660423E+00
(PID.TID 0000.0001) %MON land_Tgr2_min_N              =  -4.0194583728202E+01
(PID.TID 0000.0001) %MON land_Tgr2_max_S              =   2.3360456186081E+01
(PID.TID 0000.0001) %MON land_Tgr2_max_T              =   3.1359846826230E+01
(PID.TID 0000.0001) %MON land_Tgr2_max_N              =   2.9831342281627E+01
(PID.TID 0000.0001) %MON land_grdW_ave_G              =   4.8698180261212E-01
(PID.TID 0000.0001) %MON land_grdW_ave_S              =   3.0872082528639E-01
(PID.TID 0000.0001) %MON land_grdW_ave_T              =   5.6474430669923E-01
(PID.TID 0000.0001) %MON land_grdW_ave_N              =   4.9288106422208E-01
(PID.TID 0000.0001) %MON land_grdW_min_S              =   2.5981427540140E-02
(PID.TID 0000.0001) %MON land_grdW_min_T              =   0.0000000000000E+00
(PID.TID 0000.0001) %MON land_grdW_min_N              =   0.0000000000000E+00
(PID.TID 0000.0001) // =======================================================
(PID.TID 0000.0001) // End MONITOR Land statistics
(PID.TID 0000.0001) // =======================================================
(PID.TID 0000.0001) // =======================================================
(PID.TID 0000.0001) // Begin MONITOR Therm.SeaIce statistics
(PID.TID 0000.0001) // =======================================================
(PID.TID 0000.0001) %MON thSI_time_sec                =   1.8000000000000E+03
(PID.TID 0000.0001) %MON thSI_Ice_Area_G              =   5.2867978504508E+10
(PID.TID 0000.0001) %MON thSI_Ice_Area_S              =   0.0000000000000E+00
(PID.TID 0000.0001) %MON thSI_Ice_Area_N              =   5.2867978504508E+10
(PID.TID 0000.0001) %MON thSI_IceH_ave_G              =   1.0714952576836E-01
(PID.TID 0000.0001) %MON thSI_IceH_ave_S              =   0.0000000000000E+00
(PID.TID 0000.0001) %MON thSI_IceH_ave_N              =   1.0714952576836E-01
(PID.TID 0000.0001) %MON thSI_IceH_max_S              =   0.0000000000000E+00
(PID.TID 0000.0001) %MON thSI_IceH_max_N              =   1.0897758482394E-01
(PID.TID 0000.0001) %MON thSI_SnwH_ave_G              =   0.0000000000000E+00
(PID.TID 0000.0001) %MON thSI_SnwH_ave_S              =   0.0000000000000E+00
(PID.TID 0000.0001) %MON thSI_SnwH_ave_N              =   0.0000000000000E+00
(PID.TID 0000.0001) %MON thSI_SnwH_max_S              =   0.0000000000000E+00
(PID.TID 0000.0001) %MON thSI_SnwH_max_N              =   0.0000000000000E+00
(PID.TID 0000.0001) %MON thSI_TotEnerg_G              =  -1.7082145737662E+18
(PID.TID 0000.0001) %MON thSI_Tsrf_ave_G              =  -4.9078600515738E+00
(PID.TID 0000.0001) %MON thSI_Tsrf_ave_S              =   0.0000000000000E+00
(PID.TID 0000.0001) %MON thSI_Tsrf_ave_N              =  -4.9078600515738E+00
(PID.TID 0000.0001) %MON thSI_Tsrf_min_S              =   0.0000000000000E+00
(PID.TID 0000.0001) %MON thSI_Tsrf_min_N              =  -4.9622254923836E+00
(PID.TID 0000.0001) %MON thSI_Tsrf_max_S              =   0.0000000000000E+00
(PID.TID 0000.0001) %MON thSI_Tsrf_max_N              =  -4.8273479397839E+00
(PID.TID 0000.0001) %MON thSI_Tic1_ave_G              =  -2.5067655383531E+00
(PID.TID 0000.0001) %MON thSI_Tic1_ave_S              =   0.0000000000000E+00
(PID.TID 0000.0001) %MON thSI_Tic1_ave_N              =  -2.5067655383531E+00
(PID.TID 0000.0001) %MON thSI_Tic1_min_S              =   0.0000000000000E+00
(PID.TID 0000.0001) %MON thSI_Tic1_min_N              =  -2.5600620937562E+00
(PID.TID 0000.0001) %MON thSI_Tic1_max_S              =   0.0000000000000E+00
(PID.TID 0000.0001) %MON thSI_Tic1_max_N              =  -2.4275570307828E+00
(PID.TID 0000.0001) %MON thSI_Tic2_ave_G              =  -1.8120191598026E+00
(PID.TID 0000.0001) %MON thSI_Tic2_ave_S              =   0.0000000000000E+00
(PID.TID 0000.0001) %MON thSI_Tic2_ave_N              =  -1.8120191598026E+00
(PID.TID 0000.0001) %MON thSI_Tic2_min_S              =   0.0000000000000E+00
(PID.TID 0000.0001) %MON thSI_Tic2_min_N              =  -1.8532283400787E+00
(PID.TID 0000.0001) %MON thSI_Tic2_max_S              =   0.0000000000000E+00
(PID.TID 0000.0001) %MON thSI_Tic2_max_N              =  -1.7585383570453E+00
(PID.TID 0000.0001) // =======================================================
(PID.TID 0000.0001) // End MONITOR Therm.SeaIce statistics
(PID.TID 0000.0001) // =======================================================
 cg2d: Sum(rhs),rhsMax =   1.50293999467976E-10  1.79861360707426E+04
(PID.TID 0000.0001)                    cg2d_init_res =    2.42221217057944E+04
(PID.TID 0000.0001)                       cg2d_iters =    16
(PID.TID 0000.0001)                         cg2d_res =    9.12803482327146E-11
(PID.TID 0000.0001) // =======================================================
(PID.TID 0000.0001) // Begin MONITOR dynamic field statistics
(PID.TID 0000.0001) // =======================================================
(PID.TID 0000.0001) %MON time_tsnumber                =                     5
(PID.TID 0000.0001) %MON time_secondsf                =   2.2500000000000E+03
(PID.TID 0000.0001) %MON dynstat_eta_max              =   3.1712194167211E+03
(PID.TID 0000.0001) %MON dynstat_eta_min              =  -2.7174279042867E+03
(PID.TID 0000.0001) %MON dynstat_eta_mean             =   2.5855828928822E-15
(PID.TID 0000.0001) %MON dynstat_eta_sd               =   3.0045378891218E+02
(PID.TID 0000.0001) %MON dynstat_eta_del2             =   4.5487216830125E+01
(PID.TID 0000.0001) %MON dynstat_uvel_max             =   7.7270346024900E+00
(PID.TID 0000.0001) %MON dynstat_uvel_min             =  -7.5715088060261E+00
(PID.TID 0000.0001) %MON dynstat_uvel_mean            =  -4.2196004632639E-03
(PID.TID 0000.0001) %MON dynstat_uvel_sd              =   6.8859312734784E-01
(PID.TID 0000.0001) %MON dynstat_uvel_del2            =   2.3194546701779E-02
(PID.TID 0000.0001) %MON dynstat_vvel_max             =   7.5410632514729E+00
(PID.TID 0000.0001) %MON dynstat_vvel_min             =  -8.6014757419631E+00
(PID.TID 0000.0001) %MON dynstat_vvel_mean            =   5.9698086099943E-03
(PID.TID 0000.0001) %MON dynstat_vvel_sd              =   6.4309221557702E-01
(PID.TID 0000.0001) %MON dynstat_vvel_del2            =   2.1401851561136E-02
(PID.TID 0000.0001) %MON dynstat_wvel_max             =   5.0732459164129E-02
(PID.TID 0000.0001) %MON dynstat_wvel_min             =  -5.6098988943099E-01
(PID.TID 0000.0001) %MON dynstat_wvel_mean            =  -2.5152185997422E-03
(PID.TID 0000.0001) %MON dynstat_wvel_sd              =   1.8783785270146E-02
(PID.TID 0000.0001) %MON dynstat_wvel_del2            =   1.4164329126266E-03
(PID.TID 0000.0001) %MON dynstat_theta_max            =   4.3754930153641E+02
(PID.TID 0000.0001) %MON dynstat_theta_min            =   2.8834953705689E+02
(PID.TID 0000.0001) %MON dynstat_theta_mean           =   3.3171612936640E+02
(PID.TID 0000.0001) %MON dynstat_theta_sd             =   4.7417995182908E+01
(PID.TID 0000.0001) %MON dynstat_theta_del2           =   7.6525748621149E-03
(PID.TID 0000.0001) %MON dynstat_salt_max             =   1.9274179096842E+00
(PID.TID 0000.0001) %MON dynstat_salt_min             =  -9.5317554285658E-04
(PID.TID 0000.0001) %MON dynstat_salt_mean            =   1.9593269774918E-02
(PID.TID 0000.0001) %MON dynstat_salt_sd              =   8.4452952293360E-02
(PID.TID 0000.0001) %MON dynstat_salt_del2            =   3.3088518155781E-03
(PID.TID 0000.0001) %MON advcfl_uvel_max              =   1.0842982183991E-02
(PID.TID 0000.0001) %MON advcfl_vvel_max              =   1.2234300798501E-02
(PID.TID 0000.0001) %MON advcfl_wvel_max              =   9.1798345543253E-03
(PID.TID 0000.0001) %MON advcfl_W_hf_max              =   2.2670081096521E-02
(PID.TID 0000.0001) %MON pe_b_mean                    =  -6.8993879603205E-01
(PID.TID 0000.0001) %MON ke_max                       =   3.3071292241536E+01
(PID.TID 0000.0001) %MON ke_mean                      =   4.4127509042552E-01
(PID.TID 0000.0001) %MON ke_vol                       =   4.9523908919847E+19
(PID.TID 0000.0001) %MON vort_r_min                   =  -2.4862383044235E-05
(PID.TID 0000.0001) %MON vort_r_max                   =   1.2321461644023E-05
(PID.TID 0000.0001) %MON vort_a_mean                  =   6.7059142261979E-08
(PID.TID 0000.0001) %MON vort_a_sd                    =   8.3712115053862E-05
(PID.TID 0000.0001) %MON vort_p_mean                  =   6.8751142084161E-08
(PID.TID 0000.0001) %MON vort_p_sd                    =   9.1467012376138E-05
(PID.TID 0000.0001) %MON surfExpan_theta_mean         =   2.4365915101235E-01
(PID.TID 0000.0001) %MON surfExpan_salt_mean          =  -1.4703570571063E-05
(PID.TID 0000.0001) %MON surfExpan_Heat_mean          =  -1.9968286955921E+01
(PID.TID 0000.0001) %MON En_Budget_T2PE_mean          =   3.7985647197263E+01
(PID.TID 0000.0001) // =======================================================
(PID.TID 0000.0001) // End MONITOR dynamic field statistics
(PID.TID 0000.0001) // =======================================================
(PID.TID 0000.0001) // =======================================================
(PID.TID 0000.0001) // Begin MONITOR Land statistics
(PID.TID 0000.0001) // =======================================================
(PID.TID 0000.0001) %MON land_time_sec                =   2.2500000000000E+03
(PID.TID 0000.0001) %MON land_SnwH_ave_G              =   1.5324375290445E-01
(PID.TID 0000.0001) %MON land_SnwH_ave_S              =   5.5905913630447E-01
(PID.TID 0000.0001) %MON land_SnwH_ave_T              =   0.0000000000000E+00
(PID.TID 0000.0001) %MON land_SnwH_ave_N              =   1.2393138656950E-01
(PID.TID 0000.0001) %MON land_SnwH_max_S              =   9.9999750912849E-01
(PID.TID 0000.0001) %MON land_SnwH_max_T              =   0.0000000000000E+00
(PID.TID 0000.0001) %MON land_SnwH_max_N              =   9.9999964347426E-01
(PID.TID 0000.0001) %MON land_TotEnerg_G              =  -6.2835107081833E+21
(PID.TID 0000.0001) %MON land_TotEnerg_S              =  -4.9956323657631E+21
(PID.TID 0000.0001) %MON land_TotEnerg_T              =   7.3239135277621E+21
(PID.TID 0000.0001) %MON land_TotEnerg_N              =  -8.6117918701824E+21
(PID.TID 0000.0001) %MON land_Tsrf_ave_G              =  -6.0030238190356E+00
(PID.TID 0000.0001) %MON land_Tsrf_ave_S              =  -5.9127895222561E+00
(PID.TID 0000.0001) %MON land_Tsrf_ave_T              =   1.5592626447583E+01
(PID.TID 0000.0001) %MON land_Tsrf_ave_N              =  -2.0453235405944E+01
(PID.TID 0000.0001) %MON land_Tsrf_min_S              =  -3.4616210468947E+01
(PID.TID 0000.0001) %MON land_Tsrf_min_T              =  -6.8157570856370E+00
(PID.TID 0000.0001) %MON land_Tsrf_min_N              =  -5.0782152509352E+01
(PID.TID 0000.0001) %MON land_Tsrf_max_S              =   2.7365946884981E+01
(PID.TID 0000.0001) %MON land_Tsrf_max_T              =   3.0179485303629E+01
(PID.TID 0000.0001) %MON land_Tsrf_max_N              =   1.3045667350093E+01
(PID.TID 0000.0001) %MON land_Tgr1_ave_G              =  -4.6277638490609E+00
(PID.TID 0000.0001) %MON land_Tgr1_ave_S              =  -5.1332404431514E+00
(PID.TID 0000.0001) %MON land_Tgr1_ave_T              =   1.5592626447583E+01
(PID.TID 0000.0001) %MON land_Tgr1_ave_N              =  -1.7966372290449E+01
(PID.TID 0000.0001) %MON land_Tgr1_min_S              =  -3.9048015087023E+01
(PID.TID 0000.0001) %MON land_Tgr1_min_T              =  -6.8157570856370E+00
(PID.TID 0000.0001) %MON land_Tgr1_min_N              =  -5.4951148856967E+01
(PID.TID 0000.0001) %MON land_Tgr1_max_S              =   2.7365946884981E+01
(PID.TID 0000.0001) %MON land_Tgr1_max_T              =   3.0179485303629E+01
(PID.TID 0000.0001) %MON land_Tgr1_max_N              =   1.3045667350093E+01
(PID.TID 0000.0001) %MON land_Tgr2_ave_G              =   4.2069704456322E+00
(PID.TID 0000.0001) %MON land_Tgr2_ave_S              =  -1.8730719647738E+01
(PID.TID 0000.0001) %MON land_Tgr2_ave_T              =   2.2012711236151E+01
(PID.TID 0000.0001) %MON land_Tgr2_ave_N              =  -2.4233269165767E-01
(PID.TID 0000.0001) %MON land_Tgr2_min_S              =  -6.4760125424559E+01
(PID.TID 0000.0001) %MON land_Tgr2_min_T              =  -9.7049544593661E+00
(PID.TID 0000.0001) %MON land_Tgr2_min_N              =  -4.0194824137323E+01
(PID.TID 0000.0001) %MON land_Tgr2_max_S              =   2.3360519791274E+01
(PID.TID 0000.0001) %MON land_Tgr2_max_T              =   3.1359538739672E+01
(PID.TID 0000.0001) %MON land_Tgr2_max_N              =   2.9830962854178E+01
(PID.TID 0000.0001) %MON land_grdW_ave_G              =   4.8696573097785E-01
(PID.TID 0000.0001) %MON land_grdW_ave_S              =   3.0870854723185E-01
(PID.TID 0000.0001) %MON land_grdW_ave_T              =   5.6470284842389E-01
(PID.TID 0000.0001) %MON land_grdW_ave_N              =   4.9288071442595E-01
(PID.TID 0000.0001) %MON land_grdW_min_S              =   2.6016783484139E-02
(PID.TID 0000.0001) %MON land_grdW_min_T              =   0.0000000000000E+00
(PID.TID 0000.0001) %MON land_grdW_min_N              =   0.0000000000000E+00
(PID.TID 0000.0001) // =======================================================
(PID.TID 0000.0001) // End MONITOR Land statistics
(PID.TID 0000.0001) // =======================================================
(PID.TID 0000.0001) // =======================================================
(PID.TID 0000.0001) // Begin MONITOR Therm.SeaIce statistics
(PID.TID 0000.0001) // =======================================================
(PID.TID 0000.0001) %MON thSI_time_sec                =   2.2500000000000E+03
(PID.TID 0000.0001) %MON thSI_Ice_Area_G              =   6.4565655049185E+10
(PID.TID 0000.0001) %MON thSI_Ice_Area_S              =   0.0000000000000E+00
(PID.TID 0000.0001) %MON thSI_Ice_Area_N              =   6.4565655049185E+10
(PID.TID 0000.0001) %MON thSI_IceH_ave_G              =   1.0953844853992E-01
(PID.TID 0000.0001) %MON thSI_IceH_ave_S              =   0.0000000000000E+00
(PID.TID 0000.0001) %MON thSI_IceH_ave_N              =   1.0953844853992E-01
(PID.TID 0000.0001) %MON thSI_IceH_max_S              =   0.0000000000000E+00
(PID.TID 0000.0001) %MON thSI_IceH_max_N              =   1.1198459611788E-01
(PID.TID 0000.0001) %MON thSI_SnwH_ave_G              =   0.0000000000000E+00
(PID.TID 0000.0001) %MON thSI_SnwH_ave_S              =   0.0000000000000E+00
(PID.TID 0000.0001) %MON thSI_SnwH_ave_N              =   0.0000000000000E+00
(PID.TID 0000.0001) %MON thSI_SnwH_max_S              =   0.0000000000000E+00
(PID.TID 0000.0001) %MON thSI_SnwH_max_N              =   0.0000000000000E+00
(PID.TID 0000.0001) %MON thSI_TotEnerg_G              =  -2.1378407545531E+18
(PID.TID 0000.0001) %MON thSI_Tsrf_ave_G              =  -5.2365705152156E+00
(PID.TID 0000.0001) %MON thSI_Tsrf_ave_S              =   0.0000000000000E+00
(PID.TID 0000.0001) %MON thSI_Tsrf_ave_N              =  -5.2365705152156E+00
(PID.TID 0000.0001) %MON thSI_Tsrf_min_S              =   0.0000000000000E+00
(PID.TID 0000.0001) %MON thSI_Tsrf_min_N              =  -5.3004660119574E+00
(PID.TID 0000.0001) %MON thSI_Tsrf_max_S              =   0.0000000000000E+00
(PID.TID 0000.0001) %MON thSI_Tsrf_max_N              =  -5.1469340019943E+00
(PID.TID 0000.0001) %MON thSI_Tic1_ave_G              =  -2.8284440064672E+00
(PID.TID 0000.0001) %MON thSI_Tic1_ave_S              =   0.0000000000000E+00
(PID.TID 0000.0001) %MON thSI_Tic1_ave_N              =  -2.8284440064672E+00
(PID.TID 0000.0001) %MON thSI_Tic1_min_S              =   0.0000000000000E+00
(PID.TID 0000.0001) %MON thSI_Tic1_min_N              =  -2.8860752153807E+00
(PID.TID 0000.0001) %MON thSI_Tic1_max_S              =   0.0000000000000E+00
(PID.TID 0000.0001) %MON thSI_Tic1_max_N              =  -2.7423819799513E+00
(PID.TID 0000.0001) %MON thSI_Tic2_ave_G              =  -1.8883411967946E+00
(PID.TID 0000.0001) %MON thSI_Tic2_ave_S              =   0.0000000000000E+00
(PID.TID 0000.0001) %MON thSI_Tic2_ave_N              =  -1.8883411967946E+00
(PID.TID 0000.0001) %MON thSI_Tic2_min_S              =   0.0000000000000E+00
(PID.TID 0000.0001) %MON thSI_Tic2_min_N              =  -1.9325121605094E+00
(PID.TID 0000.0001) %MON thSI_Tic2_max_S              =   0.0000000000000E+00
(PID.TID 0000.0001) %MON thSI_Tic2_max_N              =  -1.8333413803874E+00
(PID.TID 0000.0001) // =======================================================
(PID.TID 0000.0001) // End MONITOR Therm.SeaIce statistics
(PID.TID 0000.0001) // =======================================================
 cg2d: Sum(rhs),rhsMax =   5.43423084309325E-11  2.06454935662391E+04
(PID.TID 0000.0001)                    cg2d_init_res =    2.25063823402281E+04
(PID.TID 0000.0001)                       cg2d_iters =    16
(PID.TID 0000.0001)                         cg2d_res =    8.38515189602672E-11
(PID.TID 0000.0001) // =======================================================
(PID.TID 0000.0001) // Begin MONITOR dynamic field statistics
(PID.TID 0000.0001) // =======================================================
(PID.TID 0000.0001) %MON time_tsnumber                =                     6
(PID.TID 0000.0001) %MON time_secondsf                =   2.7000000000000E+03
(PID.TID 0000.0001) %MON dynstat_eta_max              =   3.6542764486947E+03
(PID.TID 0000.0001) %MON dynstat_eta_min              =  -2.8734093535211E+03
(PID.TID 0000.0001) %MON dynstat_eta_mean             =   2.4977232800173E-15
(PID.TID 0000.0001) %MON dynstat_eta_sd               =   3.4256604083524E+02
(PID.TID 0000.0001) %MON dynstat_eta_del2             =   4.3867111036253E+01
(PID.TID 0000.0001) %MON dynstat_uvel_max             =   7.8600069855284E+00
(PID.TID 0000.0001) %MON dynstat_uvel_min             =  -7.8174230184832E+00
(PID.TID 0000.0001) %MON dynstat_uvel_mean            =  -4.9532987281134E-03
(PID.TID 0000.0001) %MON dynstat_uvel_sd              =   7.3181450810724E-01
(PID.TID 0000.0001) %MON dynstat_uvel_del2            =   2.1858248891001E-02
(PID.TID 0000.0001) %MON dynstat_vvel_max             =   7.4229173549069E+00
(PID.TID 0000.0001) %MON dynstat_vvel_min             =  -8.4833822650246E+00
(PID.TID 0000.0001) %MON dynstat_vvel_mean            =   7.3765152119070E-03
(PID.TID 0000.0001) %MON dynstat_vvel_sd              =   6.9876446319737E-01
(PID.TID 0000.0001) %MON dynstat_vvel_del2            =   2.0415106190436E-02
(PID.TID 0000.0001) %MON dynstat_wvel_max             =   6.4643911692437E-02
(PID.TID 0000.0001) %MON dynstat_wvel_min             =  -4.9956851665604E-01
(PID.TID 0000.0001) %MON dynstat_wvel_mean            =  -2.3536622571503E-03
(PID.TID 0000.0001) %MON dynstat_wvel_sd              =   1.7430174978553E-02
(PID.TID 0000.0001) %MON dynstat_wvel_del2            =   1.3223600630767E-03
(PID.TID 0000.0001) %MON dynstat_theta_max            =   4.3755717034119E+02
(PID.TID 0000.0001) %MON dynstat_theta_min            =   2.8810744592740E+02
(PID.TID 0000.0001) %MON dynstat_theta_mean           =   3.3171545408522E+02
(PID.TID 0000.0001) %MON dynstat_theta_sd             =   4.7419040564661E+01
(PID.TID 0000.0001) %MON dynstat_theta_del2           =   8.4805153102131E-03
(PID.TID 0000.0001) %MON dynstat_salt_max             =   2.1966514063462E+00
(PID.TID 0000.0001) %MON dynstat_salt_min             =  -1.0186240080948E-03
(PID.TID 0000.0001) %MON dynstat_salt_mean            =   2.3374829842490E-02
(PID.TID 0000.0001) %MON dynstat_salt_sd              =   1.0033300385371E-01
(PID.TID 0000.0001) %MON dynstat_salt_del2            =   3.8309547272774E-03
(PID.TID 0000.0001) %MON advcfl_uvel_max              =   1.1195150225100E-02
(PID.TID 0000.0001) %MON advcfl_vvel_max              =   1.2032162822612E-02
(PID.TID 0000.0001) %MON advcfl_wvel_max              =   8.1747575452807E-03
(PID.TID 0000.0001) %MON advcfl_W_hf_max              =   1.9921728349576E-02
(PID.TID 0000.0001) %MON pe_b_mean                    =  -7.8869688786398E-01
(PID.TID 0000.0001) %MON ke_max                       =   3.5155298520894E+01
(PID.TID 0000.0001) %MON ke_mean                      =   5.0893571300157E-01
(PID.TID 0000.0001) %MON ke_vol                       =   4.9523908919847E+19
(PID.TID 0000.0001) %MON vort_r_min                   =  -2.6409312029046E-05
(PID.TID 0000.0001) %MON vort_r_max                   =   1.2350574100826E-05
(PID.TID 0000.0001) %MON vort_a_mean                  =   6.7059142262031E-08
(PID.TID 0000.0001) %MON vort_a_sd                    =   8.3713969016054E-05
(PID.TID 0000.0001) %MON vort_p_mean                  =   6.8751142162362E-08
(PID.TID 0000.0001) %MON vort_p_sd                    =   9.1497358734589E-05
(PID.TID 0000.0001) %MON surfExpan_theta_mean         =   2.2855779770850E-01
(PID.TID 0000.0001) %MON surfExpan_salt_mean          =  -2.7291849796701E-05
(PID.TID 0000.0001) %MON surfExpan_Heat_mean          =  -1.8803752715914E+01
(PID.TID 0000.0001) %MON En_Budget_T2PE_mean          =   3.5674680912835E+01
(PID.TID 0000.0001) // =======================================================
(PID.TID 0000.0001) // End MONITOR dynamic field statistics
(PID.TID 0000.0001) // =======================================================
(PID.TID 0000.0001) // =======================================================
(PID.TID 0000.0001) // Begin MONITOR Land statistics
(PID.TID 0000.0001) // =======================================================
(PID.TID 0000.0001) %MON land_time_sec                =   2.7000000000000E+03
(PID.TID 0000.0001) %MON land_SnwH_ave_G              =   1.5324262649554E-01
(PID.TID 0000.0001) %MON land_SnwH_ave_S              =   5.5905826212358E-01
(PID.TID 0000.0001) %MON land_SnwH_ave_T              =   0.0000000000000E+00
(PID.TID 0000.0001) %MON land_SnwH_ave_N              =   1.2392942615662E-01
(PID.TID 0000.0001) %MON land_SnwH_max_S              =   9.9999698854034E-01
(PID.TID 0000.0001) %MON land_SnwH_max_T              =   0.0000000000000E+00
(PID.TID 0000.0001) %MON land_SnwH_max_N              =   9.9999956679415E-01
(PID.TID 0000.0001) %MON land_TotEnerg_G              =  -6.2906584203008E+21
(PID.TID 0000.0001) %MON land_TotEnerg_S              =  -4.9964629584520E+21
(PID.TID 0000.0001) %MON land_TotEnerg_T              =   7.3185633152214E+21
(PID.TID 0000.0001) %MON land_TotEnerg_N              =  -8.6127587770702E+21
(PID.TID 0000.0001) %MON land_Tsrf_ave_G              =  -6.2567753633125E+00
(PID.TID 0000.0001) %MON land_Tsrf_ave_S              =  -6.0006353360745E+00
(PID.TID 0000.0001) %MON land_Tsrf_ave_T              =   1.4980196127301E+01
(PID.TID 0000.0001) %MON land_Tsrf_ave_N              =  -2.0521290620249E+01
(PID.TID 0000.0001) %MON land_Tsrf_min_S              =  -3.4523320867746E+01
(PID.TID 0000.0001) %MON land_Tsrf_min_T              =  -6.5960254666579E+00
(PID.TID 0000.0001) %MON land_Tsrf_min_N              =  -5.1015527251209E+01
(PID.TID 0000.0001) %MON land_Tsrf_max_S              =   2.6533807437351E+01
(PID.TID 0000.0001) %MON land_Tsrf_max_T              =   2.9117512263398E+01
(PID.TID 0000.0001) %MON land_Tsrf_max_N              =   1.2563940002433E+01
(PID.TID 0000.0001) %MON land_Tgr1_ave_G              =  -4.9077596382655E+00
(PID.TID 0000.0001) %MON land_Tgr1_ave_S              =  -5.3779527664351E+00
(PID.TID 0000.0001) %MON land_Tgr1_ave_T              =   1.4980196127301E+01
(PID.TID 0000.0001) %MON land_Tgr1_ave_N              =  -1.8035823817892E+01
(PID.TID 0000.0001) %MON land_Tgr1_min_S              =  -3.9060137613101E+01
(PID.TID 0000.0001) %MON land_Tgr1_min_T              =  -6.5960254666579E+00
(PID.TID 0000.0001) %MON land_Tgr1_min_N              =  -5.4937255893140E+01
(PID.TID 0000.0001) %MON land_Tgr1_max_S              =   2.6533807437351E+01
(PID.TID 0000.0001) %MON land_Tgr1_max_T              =   2.9117512263398E+01
(PID.TID 0000.0001) %MON land_Tgr1_max_N              =   1.2563940002433E+01
(PID.TID 0000.0001) %MON land_Tgr2_ave_G              =   4.2068320363254E+00
(PID.TID 0000.0001) %MON land_Tgr2_ave_S              =  -1.8730497453612E+01
(PID.TID 0000.0001) %MON land_Tgr2_ave_T              =   2.2012594499803E+01
(PID.TID 0000.0001) %MON land_Tgr2_ave_N              =  -2.4260255108501E-01
(PID.TID 0000.0001) %MON land_Tgr2_min_S              =  -6.4759691887075E+01
(PID.TID 0000.0001) %MON land_Tgr2_min_T              =  -9.7049151765729E+00
(PID.TID 0000.0001) %MON land_Tgr2_min_N              =  -4.0195064276887E+01
(PID.TID 0000.0001) %MON land_Tgr2_max_S              =   2.3360568379138E+01
(PID.TID 0000.0001) %MON land_Tgr2_max_T              =   3.1359217932483E+01
(PID.TID 0000.0001) %MON land_Tgr2_max_N              =   2.9830572769554E+01
(PID.TID 0000.0001) %MON land_grdW_ave_G              =   4.8695061607251E-01
(PID.TID 0000.0001) %MON land_grdW_ave_S              =   3.0869682091845E-01
(PID.TID 0000.0001) %MON land_grdW_ave_T              =   5.6466400421217E-01
(PID.TID 0000.0001) %MON land_grdW_ave_N              =   4.9288034601497E-01
(PID.TID 0000.0001) %MON land_grdW_min_S              =   2.6059758307225E-02
(PID.TID 0000.0001) %MON land_grdW_min_T              =   0.0000000000000E+00
(PID.TID 0000.0001) %MON land_grdW_min_N              =   0.0000000000000E+00
(PID.TID 0000.0001) // =======================================================
(PID.TID 0000.0001) // End MONITOR Land statistics
(PID.TID 0000.0001) // =======================================================
(PID.TID 0000.0001) // =======================================================
(PID.TID 0000.0001) // Begin MONITOR Therm.SeaIce statistics
(PID.TID 0000.0001) // =======================================================
(PID.TID 0000.0001) %MON thSI_time_sec                =   2.7000000000000E+03
(PID.TID 0000.0001) %MON thSI_Ice_Area_G              =   7.5742850715128E+10
(PID.TID 0000.0001) %MON thSI_Ice_Area_S              =   0.0000000000000E+00
(PID.TID 0000.0001) %MON thSI_Ice_Area_N              =   7.5742850715128E+10
(PID.TID 0000.0001) %MON thSI_IceH_ave_G              =   1.1193160260399E-01
(PID.TID 0000.0001) %MON thSI_IceH_ave_S              =   0.0000000000000E+00
(PID.TID 0000.0001) %MON thSI_IceH_ave_N              =   1.1193160260399E-01
(PID.TID 0000.0001) %MON thSI_IceH_max_S              =   0.0000000000000E+00
(PID.TID 0000.0001) %MON thSI_IceH_max_N              =   1.1499945874292E-01
(PID.TID 0000.0001) %MON thSI_SnwH_ave_G              =   0.0000000000000E+00
(PID.TID 0000.0001) %MON thSI_SnwH_ave_S              =   0.0000000000000E+00
(PID.TID 0000.0001) %MON thSI_SnwH_ave_N              =   0.0000000000000E+00
(PID.TID 0000.0001) %MON thSI_SnwH_max_S              =   0.0000000000000E+00
(PID.TID 0000.0001) %MON thSI_SnwH_max_N              =   0.0000000000000E+00
(PID.TID 0000.0001) %MON thSI_TotEnerg_G              =  -2.5683180168915E+18
(PID.TID 0000.0001) %MON thSI_Tsrf_ave_G              =  -5.5634749834997E+00
(PID.TID 0000.0001) %MON thSI_Tsrf_ave_S              =   0.0000000000000E+00
(PID.TID 0000.0001) %MON thSI_Tsrf_ave_N              =  -5.5634749834997E+00
(PID.TID 0000.0001) %MON thSI_Tsrf_min_S              =   0.0000000000000E+00
(PID.TID 0000.0001) %MON thSI_Tsrf_min_N              =  -5.6351106491393E+00
(PID.TID 0000.0001) %MON thSI_Tsrf_max_S              =   0.0000000000000E+00
(PID.TID 0000.0001) %MON thSI_Tsrf_max_N              =  -5.4635674787940E+00
(PID.TID 0000.0001) %MON thSI_Tic1_ave_G              =  -3.1498330031731E+00
(PID.TID 0000.0001) %MON thSI_Tic1_ave_S              =   0.0000000000000E+00
(PID.TID 0000.0001) %MON thSI_Tic1_ave_N              =  -3.1498330031731E+00
(PID.TID 0000.0001) %MON thSI_Tic1_min_S              =   0.0000000000000E+00
(PID.TID 0000.0001) %MON thSI_Tic1_min_N              =  -3.2096018822254E+00
(PID.TID 0000.0001) %MON thSI_Tic1_max_S              =   0.0000000000000E+00
(PID.TID 0000.0001) %MON thSI_Tic1_max_N              =  -3.0599380779466E+00
(PID.TID 0000.0001) %MON thSI_Tic2_ave_G              =  -1.9701339587511E+00
(PID.TID 0000.0001) %MON thSI_Tic2_ave_S              =   0.0000000000000E+00
(PID.TID 0000.0001) %MON thSI_Tic2_ave_N              =  -1.9701339587511E+00
(PID.TID 0000.0001) %MON thSI_Tic2_min_S              =   0.0000000000000E+00
(PID.TID 0000.0001) %MON thSI_Tic2_min_N              =  -2.0181733155384E+00
(PID.TID 0000.0001) %MON thSI_Tic2_max_S              =   0.0000000000000E+00
(PID.TID 0000.0001) %MON thSI_Tic2_max_N              =  -1.9142178760511E+00
(PID.TID 0000.0001) // =======================================================
(PID.TID 0000.0001) // End MONITOR Therm.SeaIce statistics
(PID.TID 0000.0001) // =======================================================
 cg2d: Sum(rhs),rhsMax =  -1.22781784739345E-11  2.21106913245888E+04
(PID.TID 0000.0001)                    cg2d_init_res =    2.13606903276865E+04
(PID.TID 0000.0001)                       cg2d_iters =    16
(PID.TID 0000.0001)                         cg2d_res =    7.64254101385928E-11
(PID.TID 0000.0001) // =======================================================
(PID.TID 0000.0001) // Begin MONITOR dynamic field statistics
(PID.TID 0000.0001) // =======================================================
(PID.TID 0000.0001) %MON time_tsnumber                =                     7
(PID.TID 0000.0001) %MON time_secondsf                =   3.1500000000000E+03
(PID.TID 0000.0001) %MON dynstat_eta_max              =   3.9357259375121E+03
(PID.TID 0000.0001) %MON dynstat_eta_min              =  -2.8399432179483E+03
(PID.TID 0000.0001) %MON dynstat_eta_mean             =  -3.3637680354001E-15
(PID.TID 0000.0001) %MON dynstat_eta_sd               =   3.7783305439399E+02
(PID.TID 0000.0001) %MON dynstat_eta_del2             =   4.1770512070762E+01
(PID.TID 0000.0001) %MON dynstat_uvel_max             =   7.6486614783004E+00
(PID.TID 0000.0001) %MON dynstat_uvel_min             =  -7.9887985325555E+00
(PID.TID 0000.0001) %MON dynstat_uvel_mean            =  -5.6379788002233E-03
(PID.TID 0000.0001) %MON dynstat_uvel_sd              =   7.6035880500042E-01
(PID.TID 0000.0001) %MON dynstat_uvel_del2            =   2.1095236244892E-02
(PID.TID 0000.0001) %MON dynstat_vvel_max             =   7.3533573735161E+00
(PID.TID 0000.0001) %MON dynstat_vvel_min             =  -8.6757255622781E+00
(PID.TID 0000.0001) %MON dynstat_vvel_mean            =   8.8725853518320E-03
(PID.TID 0000.0001) %MON dynstat_vvel_sd              =   7.4736847820286E-01
(PID.TID 0000.0001) %MON dynstat_vvel_del2            =   2.0341561710519E-02
(PID.TID 0000.0001) %MON dynstat_wvel_max             =   7.1121403370404E-02
(PID.TID 0000.0001) %MON dynstat_wvel_min             =  -4.3388569458304E-01
(PID.TID 0000.0001) %MON dynstat_wvel_mean            =  -2.1630643087548E-03
(PID.TID 0000.0001) %MON dynstat_wvel_sd              =   1.6134585152287E-02
(PID.TID 0000.0001) %MON dynstat_wvel_del2            =   1.2863157487934E-03
(PID.TID 0000.0001) %MON dynstat_theta_max            =   4.3755507589420E+02
(PID.TID 0000.0001) %MON dynstat_theta_min            =   2.8786563205470E+02
(PID.TID 0000.0001) %MON dynstat_theta_mean           =   3.3171460674620E+02
(PID.TID 0000.0001) %MON dynstat_theta_sd             =   4.7420261939539E+01
(PID.TID 0000.0001) %MON dynstat_theta_del2           =   9.2514139844843E-03
(PID.TID 0000.0001) %MON dynstat_salt_max             =   2.4396001588014E+00
(PID.TID 0000.0001) %MON dynstat_salt_min             =  -1.1550028584666E-03
(PID.TID 0000.0001) %MON dynstat_salt_mean            =   2.7120520980426E-02
(PID.TID 0000.0001) %MON dynstat_salt_sd              =   1.1597734873295E-01
(PID.TID 0000.0001) %MON dynstat_salt_del2            =   4.3248010769748E-03
(PID.TID 0000.0001) %MON advcfl_uvel_max              =   1.1362859955425E-02
(PID.TID 0000.0001) %MON advcfl_vvel_max              =   1.2304967442055E-02
(PID.TID 0000.0001) %MON advcfl_wvel_max              =   7.0999477295406E-03
(PID.TID 0000.0001) %MON advcfl_W_hf_max              =   1.8532148944139E-02
(PID.TID 0000.0001) %MON pe_b_mean                    =  -8.7228832147389E-01
(PID.TID 0000.0001) %MON ke_max                       =   3.5718370450246E+01
(PID.TID 0000.0001) %MON ke_mean                      =   5.6506043502848E-01
(PID.TID 0000.0001) %MON ke_vol                       =   4.9523908919847E+19
(PID.TID 0000.0001) %MON vort_r_min                   =  -2.7157193425851E-05
(PID.TID 0000.0001) %MON vort_r_max                   =   1.5568575252441E-05
(PID.TID 0000.0001) %MON vort_a_mean                  =   6.7059142262174E-08
(PID.TID 0000.0001) %MON vort_a_sd                    =   8.3716010451065E-05
(PID.TID 0000.0001) %MON vort_p_mean                  =   6.8751142222972E-08
(PID.TID 0000.0001) %MON vort_p_sd                    =   9.1526116584046E-05
(PID.TID 0000.0001) %MON surfExpan_theta_mean         =   2.1040481524256E-01
(PID.TID 0000.0001) %MON surfExpan_salt_mean          =  -4.2494428720244E-05
(PID.TID 0000.0001) %MON surfExpan_Heat_mean          =  -1.7380544752748E+01
(PID.TID 0000.0001) %MON En_Budget_T2PE_mean          =   3.2887210275470E+01
(PID.TID 0000.0001) // =======================================================
(PID.TID 0000.0001) // End MONITOR dynamic field statistics
(PID.TID 0000.0001) // =======================================================
(PID.TID 0000.0001) // =======================================================
(PID.TID 0000.0001) // Begin MONITOR Land statistics
(PID.TID 0000.0001) // =======================================================
(PID.TID 0000.0001) %MON land_time_sec                =   3.1500000000000E+03
(PID.TID 0000.0001) %MON land_SnwH_ave_G              =   1.5324152734621E-01
(PID.TID 0000.0001) %MON land_SnwH_ave_S              =   5.5905735779139E-01
(PID.TID 0000.0001) %MON land_SnwH_ave_T              =   0.0000000000000E+00
(PID.TID 0000.0001) %MON land_SnwH_ave_N              =   1.2392752983020E-01
(PID.TID 0000.0001) %MON land_SnwH_max_S              =   9.9999645859923E-01
(PID.TID 0000.0001) %MON land_SnwH_max_T              =   0.0000000000000E+00
(PID.TID 0000.0001) %MON land_SnwH_max_N              =   9.9999949527705E-01
(PID.TID 0000.0001) %MON land_TotEnerg_G              =  -6.2970936334283E+21
(PID.TID 0000.0001) %MON land_TotEnerg_S              =  -4.9971974010629E+21
(PID.TID 0000.0001) %MON land_TotEnerg_T              =   7.3137986835591E+21
(PID.TID 0000.0001) %MON land_TotEnerg_N              =  -8.6136949159246E+21
(PID.TID 0000.0001) %MON land_Tsrf_ave_G              =  -6.4888949863743E+00
(PID.TID 0000.0001) %MON land_Tsrf_ave_S              =  -6.0908431884848E+00
(PID.TID 0000.0001) %MON land_Tsrf_ave_T              =   1.4434110724973E+01
(PID.TID 0000.0001) %MON land_Tsrf_ave_N              =  -2.0589788443209E+01
(PID.TID 0000.0001) %MON land_Tsrf_min_S              =  -3.4412994205188E+01
(PID.TID 0000.0001) %MON land_Tsrf_min_T              =  -6.3849503360557E+00
(PID.TID 0000.0001) %MON land_Tsrf_min_N              =  -5.1386105063655E+01
(PID.TID 0000.0001) %MON land_Tsrf_max_S              =   2.5790886016068E+01
(PID.TID 0000.0001) %MON land_Tsrf_max_T              =   2.8158964673947E+01
(PID.TID 0000.0001) %MON land_Tsrf_max_N              =   1.2186303315703E+01
(PID.TID 0000.0001) %MON land_Tgr1_ave_G              =  -5.1593518001175E+00
(PID.TID 0000.0001) %MON land_Tgr1_ave_S              =  -5.5952827251576E+00
(PID.TID 0000.0001) %MON land_Tgr1_ave_T              =   1.4434110724973E+01
(PID.TID 0000.0001) %MON land_Tgr1_ave_N              =  -1.8101876504585E+01
(PID.TID 0000.0001) %MON land_Tgr1_min_S              =  -3.9072120846450E+01
(PID.TID 0000.0001) %MON land_Tgr1_min_T              =  -6.3849503360557E+00
(PID.TID 0000.0001) %MON land_Tgr1_min_N              =  -5.4923746691509E+01
(PID.TID 0000.0001) %MON land_Tgr1_max_S              =   2.5790886016068E+01
(PID.TID 0000.0001) %MON land_Tgr1_max_T              =   2.8158964673947E+01
(PID.TID 0000.0001) %MON land_Tgr1_max_N              =   1.2186303315703E+01
(PID.TID 0000.0001) %MON land_Tgr2_ave_G              =   4.2066895211613E+00
(PID.TID 0000.0001) %MON land_Tgr2_ave_S              =  -1.8730278718138E+01
(PID.TID 0000.0001) %MON land_Tgr2_ave_T              =   2.2012469014756E+01
(PID.TID 0000.0001) %MON land_Tgr2_ave_N              =  -2.4287362596682E-01
(PID.TID 0000.0001) %MON land_Tgr2_min_S              =  -6.4759258575148E+01
(PID.TID 0000.0001) %MON land_Tgr2_min_T              =  -9.7048732271177E+00
(PID.TID 0000.0001) %MON land_Tgr2_min_N              =  -4.0195304155375E+01
(PID.TID 0000.0001) %MON land_Tgr2_max_S              =   2.3360603601990E+01
(PID.TID 0000.0001) %MON land_Tgr2_max_T              =   3.1358885584464E+01
(PID.TID 0000.0001) %MON land_Tgr2_max_N              =   2.9830172645293E+01
(PID.TID 0000.0001) %MON land_grdW_ave_G              =   4.8693635132544E-01
(PID.TID 0000.0001) %MON land_grdW_ave_S              =   3.0868557041602E-01
(PID.TID 0000.0001) %MON land_grdW_ave_T              =   5.6462745511266E-01
(PID.TID 0000.0001) %MON land_grdW_ave_N              =   4.9287998430051E-01
(PID.TID 0000.0001) %MON land_grdW_min_S              =   2.6109329155975E-02
(PID.TID 0000.0001) %MON land_grdW_min_T              =   0.0000000000000E+00
(PID.TID 0000.0001) %MON land_grdW_min_N              =   0.0000000000000E+00
(PID.TID 0000.0001) // =======================================================
(PID.TID 0000.0001) // End MONITOR Land statistics
(PID.TID 0000.0001) // =======================================================
(PID.TID 0000.0001) // =======================================================
(PID.TID 0000.0001) // Begin MONITOR Therm.SeaIce statistics
(PID.TID 0000.0001) // =======================================================
(PID.TID 0000.0001) %MON thSI_time_sec                =   3.1500000000000E+03
(PID.TID 0000.0001) %MON thSI_Ice_Area_G              =   8.6435779930479E+10
(PID.TID 0000.0001) %MON thSI_Ice_Area_S              =   0.0000000000000E+00
(PID.TID 0000.0001) %MON thSI_Ice_Area_N              =   8.6435779930479E+10
(PID.TID 0000.0001) %MON thSI_IceH_ave_G              =   1.1432912993305E-01
(PID.TID 0000.0001) %MON thSI_IceH_ave_S              =   0.0000000000000E+00
(PID.TID 0000.0001) %MON thSI_IceH_ave_N              =   1.1432912993305E-01
(PID.TID 0000.0001) %MON thSI_IceH_max_S              =   0.0000000000000E+00
(PID.TID 0000.0001) %MON thSI_IceH_max_N              =   1.1802193205580E-01
(PID.TID 0000.0001) %MON thSI_SnwH_ave_G              =   0.0000000000000E+00
(PID.TID 0000.0001) %MON thSI_SnwH_ave_S              =   0.0000000000000E+00
(PID.TID 0000.0001) %MON thSI_SnwH_ave_N              =   0.0000000000000E+00
(PID.TID 0000.0001) %MON thSI_SnwH_max_S              =   0.0000000000000E+00
(PID.TID 0000.0001) %MON thSI_SnwH_max_N              =   0.0000000000000E+00
(PID.TID 0000.0001) %MON thSI_TotEnerg_G              =  -2.9995718161663E+18
(PID.TID 0000.0001) %MON thSI_Tsrf_ave_G              =  -5.8816512761874E+00
(PID.TID 0000.0001) %MON thSI_Tsrf_ave_S              =   0.0000000000000E+00
(PID.TID 0000.0001) %MON thSI_Tsrf_ave_N              =  -5.8816512761874E+00
(PID.TID 0000.0001) %MON thSI_Tsrf_min_S              =   0.0000000000000E+00
(PID.TID 0000.0001) %MON thSI_Tsrf_min_N              =  -5.9584317325605E+00
(PID.TID 0000.0001) %MON thSI_Tsrf_max_S              =   0.0000000000000E+00
(PID.TID 0000.0001) %MON thSI_Tsrf_max_N              =  -5.7692161766377E+00
(PID.TID 0000.0001) %MON thSI_Tic1_ave_G              =  -3.4630425028099E+00
(PID.TID 0000.0001) %MON thSI_Tic1_ave_S              =   0.0000000000000E+00
(PID.TID 0000.0001) %MON thSI_Tic1_ave_N              =  -3.4630425028099E+00
(PID.TID 0000.0001) %MON thSI_Tic1_min_S              =   0.0000000000000E+00
(PID.TID 0000.0001) %MON thSI_Tic1_min_N              =  -3.5230015731388E+00
(PID.TID 0000.0001) %MON thSI_Tic1_max_S              =   0.0000000000000E+00
(PID.TID 0000.0001) %MON thSI_Tic1_max_N              =  -3.3720539474257E+00
(PID.TID 0000.0001) %MON thSI_Tic2_ave_G              =  -2.0541707029048E+00
(PID.TID 0000.0001) %MON thSI_Tic2_ave_S              =   0.0000000000000E+00
(PID.TID 0000.0001) %MON thSI_Tic2_ave_N              =  -2.0541707029048E+00
(PID.TID 0000.0001) %MON thSI_Tic2_min_S              =   0.0000000000000E+00
(PID.TID 0000.0001) %MON thSI_Tic2_min_N              =  -2.1068153531896E+00
(PID.TID 0000.0001) %MON thSI_Tic2_max_S              =   0.0000000000000E+00
(PID.TID 0000.0001) %MON thSI_Tic2_max_N              =  -1.9980138730434E+00
(PID.TID 0000.0001) // =======================================================
(PID.TID 0000.0001) // End MONITOR Therm.SeaIce statistics
(PID.TID 0000.0001) // =======================================================
 cg2d: Sum(rhs),rhsMax =   1.51885615196079E-10  2.24924081978611E+04
(PID.TID 0000.0001)                    cg2d_init_res =    2.04212490142746E+04
(PID.TID 0000.0001)                       cg2d_iters =    16
(PID.TID 0000.0001)                         cg2d_res =    7.63533244739738E-11
(PID.TID 0000.0001) // =======================================================
(PID.TID 0000.0001) // Begin MONITOR dynamic field statistics
(PID.TID 0000.0001) // =======================================================
(PID.TID 0000.0001) %MON time_tsnumber                =                     8
(PID.TID 0000.0001) %MON time_secondsf                =   3.6000000000000E+03
(PID.TID 0000.0001) %MON dynstat_eta_max              =   4.0369430988481E+03
(PID.TID 0000.0001) %MON dynstat_eta_min              =  -2.6640737566128E+03
(PID.TID 0000.0001) %MON dynstat_eta_mean             =  -5.9116968084831E-15
(PID.TID 0000.0001) %MON dynstat_eta_sd               =   4.0817411604161E+02
(PID.TID 0000.0001) %MON dynstat_eta_del2             =   3.9963723264724E+01
(PID.TID 0000.0001) %MON dynstat_uvel_max             =   7.2847732712939E+00
(PID.TID 0000.0001) %MON dynstat_uvel_min             =  -8.0389006717320E+00
(PID.TID 0000.0001) %MON dynstat_uvel_mean            =  -6.2846393226132E-03
(PID.TID 0000.0001) %MON dynstat_uvel_sd              =   7.7757942164566E-01
(PID.TID 0000.0001) %MON dynstat_uvel_del2            =   2.0356119657779E-02
(PID.TID 0000.0001) %MON dynstat_vvel_max             =   7.9113273369144E+00
(PID.TID 0000.0001) %MON dynstat_vvel_min             =  -8.4836265711476E+00
(PID.TID 0000.0001) %MON dynstat_vvel_mean            =   1.0444271085484E-02
(PID.TID 0000.0001) %MON dynstat_vvel_sd              =   7.8789816462456E-01
(PID.TID 0000.0001) %MON dynstat_vvel_del2            =   2.0502036338439E-02
(PID.TID 0000.0001) %MON dynstat_wvel_max             =   1.0982214223094E-01
(PID.TID 0000.0001) %MON dynstat_wvel_min             =  -3.7101000655897E-01
(PID.TID 0000.0001) %MON dynstat_wvel_mean            =  -1.9729512733647E-03
(PID.TID 0000.0001) %MON dynstat_wvel_sd              =   1.5072331219610E-02
(PID.TID 0000.0001) %MON dynstat_wvel_del2            =   1.2906864340910E-03
(PID.TID 0000.0001) %MON dynstat_theta_max            =   4.3755367404489E+02
(PID.TID 0000.0001) %MON dynstat_theta_min            =   2.8762341230872E+02
(PID.TID 0000.0001) %MON dynstat_theta_mean           =   3.3171360479035E+02
(PID.TID 0000.0001) %MON dynstat_theta_sd             =   4.7421619998178E+01
(PID.TID 0000.0001) %MON dynstat_theta_del2           =   1.0080181360540E-02
(PID.TID 0000.0001) %MON dynstat_salt_max             =   2.6593773882475E+00
(PID.TID 0000.0001) %MON dynstat_salt_min             =  -1.4288422586251E-03
(PID.TID 0000.0001) %MON dynstat_salt_mean            =   3.0833498659495E-02
(PID.TID 0000.0001) %MON dynstat_salt_sd              =   1.3141258425159E-01
(PID.TID 0000.0001) %MON dynstat_salt_del2            =   4.7917524801089E-03
(PID.TID 0000.0001) %MON advcfl_uvel_max              =   1.1434122685184E-02
(PID.TID 0000.0001) %MON advcfl_vvel_max              =   1.2032509327221E-02
(PID.TID 0000.0001) %MON advcfl_wvel_max              =   6.0710728346014E-03
(PID.TID 0000.0001) %MON advcfl_W_hf_max              =   1.8133645194243E-02
(PID.TID 0000.0001) %MON pe_b_mean                    =  -9.4084254848693E-01
(PID.TID 0000.0001) %MON ke_max                       =   3.7647955230608E+01
(PID.TID 0000.0001) %MON ke_mean                      =   6.0917323566278E-01
(PID.TID 0000.0001) %MON ke_vol                       =   4.9523908919847E+19
(PID.TID 0000.0001) %MON vort_r_min                   =  -2.7277930754868E-05
(PID.TID 0000.0001) %MON vort_r_max                   =   1.7970333640445E-05
(PID.TID 0000.0001) %MON vort_a_mean                  =   6.7059142262055E-08
(PID.TID 0000.0001) %MON vort_a_sd                    =   8.3718193809999E-05
(PID.TID 0000.0001) %MON vort_p_mean                  =   6.8751142391446E-08
(PID.TID 0000.0001) %MON vort_p_sd                    =   9.1552206260532E-05
(PID.TID 0000.0001) %MON surfExpan_theta_mean         =   1.9208639731116E-01
(PID.TID 0000.0001) %MON surfExpan_salt_mean          =  -6.0111472709354E-05
(PID.TID 0000.0001) %MON surfExpan_Heat_mean          =  -1.5931690158395E+01
(PID.TID 0000.0001) %MON En_Budget_T2PE_mean          =   3.0069820926922E+01
(PID.TID 0000.0001) // =======================================================
(PID.TID 0000.0001) // End MONITOR dynamic field statistics
(PID.TID 0000.0001) // =======================================================
(PID.TID 0000.0001) // =======================================================
(PID.TID 0000.0001) // Begin MONITOR Land statistics
(PID.TID 0000.0001) // =======================================================
(PID.TID 0000.0001) %MON land_time_sec                =   3.6000000000000E+03
(PID.TID 0000.0001) %MON land_SnwH_ave_G              =   1.5324044636141E-01
(PID.TID 0000.0001) %MON land_SnwH_ave_S              =   5.5905643130043E-01
(PID.TID 0000.0001) %MON land_SnwH_ave_T              =   0.0000000000000E+00
(PID.TID 0000.0001) %MON land_SnwH_ave_N              =   1.2392567687869E-01
(PID.TID 0000.0001) %MON land_SnwH_max_S              =   9.9999591806428E-01
(PID.TID 0000.0001) %MON land_SnwH_max_T              =   0.0000000000000E+00
(PID.TID 0000.0001) %MON land_SnwH_max_N              =   9.9999942774794E-01
(PID.TID 0000.0001) %MON land_TotEnerg_G              =  -6.3029113185350E+21
(PID.TID 0000.0001) %MON land_TotEnerg_S              =  -4.9978483619435E+21
(PID.TID 0000.0001) %MON land_TotEnerg_T              =   7.3095396480700E+21
(PID.TID 0000.0001) %MON land_TotEnerg_N              =  -8.6146026046615E+21
(PID.TID 0000.0001) %MON land_Tsrf_ave_G              =  -6.7003663502800E+00
(PID.TID 0000.0001) %MON land_Tsrf_ave_S              =  -6.1878999024132E+00
(PID.TID 0000.0001) %MON land_Tsrf_ave_T              =   1.3945540360063E+01
(PID.TID 0000.0001) %MON land_Tsrf_ave_N              =  -2.0653336658900E+01
(PID.TID 0000.0001) %MON land_Tsrf_min_S              =  -3.4291903467517E+01
(PID.TID 0000.0001) %MON land_Tsrf_min_T              =  -6.1817949869462E+00
(PID.TID 0000.0001) %MON land_Tsrf_min_N              =  -5.1697235426274E+01
(PID.TID 0000.0001) %MON land_Tsrf_max_S              =   2.5126702216633E+01
(PID.TID 0000.0001) %MON land_Tsrf_max_T              =   2.7293282339127E+01
(PID.TID 0000.0001) %MON land_Tsrf_max_N              =   1.1877236910519E+01
(PID.TID 0000.0001) %MON land_Tgr1_ave_G              =  -5.3860839513169E+00
(PID.TID 0000.0001) %MON land_Tgr1_ave_S              =  -5.7887201582521E+00
(PID.TID 0000.0001) %MON land_Tgr1_ave_T              =   1.3945540360063E+01
(PID.TID 0000.0001) %MON land_Tgr1_ave_N              =  -1.8164561400884E+01
(PID.TID 0000.0001) %MON land_Tgr1_min_S              =  -3.9083949731981E+01
(PID.TID 0000.0001) %MON land_Tgr1_min_T              =  -6.1817949869462E+00
(PID.TID 0000.0001) %MON land_Tgr1_min_N              =  -5.4910562739481E+01
(PID.TID 0000.0001) %MON land_Tgr1_max_S              =   2.5126702216633E+01
(PID.TID 0000.0001) %MON land_Tgr1_max_T              =   2.7293282339127E+01
(PID.TID 0000.0001) %MON land_Tgr1_max_N              =   1.1877236910519E+01
(PID.TID 0000.0001) %MON land_Tgr2_ave_G              =   4.2065433230497E+00
(PID.TID 0000.0001) %MON land_Tgr2_ave_S              =  -1.8730063060311E+01
(PID.TID 0000.0001) %MON land_Tgr2_ave_T              =   2.2012335760249E+01
(PID.TID 0000.0001) %MON land_Tgr2_ave_N              =  -2.4314585129849E-01
(PID.TID 0000.0001) %MON land_Tgr2_min_S              =  -6.4758825486448E+01
(PID.TID 0000.0001) %MON land_Tgr2_min_T              =  -9.7048287111685E+00
(PID.TID 0000.0001) %MON land_Tgr2_min_N              =  -4.0195543780512E+01
(PID.TID 0000.0001) %MON land_Tgr2_max_S              =   2.3360626907211E+01
(PID.TID 0000.0001) %MON land_Tgr2_max_T              =   3.1358543039088E+01
(PID.TID 0000.0001) %MON land_Tgr2_max_N              =   2.9829762999249E+01
(PID.TID 0000.0001) %MON land_grdW_ave_G              =   4.8692283620038E-01
(PID.TID 0000.0001) %MON land_grdW_ave_S              =   3.0867473171705E-01
(PID.TID 0000.0001) %MON land_grdW_ave_T              =   5.6459292901980E-01
(PID.TID 0000.0001) %MON land_grdW_ave_N              =   4.9287963146550E-01
(PID.TID 0000.0001) %MON land_grdW_min_S              =   2.6164622269286E-02
(PID.TID 0000.0001) %MON land_grdW_min_T              =   0.0000000000000E+00
(PID.TID 0000.0001) %MON land_grdW_min_N              =   0.0000000000000E+00
(PID.TID 0000.0001) // =======================================================
(PID.TID 0000.0001) // End MONITOR Land statistics
(PID.TID 0000.0001) // =======================================================
(PID.TID 0000.0001) // =======================================================
(PID.TID 0000.0001) // Begin MONITOR Therm.SeaIce statistics
(PID.TID 0000.0001) // =======================================================
(PID.TID 0000.0001) %MON thSI_time_sec                =   3.6000000000000E+03
(PID.TID 0000.0001) %MON thSI_Ice_Area_G              =   9.6677232452564E+10
(PID.TID 0000.0001) %MON thSI_Ice_Area_S              =   0.0000000000000E+00
(PID.TID 0000.0001) %MON thSI_Ice_Area_N              =   9.6677232452564E+10
(PID.TID 0000.0001) %MON thSI_IceH_ave_G              =   1.1673090097524E-01
(PID.TID 0000.0001) %MON thSI_IceH_ave_S              =   0.0000000000000E+00
(PID.TID 0000.0001) %MON thSI_IceH_ave_N              =   1.1673090097524E-01
(PID.TID 0000.0001) %MON thSI_IceH_max_S              =   0.0000000000000E+00
(PID.TID 0000.0001) %MON thSI_IceH_max_N              =   1.2105155792082E-01
(PID.TID 0000.0001) %MON thSI_SnwH_ave_G              =   0.0000000000000E+00
(PID.TID 0000.0001) %MON thSI_SnwH_ave_S              =   0.0000000000000E+00
(PID.TID 0000.0001) %MON thSI_SnwH_ave_N              =   0.0000000000000E+00
(PID.TID 0000.0001) %MON thSI_SnwH_max_S              =   0.0000000000000E+00
(PID.TID 0000.0001) %MON thSI_SnwH_max_N              =   0.0000000000000E+00
(PID.TID 0000.0001) %MON thSI_TotEnerg_G              =  -3.4315362745413E+18
(PID.TID 0000.0001) %MON thSI_Tsrf_ave_G              =  -6.1863040076115E+00
(PID.TID 0000.0001) %MON thSI_Tsrf_ave_S              =   0.0000000000000E+00
(PID.TID 0000.0001) %MON thSI_Tsrf_ave_N              =  -6.1863040076115E+00
(PID.TID 0000.0001) %MON thSI_Tsrf_min_S              =   0.0000000000000E+00
(PID.TID 0000.0001) %MON thSI_Tsrf_min_N              =  -6.2662051894508E+00
(PID.TID 0000.0001) %MON thSI_Tsrf_max_S              =   0.0000000000000E+00
(PID.TID 0000.0001) %MON thSI_Tsrf_max_N              =  -6.0643855490681E+00
(PID.TID 0000.0001) %MON thSI_Tic1_ave_G              =  -3.7624875403108E+00
(PID.TID 0000.0001) %MON thSI_Tic1_ave_S              =   0.0000000000000E+00
(PID.TID 0000.0001) %MON thSI_Tic1_ave_N              =  -3.7624875403108E+00
(PID.TID 0000.0001) %MON thSI_Tic1_min_S              =   0.0000000000000E+00
(PID.TID 0000.0001) %MON thSI_Tic1_min_N              =  -3.8217888376898E+00
(PID.TID 0000.0001) %MON thSI_Tic1_max_S              =   0.0000000000000E+00
(PID.TID 0000.0001) %MON thSI_Tic1_max_N              =  -3.6725618786968E+00
(PID.TID 0000.0001) %MON thSI_Tic2_ave_G              =  -2.1379897668664E+00
(PID.TID 0000.0001) %MON thSI_Tic2_ave_S              =   0.0000000000000E+00
(PID.TID 0000.0001) %MON thSI_Tic2_ave_N              =  -2.1379897668664E+00
(PID.TID 0000.0001) %MON thSI_Tic2_min_S              =   0.0000000000000E+00
(PID.TID 0000.0001) %MON thSI_Tic2_min_N              =  -2.1957640283580E+00
(PID.TID 0000.0001) %MON thSI_Tic2_max_S              =   0.0000000000000E+00
(PID.TID 0000.0001) %MON thSI_Tic2_max_N              =  -2.0822305233697E+00
(PID.TID 0000.0001) // =======================================================
(PID.TID 0000.0001) // End MONITOR Therm.SeaIce statistics
(PID.TID 0000.0001) // =======================================================
 cg2d: Sum(rhs),rhsMax =  -1.05046638054773E-10  2.21017475984546E+04
(PID.TID 0000.0001)                    cg2d_init_res =    1.96134717286146E+04
(PID.TID 0000.0001)                       cg2d_iters =    16
(PID.TID 0000.0001)                         cg2d_res =    7.89626713636631E-11
(PID.TID 0000.0001) // =======================================================
(PID.TID 0000.0001) // Begin MONITOR dynamic field statistics
(PID.TID 0000.0001) // =======================================================
(PID.TID 0000.0001) %MON time_tsnumber                =                     9
(PID.TID 0000.0001) %MON time_secondsf                =   4.0500000000000E+03
(PID.TID 0000.0001) %MON dynstat_eta_max              =   4.0110252207034E+03
(PID.TID 0000.0001) %MON dynstat_eta_min              =  -2.5311936855233E+03
(PID.TID 0000.0001) %MON dynstat_eta_mean             =  -3.2131515562031E-15
(PID.TID 0000.0001) %MON dynstat_eta_sd               =   4.3500970693697E+02
(PID.TID 0000.0001) %MON dynstat_eta_del2             =   3.8779674267795E+01
(PID.TID 0000.0001) %MON dynstat_uvel_max             =   6.7852438593253E+00
(PID.TID 0000.0001) %MON dynstat_uvel_min             =  -7.7613938345569E+00
(PID.TID 0000.0001) %MON dynstat_uvel_mean            =  -6.9037807560989E-03
(PID.TID 0000.0001) %MON dynstat_uvel_sd              =   7.8630735919235E-01
(PID.TID 0000.0001) %MON dynstat_uvel_del2            =   2.0082544247801E-02
(PID.TID 0000.0001) %MON dynstat_vvel_max             =   8.3382027205822E+00
(PID.TID 0000.0001) %MON dynstat_vvel_min             =  -8.4358755268872E+00
(PID.TID 0000.0001) %MON dynstat_vvel_mean            =   1.2072662369690E-02
(PID.TID 0000.0001) %MON dynstat_vvel_sd              =   8.1902146389782E-01
(PID.TID 0000.0001) %MON dynstat_vvel_del2            =   2.0721021771809E-02
(PID.TID 0000.0001) %MON dynstat_wvel_max             =   1.4147614655780E-01
(PID.TID 0000.0001) %MON dynstat_wvel_min             =  -3.4691369404291E-01
(PID.TID 0000.0001) %MON dynstat_wvel_mean            =  -1.7933763530704E-03
(PID.TID 0000.0001) %MON dynstat_wvel_sd              =   1.4202753419428E-02
(PID.TID 0000.0001) %MON dynstat_wvel_del2            =   1.3173554217793E-03
(PID.TID 0000.0001) %MON dynstat_theta_max            =   4.3757194224995E+02
(PID.TID 0000.0001) %MON dynstat_theta_min            =   2.8738064186639E+02
(PID.TID 0000.0001) %MON dynstat_theta_mean           =   3.3171246921477E+02
(PID.TID 0000.0001) %MON dynstat_theta_sd             =   4.7423088014290E+01
(PID.TID 0000.0001) %MON dynstat_theta_del2           =   1.1000603770554E-02
(PID.TID 0000.0001) %MON dynstat_salt_max             =   2.8586366633305E+00
(PID.TID 0000.0001) %MON dynstat_salt_min             =  -1.7158197010890E-03
(PID.TID 0000.0001) %MON dynstat_salt_mean            =   3.4516188940554E-02
(PID.TID 0000.0001) %MON dynstat_salt_sd              =   1.4666338674438E-01
(PID.TID 0000.0001) %MON dynstat_salt_del2            =   5.2360631967537E-03
(PID.TID 0000.0001) %MON advcfl_uvel_max              =   1.1039411100627E-02
(PID.TID 0000.0001) %MON advcfl_vvel_max              =   1.1950845218338E-02
(PID.TID 0000.0001) %MON advcfl_wvel_max              =   5.6767695388841E-03
(PID.TID 0000.0001) %MON advcfl_W_hf_max              =   1.7581376324880E-02
(PID.TID 0000.0001) %MON pe_b_mean                    =  -9.9442170479055E-01
(PID.TID 0000.0001) %MON ke_max                       =   3.7645453516715E+01
(PID.TID 0000.0001) %MON ke_mean                      =   6.4083988674812E-01
(PID.TID 0000.0001) %MON ke_vol                       =   4.9523908919847E+19
(PID.TID 0000.0001) %MON vort_r_min                   =  -2.6900659044362E-05
(PID.TID 0000.0001) %MON vort_r_max                   =   1.9436235257367E-05
(PID.TID 0000.0001) %MON vort_a_mean                  =   6.7059142262021E-08
(PID.TID 0000.0001) %MON vort_a_sd                    =   8.3720487817045E-05
(PID.TID 0000.0001) %MON vort_p_mean                  =   6.8751142766060E-08
(PID.TID 0000.0001) %MON vort_p_sd                    =   9.1575215344109E-05
(PID.TID 0000.0001) %MON surfExpan_theta_mean         =   1.7459124605502E-01
(PID.TID 0000.0001) %MON surfExpan_salt_mean          =  -8.0232867048161E-05
(PID.TID 0000.0001) %MON surfExpan_Heat_mean          =  -1.4542835756741E+01
(PID.TID 0000.0001) %MON En_Budget_T2PE_mean          =   2.7380332697400E+01
(PID.TID 0000.0001) // =======================================================
(PID.TID 0000.0001) // End MONITOR dynamic field statistics
(PID.TID 0000.0001) // =======================================================
(PID.TID 0000.0001) // =======================================================
(PID.TID 0000.0001) // Begin MONITOR Land statistics
(PID.TID 0000.0001) // =======================================================
(PID.TID 0000.0001) %MON land_time_sec                =   4.0500000000000E+03
(PID.TID 0000.0001) %MON land_SnwH_ave_G              =   1.5323938351023E-01
(PID.TID 0000.0001) %MON land_SnwH_ave_S              =   5.5905549079123E-01
(PID.TID 0000.0001) %MON land_SnwH_ave_T              =   0.0000000000000E+00
(PID.TID 0000.0001) %MON land_SnwH_ave_N              =   1.2392386459975E-01
(PID.TID 0000.0001) %MON land_SnwH_max_S              =   9.9999536764696E-01
(PID.TID 0000.0001) %MON land_SnwH_max_T              =   0.0000000000000E+00
(PID.TID 0000.0001) %MON land_SnwH_max_N              =   9.9999936228716E-01
(PID.TID 0000.0001) %MON land_TotEnerg_G              =  -6.3081859877155E+21
(PID.TID 0000.0001) %MON land_TotEnerg_S              =  -4.9984259620524E+21
(PID.TID 0000.0001) %MON land_TotEnerg_T              =   7.3057237619800E+21
(PID.TID 0000.0001) %MON land_TotEnerg_N              =  -8.6154837876431E+21
(PID.TID 0000.0001) %MON land_Tsrf_ave_G              =  -6.8930936577515E+00
(PID.TID 0000.0001) %MON land_Tsrf_ave_S              =  -6.2949024423290E+00
(PID.TID 0000.0001) %MON land_Tsrf_ave_T              =   1.3507515630741E+01
(PID.TID 0000.0001) %MON land_Tsrf_ave_N              =  -2.0710070154399E+01
(PID.TID 0000.0001) %MON land_Tsrf_min_S              =  -3.4176644348330E+01
(PID.TID 0000.0001) %MON land_Tsrf_min_T              =  -5.9857476380796E+00
(PID.TID 0000.0001) %MON land_Tsrf_min_N              =  -5.1868222066680E+01
(PID.TID 0000.0001) %MON land_Tsrf_max_S              =   2.4532860345772E+01
(PID.TID 0000.0001) %MON land_Tsrf_max_T              =   2.6510948936438E+01
(PID.TID 0000.0001) %MON land_Tsrf_max_N              =   1.1588654332731E+01
(PID.TID 0000.0001) %MON land_Tgr1_ave_G              =  -5.5909898804968E+00
(PID.TID 0000.0001) %MON land_Tgr1_ave_S              =  -5.9620634738571E+00
(PID.TID 0000.0001) %MON land_Tgr1_ave_T              =   1.3507515630741E+01
(PID.TID 0000.0001) %MON land_Tgr1_ave_N              =  -1.8224036170765E+01
(PID.TID 0000.0001) %MON land_Tgr1_min_S              =  -3.9095612538090E+01
(PID.TID 0000.0001) %MON land_Tgr1_min_T              =  -5.9857476380796E+00
(PID.TID 0000.0001) %MON land_Tgr1_min_N              =  -5.4897567046797E+01
(PID.TID 0000.0001) %MON land_Tgr1_max_S              =   2.4532860345772E+01
(PID.TID 0000.0001) %MON land_Tgr1_max_T              =   2.6510948936438E+01
(PID.TID 0000.0001) %MON land_Tgr1_max_N              =   1.1588654332731E+01
(PID.TID 0000.0001) %MON land_Tgr2_ave_G              =   4.2063938119719E+00
(PID.TID 0000.0001) %MON land_Tgr2_ave_S              =  -1.8729850159370E+01
(PID.TID 0000.0001) %MON land_Tgr2_ave_T              =   2.2012195587489E+01
(PID.TID 0000.0001) %MON land_Tgr2_ave_N              =  -2.4341916248093E-01
(PID.TID 0000.0001) %MON land_Tgr2_min_S              =  -6.4758392618744E+01
(PID.TID 0000.0001) %MON land_Tgr2_min_T              =  -9.7047817186396E+00
(PID.TID 0000.0001) %MON land_Tgr2_min_N              =  -4.0195783157224E+01
(PID.TID 0000.0001) %MON land_Tgr2_max_S              =   2.3360639560482E+01
(PID.TID 0000.0001) %MON land_Tgr2_max_T              =   3.1358191353872E+01
(PID.TID 0000.0001) %MON land_Tgr2_max_N              =   2.9829344254962E+01
(PID.TID 0000.0001) %MON land_grdW_ave_G              =   4.8690999105367E-01
(PID.TID 0000.0001) %MON land_grdW_ave_S              =   3.0866425668122E-01
(PID.TID 0000.0001) %MON land_grdW_ave_T              =   5.6456021574986E-01
(PID.TID 0000.0001) %MON land_grdW_ave_N              =   4.9287928481764E-01
(PID.TID 0000.0001) %MON land_grdW_min_S              =   2.6224883390493E-02
(PID.TID 0000.0001) %MON land_grdW_min_T              =   0.0000000000000E+00
(PID.TID 0000.0001) %MON land_grdW_min_N              =   0.0000000000000E+00
(PID.TID 0000.0001) // =======================================================
(PID.TID 0000.0001) // End MONITOR Land statistics
(PID.TID 0000.0001) // =======================================================
(PID.TID 0000.0001) // =======================================================
(PID.TID 0000.0001) // Begin MONITOR Therm.SeaIce statistics
(PID.TID 0000.0001) // =======================================================
(PID.TID 0000.0001) %MON thSI_time_sec                =   4.0500000000000E+03
(PID.TID 0000.0001) %MON thSI_Ice_Area_G              =   1.0648601547556E+11
(PID.TID 0000.0001) %MON thSI_Ice_Area_S              =   0.0000000000000E+00
(PID.TID 0000.0001) %MON thSI_Ice_Area_N              =   1.0648601547556E+11
(PID.TID 0000.0001) %MON thSI_IceH_ave_G              =   1.1913364365834E-01
(PID.TID 0000.0001) %MON thSI_IceH_ave_S              =   0.0000000000000E+00
(PID.TID 0000.0001) %MON thSI_IceH_ave_N              =   1.1913364365834E-01
(PID.TID 0000.0001) %MON thSI_IceH_max_S              =   0.0000000000000E+00
(PID.TID 0000.0001) %MON thSI_IceH_max_N              =   1.2408301708327E-01
(PID.TID 0000.0001) %MON thSI_SnwH_ave_G              =   0.0000000000000E+00
(PID.TID 0000.0001) %MON thSI_SnwH_ave_S              =   0.0000000000000E+00
(PID.TID 0000.0001) %MON thSI_SnwH_ave_N              =   0.0000000000000E+00
(PID.TID 0000.0001) %MON thSI_SnwH_max_S              =   0.0000000000000E+00
(PID.TID 0000.0001) %MON thSI_SnwH_max_N              =   0.0000000000000E+00
(PID.TID 0000.0001) %MON thSI_TotEnerg_G              =  -3.8636601201273E+18
(PID.TID 0000.0001) %MON thSI_Tsrf_ave_G              =  -6.4745613129675E+00
(PID.TID 0000.0001) %MON thSI_Tsrf_ave_S              =   0.0000000000000E+00
(PID.TID 0000.0001) %MON thSI_Tsrf_ave_N              =  -6.4745613129675E+00
(PID.TID 0000.0001) %MON thSI_Tsrf_min_S              =   0.0000000000000E+00
(PID.TID 0000.0001) %MON thSI_Tsrf_min_N              =  -6.5563468871158E+00
(PID.TID 0000.0001) %MON thSI_Tsrf_max_S              =   0.0000000000000E+00
(PID.TID 0000.0001) %MON thSI_Tsrf_max_N              =  -6.3449556644829E+00
(PID.TID 0000.0001) %MON thSI_Tic1_ave_G              =  -4.0448018364018E+00
(PID.TID 0000.0001) %MON thSI_Tic1_ave_S              =   0.0000000000000E+00
(PID.TID 0000.0001) %MON thSI_Tic1_ave_N              =  -4.0448018364018E+00
(PID.TID 0000.0001) %MON thSI_Tic1_min_S              =   0.0000000000000E+00
(PID.TID 0000.0001) %MON thSI_Tic1_min_N              =  -4.1094250887184E+00
(PID.TID 0000.0001) %MON thSI_Tic1_max_S              =   0.0000000000000E+00
(PID.TID 0000.0001) %MON thSI_Tic1_max_N              =  -3.9574369412981E+00
(PID.TID 0000.0001) %MON thSI_Tic2_ave_G              =  -2.2198044648546E+00
(PID.TID 0000.0001) %MON thSI_Tic2_ave_S              =   0.0000000000000E+00
(PID.TID 0000.0001) %MON thSI_Tic2_ave_N              =  -2.2198044648546E+00
(PID.TID 0000.0001) %MON thSI_Tic2_min_S              =   0.0000000000000E+00
(PID.TID 0000.0001) %MON thSI_Tic2_min_N              =  -2.2830117805904E+00
(PID.TID 0000.0001) %MON thSI_Tic2_max_S              =   0.0000000000000E+00
(PID.TID 0000.0001) %MON thSI_Tic2_max_N              =  -2.1634767959490E+00
(PID.TID 0000.0001) // =======================================================
(PID.TID 0000.0001) // End MONITOR Therm.SeaIce statistics
(PID.TID 0000.0001) // =======================================================
 cg2d: Sum(rhs),rhsMax =  -2.84671841654927E-10  2.12795848667196E+04
(PID.TID 0000.0001)                    cg2d_init_res =    1.88166227720015E+04
(PID.TID 0000.0001)                       cg2d_iters =    16
(PID.TID 0000.0001)                         cg2d_res =    8.15785291823258E-11
(PID.TID 0000.0001) // =======================================================
(PID.TID 0000.0001) // Begin MONITOR dynamic field statistics
(PID.TID 0000.0001) // =======================================================
(PID.TID 0000.0001) %MON time_tsnumber                =                    10
(PID.TID 0000.0001) %MON time_secondsf                =   4.5000000000000E+03
(PID.TID 0000.0001) %MON dynstat_eta_max              =   3.9172964033193E+03
(PID.TID 0000.0001) %MON dynstat_eta_min              =  -2.2947088314170E+03
(PID.TID 0000.0001) %MON dynstat_eta_mean             =  -1.8249696729372E-14
(PID.TID 0000.0001) %MON dynstat_eta_sd               =   4.5921674900513E+02
(PID.TID 0000.0001) %MON dynstat_eta_del2             =   3.8104588367183E+01
(PID.TID 0000.0001) %MON dynstat_uvel_max             =   6.7833371581316E+00
(PID.TID 0000.0001) %MON dynstat_uvel_min             =  -7.2510852473902E+00
(PID.TID 0000.0001) %MON dynstat_uvel_mean            =  -7.5003748197464E-03
(PID.TID 0000.0001) %MON dynstat_uvel_sd              =   7.8907956421717E-01
(PID.TID 0000.0001) %MON dynstat_uvel_del2            =   2.0019160338878E-02
(PID.TID 0000.0001) %MON dynstat_vvel_max             =   8.5706497284292E+00
(PID.TID 0000.0001) %MON dynstat_vvel_min             =  -8.3882643881136E+00
(PID.TID 0000.0001) %MON dynstat_vvel_mean            =   1.3738185938139E-02
(PID.TID 0000.0001) %MON dynstat_vvel_sd              =   8.4003119689394E-01
(PID.TID 0000.0001) %MON dynstat_vvel_del2            =   2.0816954981261E-02
(PID.TID 0000.0001) %MON dynstat_wvel_max             =   1.6038606992593E-01
(PID.TID 0000.0001) %MON dynstat_wvel_min             =  -3.3658328778964E-01
(PID.TID 0000.0001) %MON dynstat_wvel_mean            =  -1.6242777606136E-03
(PID.TID 0000.0001) %MON dynstat_wvel_sd              =   1.3402831994491E-02
(PID.TID 0000.0001) %MON dynstat_wvel_del2            =   1.3329953469062E-03
(PID.TID 0000.0001) %MON dynstat_theta_max            =   4.3759284081991E+02
(PID.TID 0000.0001) %MON dynstat_theta_min            =   2.8713761784917E+02
(PID.TID 0000.0001) %MON dynstat_theta_mean           =   3.3171122109342E+02
(PID.TID 0000.0001) %MON dynstat_theta_sd             =   4.7424647218853E+01
(PID.TID 0000.0001) %MON dynstat_theta_del2           =   1.1987029982446E-02
(PID.TID 0000.0001) %MON dynstat_salt_max             =   3.0396882461271E+00
(PID.TID 0000.0001) %MON dynstat_salt_min             =  -1.8832502475654E-03
(PID.TID 0000.0001) %MON dynstat_salt_mean            =   3.8170533095150E-02
(PID.TID 0000.0001) %MON dynstat_salt_sd              =   1.6175016506548E-01
(PID.TID 0000.0001) %MON dynstat_salt_del2            =   5.6645653998675E-03
(PID.TID 0000.0001) %MON advcfl_uvel_max              =   1.0313574169530E-02
(PID.TID 0000.0001) %MON advcfl_vvel_max              =   1.2050374733304E-02
(PID.TID 0000.0001) %MON advcfl_wvel_max              =   5.5077265274668E-03
(PID.TID 0000.0001) %MON advcfl_W_hf_max              =   1.6857018250148E-02
(PID.TID 0000.0001) %MON pe_b_mean                    =  -1.0336985393699E+00
(PID.TID 0000.0001) %MON ke_max                       =   3.6056428403690E+01
(PID.TID 0000.0001) %MON ke_mean                      =   6.6036201044028E-01
(PID.TID 0000.0001) %MON ke_vol                       =   4.9523908919847E+19
(PID.TID 0000.0001) %MON vort_r_min                   =  -2.9101591009375E-05
(PID.TID 0000.0001) %MON vort_r_max                   =   1.9998710484298E-05
(PID.TID 0000.0001) %MON vort_a_mean                  =   6.7059142262063E-08
(PID.TID 0000.0001) %MON vort_a_sd                    =   8.3722869289666E-05
(PID.TID 0000.0001) %MON vort_p_mean                  =   6.8751143398328E-08
(PID.TID 0000.0001) %MON vort_p_sd                    =   9.1595156137315E-05
(PID.TID 0000.0001) %MON surfExpan_theta_mean         =   1.5792822007953E-01
(PID.TID 0000.0001) %MON surfExpan_salt_mean          =  -1.0298670566399E-04
(PID.TID 0000.0001) %MON surfExpan_Heat_mean          =  -1.3220018168434E+01
(PID.TID 0000.0001) %MON En_Budget_T2PE_mean          =   2.4824241652728E+01
(PID.TID 0000.0001) // =======================================================
(PID.TID 0000.0001) // End MONITOR dynamic field statistics
(PID.TID 0000.0001) // =======================================================
(PID.TID 0000.0001) // =======================================================
(PID.TID 0000.0001) // Begin MONITOR Land statistics
(PID.TID 0000.0001) // =======================================================
(PID.TID 0000.0001) %MON land_time_sec                =   4.5000000000000E+03
(PID.TID 0000.0001) %MON land_SnwH_ave_G              =   1.5323833874314E-01
(PID.TID 0000.0001) %MON land_SnwH_ave_S              =   5.5905454427770E-01
(PID.TID 0000.0001) %MON land_SnwH_ave_T              =   0.0000000000000E+00
(PID.TID 0000.0001) %MON land_SnwH_ave_N              =   1.2392209029507E-01
(PID.TID 0000.0001) %MON land_SnwH_max_S              =   9.9999481053004E-01
(PID.TID 0000.0001) %MON land_SnwH_max_T              =   0.0000000000000E+00
(PID.TID 0000.0001) %MON land_SnwH_max_N              =   9.9999929752587E-01
(PID.TID 0000.0001) %MON land_TotEnerg_G              =  -6.3129782850164E+21
(PID.TID 0000.0001) %MON land_TotEnerg_S              =  -4.9989391248690E+21
(PID.TID 0000.0001) %MON land_TotEnerg_T              =   7.3023011587268E+21
(PID.TID 0000.0001) %MON land_TotEnerg_N              =  -8.6163403188742E+21
(PID.TID 0000.0001) %MON land_Tsrf_ave_G              =  -7.0691661562044E+00
(PID.TID 0000.0001) %MON land_Tsrf_ave_S              =  -6.4114688591821E+00
(PID.TID 0000.0001) %MON land_Tsrf_ave_T              =   1.3114552646486E+01
(PID.TID 0000.0001) %MON land_Tsrf_ave_N              =  -2.0760612975368E+01
(PID.TID 0000.0001) %MON land_Tsrf_min_S              =  -3.4086955168310E+01
(PID.TID 0000.0001) %MON land_Tsrf_min_T              =  -5.7964677228721E+00
(PID.TID 0000.0001) %MON land_Tsrf_min_N              =  -5.1928239005594E+01
(PID.TID 0000.0001) %MON land_Tsrf_max_S              =   2.4001725503716E+01
(PID.TID 0000.0001) %MON land_Tsrf_max_T              =   2.5803555254578E+01
(PID.TID 0000.0001) %MON land_Tsrf_max_N              =   1.1317522759511E+01
(PID.TID 0000.0001) %MON land_Tgr1_ave_G              =  -5.7761537478048E+00
(PID.TID 0000.0001) %MON land_Tgr1_ave_S              =  -6.1169929747553E+00
(PID.TID 0000.0001) %MON land_Tgr1_ave_T              =   1.3114552646486E+01
(PID.TID 0000.0001) %MON land_Tgr1_ave_N              =  -1.8280245743286E+01
(PID.TID 0000.0001) %MON land_Tgr1_min_S              =  -3.9107107883613E+01
(PID.TID 0000.0001) %MON land_Tgr1_min_T              =  -5.7964677228721E+00
(PID.TID 0000.0001) %MON land_Tgr1_min_N              =  -5.4884651254234E+01
(PID.TID 0000.0001) %MON land_Tgr1_max_S              =   2.4001725503716E+01
(PID.TID 0000.0001) %MON land_Tgr1_max_T              =   2.5803555254578E+01
(PID.TID 0000.0001) %MON land_Tgr1_max_N              =   1.1317522759511E+01
(PID.TID 0000.0001) %MON land_Tgr2_ave_G              =   4.2062413200635E+00
(PID.TID 0000.0001) %MON land_Tgr2_ave_S              =  -1.8729639722000E+01
(PID.TID 0000.0001) %MON land_Tgr2_ave_T              =   2.2012049243707E+01
(PID.TID 0000.0001) %MON land_Tgr2_ave_N              =  -2.4369349197365E-01
(PID.TID 0000.0001) %MON land_Tgr2_min_S              =  -6.4757959970221E+01
(PID.TID 0000.0001) %MON land_Tgr2_min_T              =  -9.7047323350985E+00
(PID.TID 0000.0001) %MON land_Tgr2_min_N              =  -4.0196022287720E+01
(PID.TID 0000.0001) %MON land_Tgr2_max_S              =   2.3360642686949E+01
(PID.TID 0000.0001) %MON land_Tgr2_max_T              =   3.1357831369516E+01
(PID.TID 0000.0001) %MON land_Tgr2_max_N              =   2.9828916770142E+01
(PID.TID 0000.0001) %MON land_grdW_ave_G              =   4.8689775316657E-01
(PID.TID 0000.0001) %MON land_grdW_ave_S              =   3.0865410057751E-01
(PID.TID 0000.0001) %MON land_grdW_ave_T              =   5.6452915447081E-01
(PID.TID 0000.0001) %MON land_grdW_ave_N              =   4.9287894132026E-01
(PID.TID 0000.0001) %MON land_grdW_min_S              =   2.6289459050469E-02
(PID.TID 0000.0001) %MON land_grdW_min_T              =   0.0000000000000E+00
(PID.TID 0000.0001) %MON land_grdW_min_N              =   0.0000000000000E+00
(PID.TID 0000.0001) // =======================================================
(PID.TID 0000.0001) // End MONITOR Land statistics
(PID.TID 0000.0001) // =======================================================
(PID.TID 0000.0001) // =======================================================
(PID.TID 0000.0001) // Begin MONITOR Therm.SeaIce statistics
(PID.TID 0000.0001) // =======================================================
(PID.TID 0000.0001) %MON thSI_time_sec                =   4.5000000000000E+03
(PID.TID 0000.0001) %MON thSI_Ice_Area_G              =   1.1590107566789E+11
(PID.TID 0000.0001) %MON thSI_Ice_Area_S              =   0.0000000000000E+00
(PID.TID 0000.0001) %MON thSI_Ice_Area_N              =   1.1590107566789E+11
(PID.TID 0000.0001) %MON thSI_IceH_ave_G              =   1.2153991046320E-01
(PID.TID 0000.0001) %MON thSI_IceH_ave_S              =   0.0000000000000E+00
(PID.TID 0000.0001) %MON thSI_IceH_ave_N              =   1.2153991046320E-01
(PID.TID 0000.0001) %MON thSI_IceH_max_S              =   0.0000000000000E+00
(PID.TID 0000.0001) %MON thSI_IceH_max_N              =   1.2712039935011E-01
(PID.TID 0000.0001) %MON thSI_SnwH_ave_G              =   0.0000000000000E+00
(PID.TID 0000.0001) %MON thSI_SnwH_ave_S              =   0.0000000000000E+00
(PID.TID 0000.0001) %MON thSI_SnwH_ave_N              =   0.0000000000000E+00
(PID.TID 0000.0001) %MON thSI_SnwH_max_S              =   0.0000000000000E+00
(PID.TID 0000.0001) %MON thSI_SnwH_max_N              =   0.0000000000000E+00
(PID.TID 0000.0001) %MON thSI_TotEnerg_G              =  -4.2963846829137E+18
(PID.TID 0000.0001) %MON thSI_Tsrf_ave_G              =  -6.7449623753693E+00
(PID.TID 0000.0001) %MON thSI_Tsrf_ave_S              =   0.0000000000000E+00
(PID.TID 0000.0001) %MON thSI_Tsrf_ave_N              =  -6.7449623753693E+00
(PID.TID 0000.0001) %MON thSI_Tsrf_min_S              =   0.0000000000000E+00
(PID.TID 0000.0001) %MON thSI_Tsrf_min_N              =  -6.8281726647039E+00
(PID.TID 0000.0001) %MON thSI_Tsrf_max_S              =   0.0000000000000E+00
(PID.TID 0000.0001) %MON thSI_Tsrf_max_N              =  -6.6085487857545E+00
(PID.TID 0000.0001) %MON thSI_Tic1_ave_G              =  -4.3083701222750E+00
(PID.TID 0000.0001) %MON thSI_Tic1_ave_S              =   0.0000000000000E+00
(PID.TID 0000.0001) %MON thSI_Tic1_ave_N              =  -4.3083701222750E+00
(PID.TID 0000.0001) %MON thSI_Tic1_min_S              =   0.0000000000000E+00
(PID.TID 0000.0001) %MON thSI_Tic1_min_N              =  -4.3782368240403E+00
(PID.TID 0000.0001) %MON thSI_Tic1_max_S              =   0.0000000000000E+00
(PID.TID 0000.0001) %MON thSI_Tic1_max_N              =  -4.2244966626463E+00
(PID.TID 0000.0001) %MON thSI_Tic2_ave_G              =  -2.2984049470236E+00
(PID.TID 0000.0001) %MON thSI_Tic2_ave_S              =   0.0000000000000E+00
(PID.TID 0000.0001) %MON thSI_Tic2_ave_N              =  -2.2984049470236E+00
(PID.TID 0000.0001) %MON thSI_Tic2_min_S              =   0.0000000000000E+00
(PID.TID 0000.0001) %MON thSI_Tic2_min_N              =  -2.3671442589819E+00
(PID.TID 0000.0001) %MON thSI_Tic2_max_S              =   0.0000000000000E+00
(PID.TID 0000.0001) %MON thSI_Tic2_max_N              =  -2.2374742133567E+00
(PID.TID 0000.0001) // =======================================================
(PID.TID 0000.0001) // End MONITOR Therm.SeaIce statistics
(PID.TID 0000.0001) // =======================================================
 cg2d: Sum(rhs),rhsMax =  -3.50155460182577E-10  2.03686280117154E+04
(PID.TID 0000.0001)                    cg2d_init_res =    1.79045884554150E+04
(PID.TID 0000.0001)                       cg2d_iters =    16
(PID.TID 0000.0001)                         cg2d_res =    8.53322342290621E-11
(PID.TID 0000.0001) // =======================================================
(PID.TID 0000.0001) // Begin MONITOR dynamic field statistics
(PID.TID 0000.0001) // =======================================================
(PID.TID 0000.0001) %MON time_tsnumber                =                    11
(PID.TID 0000.0001) %MON time_secondsf                =   4.9500000000000E+03
(PID.TID 0000.0001) %MON dynstat_eta_max              =   3.8574550478949E+03
(PID.TID 0000.0001) %MON dynstat_eta_min              =  -2.0311272024416E+03
(PID.TID 0000.0001) %MON dynstat_eta_mean             =   1.6818840177001E-14
(PID.TID 0000.0001) %MON dynstat_eta_sd               =   4.8117846030414E+02
(PID.TID 0000.0001) %MON dynstat_eta_del2             =   3.7826236600839E+01
(PID.TID 0000.0001) %MON dynstat_uvel_max             =   6.7159818854815E+00
(PID.TID 0000.0001) %MON dynstat_uvel_min             =  -6.6371949645454E+00
(PID.TID 0000.0001) %MON dynstat_uvel_mean            =  -8.0704640172721E-03
(PID.TID 0000.0001) %MON dynstat_uvel_sd              =   7.8826780285477E-01
(PID.TID 0000.0001) %MON dynstat_uvel_del2            =   1.9962666770297E-02
(PID.TID 0000.0001) %MON dynstat_vvel_max             =   8.5025869833084E+00
(PID.TID 0000.0001) %MON dynstat_vvel_min             =  -8.1313555383313E+00
(PID.TID 0000.0001) %MON dynstat_vvel_mean            =   1.5422706892044E-02
(PID.TID 0000.0001) %MON dynstat_vvel_sd              =   8.5125181474307E-01
(PID.TID 0000.0001) %MON dynstat_vvel_del2            =   2.0645238666739E-02
(PID.TID 0000.0001) %MON dynstat_wvel_max             =   1.7184807263575E-01
(PID.TID 0000.0001) %MON dynstat_wvel_min             =  -3.2129713972023E-01
(PID.TID 0000.0001) %MON dynstat_wvel_mean            =  -1.4619443431759E-03
(PID.TID 0000.0001) %MON dynstat_wvel_sd              =   1.2572142504179E-02
(PID.TID 0000.0001) %MON dynstat_wvel_del2            =   1.3317005291757E-03
(PID.TID 0000.0001) %MON dynstat_theta_max            =   4.3764978993550E+02
(PID.TID 0000.0001) %MON dynstat_theta_min            =   2.8689485908590E+02
(PID.TID 0000.0001) %MON dynstat_theta_mean           =   3.3170987896578E+02
(PID.TID 0000.0001) %MON dynstat_theta_sd             =   4.7426283962367E+01
(PID.TID 0000.0001) %MON dynstat_theta_del2           =   1.3018670436068E-02
(PID.TID 0000.0001) %MON dynstat_salt_max             =   3.2045511307397E+00
(PID.TID 0000.0001) %MON dynstat_salt_min             =  -2.2326784738859E-03
(PID.TID 0000.0001) %MON dynstat_salt_mean            =   4.1798051403240E-02
(PID.TID 0000.0001) %MON dynstat_salt_sd              =   1.7647559157449E-01
(PID.TID 0000.0001) %MON dynstat_salt_del2            =   6.0784687601011E-03
(PID.TID 0000.0001) %MON advcfl_uvel_max              =   9.5442998481785E-03
(PID.TID 0000.0001) %MON advcfl_vvel_max              =   1.1954678186359E-02
(PID.TID 0000.0001) %MON advcfl_wvel_max              =   5.2575895590583E-03
(PID.TID 0000.0001) %MON advcfl_W_hf_max              =   1.5930289882137E-02
(PID.TID 0000.0001) %MON pe_b_mean                    =  -1.0603885154238E+00
(PID.TID 0000.0001) %MON ke_max                       =   3.6986344993620E+01
(PID.TID 0000.0001) %MON ke_mean                      =   6.6918663778061E-01
(PID.TID 0000.0001) %MON ke_vol                       =   4.9523908919847E+19
(PID.TID 0000.0001) %MON vort_r_min                   =  -3.1197227523809E-05
(PID.TID 0000.0001) %MON vort_r_max                   =   1.9778990614408E-05
(PID.TID 0000.0001) %MON vort_a_mean                  =   6.7059142262063E-08
(PID.TID 0000.0001) %MON vort_a_sd                    =   8.3725319118064E-05
(PID.TID 0000.0001) %MON vort_p_mean                  =   6.8751144299852E-08
(PID.TID 0000.0001) %MON vort_p_sd                    =   9.1612205176513E-05
(PID.TID 0000.0001) %MON surfExpan_theta_mean         =   1.4176615651691E-01
(PID.TID 0000.0001) %MON surfExpan_salt_mean          =  -1.2843643354928E-04
(PID.TID 0000.0001) %MON surfExpan_Heat_mean          =  -1.1938111161908E+01
(PID.TID 0000.0001) %MON En_Budget_T2PE_mean          =   2.2350777538812E+01
(PID.TID 0000.0001) // =======================================================
(PID.TID 0000.0001) // End MONITOR dynamic field statistics
(PID.TID 0000.0001) // =======================================================
(PID.TID 0000.0001) // =======================================================
(PID.TID 0000.0001) // Begin MONITOR Land statistics
(PID.TID 0000.0001) // =======================================================
(PID.TID 0000.0001) %MON land_time_sec                =   4.9500000000000E+03
(PID.TID 0000.0001) %MON land_SnwH_ave_G              =   1.5323731183647E-01
(PID.TID 0000.0001) %MON land_SnwH_ave_S              =   5.5905359916072E-01
(PID.TID 0000.0001) %MON land_SnwH_ave_T              =   0.0000000000000E+00
(PID.TID 0000.0001) %MON land_SnwH_ave_N              =   1.2392035111825E-01
(PID.TID 0000.0001) %MON land_SnwH_max_S              =   9.9999425130228E-01
(PID.TID 0000.0001) %MON land_SnwH_max_T              =   0.0000000000000E+00
(PID.TID 0000.0001) %MON land_SnwH_max_N              =   9.9999923289102E-01
(PID.TID 0000.0001) %MON land_TotEnerg_G              =  -6.3173378260452E+21
(PID.TID 0000.0001) %MON land_TotEnerg_S              =  -4.9993953540567E+21
(PID.TID 0000.0001) %MON land_TotEnerg_T              =   7.2992311961177E+21
(PID.TID 0000.0001) %MON land_TotEnerg_N              =  -8.6171736681061E+21
(PID.TID 0000.0001) %MON land_Tsrf_ave_G              =  -7.2310687983094E+00
(PID.TID 0000.0001) %MON land_Tsrf_ave_S              =  -6.5360573037692E+00
(PID.TID 0000.0001) %MON land_Tsrf_ave_T              =   1.2761690738959E+01
(PID.TID 0000.0001) %MON land_Tsrf_ave_N              =  -2.0807103134356E+01
(PID.TID 0000.0001) %MON land_Tsrf_min_S              =  -3.4033604068799E+01
(PID.TID 0000.0001) %MON land_Tsrf_min_T              =  -5.6136284100828E+00
(PID.TID 0000.0001) %MON land_Tsrf_min_N              =  -5.1940835829550E+01
(PID.TID 0000.0001) %MON land_Tsrf_max_S              =   2.3526614970371E+01
(PID.TID 0000.0001) %MON land_Tsrf_max_T              =   2.5163657893210E+01
(PID.TID 0000.0001) %MON land_Tsrf_max_N              =   1.1057055602233E+01
(PID.TID 0000.0001) %MON land_Tgr1_ave_G              =  -5.9438433792838E+00
(PID.TID 0000.0001) %MON land_Tgr1_ave_S              =  -6.2554721641293E+00
(PID.TID 0000.0001) %MON land_Tgr1_ave_T              =   1.2761690738959E+01
(PID.TID 0000.0001) %MON land_Tgr1_ave_N              =  -1.8333758464080E+01
(PID.TID 0000.0001) %MON land_Tgr1_min_S              =  -3.9118451204384E+01
(PID.TID 0000.0001) %MON land_Tgr1_min_T              =  -5.6136284100828E+00
(PID.TID 0000.0001) %MON land_Tgr1_min_N              =  -5.4871769058010E+01
(PID.TID 0000.0001) %MON land_Tgr1_max_S              =   2.3526614970371E+01
(PID.TID 0000.0001) %MON land_Tgr1_max_T              =   2.5163657893210E+01
(PID.TID 0000.0001) %MON land_Tgr1_max_N              =   1.1057055602233E+01
(PID.TID 0000.0001) %MON land_Tgr2_ave_G              =   4.2060861360002E+00
(PID.TID 0000.0001) %MON land_Tgr2_ave_S              =  -1.8729431485488E+01
(PID.TID 0000.0001) %MON land_Tgr2_ave_T              =   2.2011897382020E+01
(PID.TID 0000.0001) %MON land_Tgr2_ave_N              =  -2.4396878604228E-01
(PID.TID 0000.0001) %MON land_Tgr2_min_S              =  -6.4757527539659E+01
(PID.TID 0000.0001) %MON land_Tgr2_min_T              =  -9.7046806419804E+00
(PID.TID 0000.0001) %MON land_Tgr2_min_N              =  -4.0196261172666E+01
(PID.TID 0000.0001) %MON land_Tgr2_max_S              =   2.3360637283415E+01
(PID.TID 0000.0001) %MON land_Tgr2_max_T              =   3.1357463812039E+01
(PID.TID 0000.0001) %MON land_Tgr2_max_N              =   2.9828480850186E+01
(PID.TID 0000.0001) %MON land_grdW_ave_G              =   4.8688607372520E-01
(PID.TID 0000.0001) %MON land_grdW_ave_S              =   3.0864422722425E-01
(PID.TID 0000.0001) %MON land_grdW_ave_T              =   5.6449961940743E-01
(PID.TID 0000.0001) %MON land_grdW_ave_N              =   4.9287859945416E-01
(PID.TID 0000.0001) %MON land_grdW_min_S              =   2.6357780567507E-02
(PID.TID 0000.0001) %MON land_grdW_min_T              =   0.0000000000000E+00
(PID.TID 0000.0001) %MON land_grdW_min_N              =   0.0000000000000E+00
(PID.TID 0000.0001) // =======================================================
(PID.TID 0000.0001) // End MONITOR Land statistics
(PID.TID 0000.0001) // =======================================================
(PID.TID 0000.0001) // =======================================================
(PID.TID 0000.0001) // Begin MONITOR Therm.SeaIce statistics
(PID.TID 0000.0001) // =======================================================
(PID.TID 0000.0001) %MON thSI_time_sec                =   4.9500000000000E+03
(PID.TID 0000.0001) %MON thSI_Ice_Area_G              =   1.2494705358665E+11
(PID.TID 0000.0001) %MON thSI_Ice_Area_S              =   0.0000000000000E+00
(PID.TID 0000.0001) %MON thSI_Ice_Area_N              =   1.2494705358665E+11
(PID.TID 0000.0001) %MON thSI_IceH_ave_G              =   1.2394922251400E-01
(PID.TID 0000.0001) %MON thSI_IceH_ave_S              =   0.0000000000000E+00
(PID.TID 0000.0001) %MON thSI_IceH_ave_N              =   1.2394922251400E-01
(PID.TID 0000.0001) %MON thSI_IceH_max_S              =   0.0000000000000E+00
(PID.TID 0000.0001) %MON thSI_IceH_max_N              =   1.3016304145304E-01
(PID.TID 0000.0001) %MON thSI_SnwH_ave_G              =   0.0000000000000E+00
(PID.TID 0000.0001) %MON thSI_SnwH_ave_S              =   0.0000000000000E+00
(PID.TID 0000.0001) %MON thSI_SnwH_ave_N              =   0.0000000000000E+00
(PID.TID 0000.0001) %MON thSI_SnwH_max_S              =   0.0000000000000E+00
(PID.TID 0000.0001) %MON thSI_SnwH_max_N              =   0.0000000000000E+00
(PID.TID 0000.0001) %MON thSI_TotEnerg_G              =  -4.7296643366406E+18
(PID.TID 0000.0001) %MON thSI_Tsrf_ave_G              =  -6.9971837612666E+00
(PID.TID 0000.0001) %MON thSI_Tsrf_ave_S              =   0.0000000000000E+00
(PID.TID 0000.0001) %MON thSI_Tsrf_ave_N              =  -6.9971837612666E+00
(PID.TID 0000.0001) %MON thSI_Tsrf_min_S              =   0.0000000000000E+00
(PID.TID 0000.0001) %MON thSI_Tsrf_min_N              =  -7.0818467440765E+00
(PID.TID 0000.0001) %MON thSI_Tsrf_max_S              =   0.0000000000000E+00
(PID.TID 0000.0001) %MON thSI_Tsrf_max_N              =  -6.8541437419118E+00
(PID.TID 0000.0001) %MON thSI_Tic1_ave_G              =  -4.5528286383238E+00
(PID.TID 0000.0001) %MON thSI_Tic1_ave_S              =   0.0000000000000E+00
(PID.TID 0000.0001) %MON thSI_Tic1_ave_N              =  -4.5528286383238E+00
(PID.TID 0000.0001) %MON thSI_Tic1_min_S              =   0.0000000000000E+00
(PID.TID 0000.0001) %MON thSI_Tic1_min_N              =  -4.6275513912144E+00
(PID.TID 0000.0001) %MON thSI_Tic1_max_S              =   0.0000000000000E+00
(PID.TID 0000.0001) %MON thSI_Tic1_max_N              =  -4.4729566960168E+00
(PID.TID 0000.0001) %MON thSI_Tic2_ave_G              =  -2.3730007397227E+00
(PID.TID 0000.0001) %MON thSI_Tic2_ave_S              =   0.0000000000000E+00
(PID.TID 0000.0001) %MON thSI_Tic2_ave_N              =  -2.3730007397227E+00
(PID.TID 0000.0001) %MON thSI_Tic2_min_S              =   0.0000000000000E+00
(PID.TID 0000.0001) %MON thSI_Tic2_min_N              =  -2.4472208504176E+00
(PID.TID 0000.0001) %MON thSI_Tic2_max_S              =   0.0000000000000E+00
(PID.TID 0000.0001) %MON thSI_Tic2_max_N              =  -2.3074944324058E+00
(PID.TID 0000.0001) // =======================================================
(PID.TID 0000.0001) // End MONITOR Therm.SeaIce statistics
(PID.TID 0000.0001) // =======================================================
 cg2d: Sum(rhs),rhsMax =   2.00088834390044E-11  2.18522530407545E+04
(PID.TID 0000.0001)                    cg2d_init_res =    1.68507736679572E+04
(PID.TID 0000.0001)                       cg2d_iters =    16
(PID.TID 0000.0001)                         cg2d_res =    9.07267460449036E-11
(PID.TID 0000.0001) // =======================================================
(PID.TID 0000.0001) // Begin MONITOR dynamic field statistics
(PID.TID 0000.0001) // =======================================================
(PID.TID 0000.0001) %MON time_tsnumber                =                    12
(PID.TID 0000.0001) %MON time_secondsf                =   5.4000000000000E+03
(PID.TID 0000.0001) %MON dynstat_eta_max              =   4.1647229886353E+03
(PID.TID 0000.0001) %MON dynstat_eta_min              =  -1.8286364139239E+03
(PID.TID 0000.0001) %MON dynstat_eta_mean             =  -2.0082197226269E-16
(PID.TID 0000.0001) %MON dynstat_eta_sd               =   5.0090720805123E+02
(PID.TID 0000.0001) %MON dynstat_eta_del2             =   3.7768547644950E+01
(PID.TID 0000.0001) %MON dynstat_uvel_max             =   6.4442291917487E+00
(PID.TID 0000.0001) %MON dynstat_uvel_min             =  -6.1519390183285E+00
(PID.TID 0000.0001) %MON dynstat_uvel_mean            =  -8.5992193582392E-03
(PID.TID 0000.0001) %MON dynstat_uvel_sd              =   7.8605694265669E-01
(PID.TID 0000.0001) %MON dynstat_uvel_del2            =   1.9859038489838E-02
(PID.TID 0000.0001) %MON dynstat_vvel_max             =   8.1703533086663E+00
(PID.TID 0000.0001) %MON dynstat_vvel_min             =  -8.0054765213791E+00
(PID.TID 0000.0001) %MON dynstat_vvel_mean            =   1.7109327894951E-02
(PID.TID 0000.0001) %MON dynstat_vvel_sd              =   8.5402463449881E-01
(PID.TID 0000.0001) %MON dynstat_vvel_del2            =   2.0373716435861E-02
(PID.TID 0000.0001) %MON dynstat_wvel_max             =   1.6314671669048E-01
(PID.TID 0000.0001) %MON dynstat_wvel_min             =  -3.0027117821515E-01
(PID.TID 0000.0001) %MON dynstat_wvel_mean            =  -1.3024659804999E-03
(PID.TID 0000.0001) %MON dynstat_wvel_sd              =   1.1676565110890E-02
(PID.TID 0000.0001) %MON dynstat_wvel_del2            =   1.3170694898420E-03
(PID.TID 0000.0001) %MON dynstat_theta_max            =   4.3770053084722E+02
(PID.TID 0000.0001) %MON dynstat_theta_min            =   2.8665293397343E+02
(PID.TID 0000.0001) %MON dynstat_theta_mean           =   3.3170845792957E+02
(PID.TID 0000.0001) %MON dynstat_theta_sd             =   4.7427986127475E+01
(PID.TID 0000.0001) %MON dynstat_theta_del2           =   1.4077072830997E-02
(PID.TID 0000.0001) %MON dynstat_salt_max             =   3.3549972811268E+00
(PID.TID 0000.0001) %MON dynstat_salt_min             =  -1.9522609123062E-03
(PID.TID 0000.0001) %MON dynstat_salt_mean            =   4.5400312159767E-02
(PID.TID 0000.0001) %MON dynstat_salt_sd              =   1.9077928683066E-01
(PID.TID 0000.0001) %MON dynstat_salt_del2            =   6.4770660056681E-03
(PID.TID 0000.0001) %MON advcfl_uvel_max              =   9.0447277241253E-03
(PID.TID 0000.0001) %MON advcfl_vvel_max              =   1.1487556042144E-02
(PID.TID 0000.0001) %MON advcfl_wvel_max              =   4.9135283707934E-03
(PID.TID 0000.0001) %MON advcfl_W_hf_max              =   1.4771434486196E-02
(PID.TID 0000.0001) %MON pe_b_mean                    =  -1.0772246405659E+00
(PID.TID 0000.0001) %MON ke_max                       =   3.6757173396282E+01
(PID.TID 0000.0001) %MON ke_mean                      =   6.6983729098418E-01
(PID.TID 0000.0001) %MON ke_vol                       =   4.9523908919847E+19
(PID.TID 0000.0001) %MON vort_r_min                   =  -3.1890127429189E-05
(PID.TID 0000.0001) %MON vort_r_max                   =   1.8925942590410E-05
(PID.TID 0000.0001) %MON vort_a_mean                  =   6.7059142261979E-08
(PID.TID 0000.0001) %MON vort_a_sd                    =   8.3727821633489E-05
(PID.TID 0000.0001) %MON vort_p_mean                  =   6.8751145452623E-08
(PID.TID 0000.0001) %MON vort_p_sd                    =   9.1626516047948E-05
(PID.TID 0000.0001) %MON surfExpan_theta_mean         =   1.2577173558748E-01
(PID.TID 0000.0001) %MON surfExpan_salt_mean          =  -1.5662925567162E-04
(PID.TID 0000.0001) %MON surfExpan_Heat_mean          =  -1.0668167286735E+01
(PID.TID 0000.0001) %MON En_Budget_T2PE_mean          =   1.9905261498204E+01
(PID.TID 0000.0001) // =======================================================
(PID.TID 0000.0001) // End MONITOR dynamic field statistics
(PID.TID 0000.0001) // =======================================================
(PID.TID 0000.0001) // =======================================================
(PID.TID 0000.0001) // Begin MONITOR Land statistics
(PID.TID 0000.0001) // =======================================================
(PID.TID 0000.0001) %MON land_time_sec                =   5.4000000000000E+03
(PID.TID 0000.0001) %MON land_SnwH_ave_G              =   1.5323630243540E-01
(PID.TID 0000.0001) %MON land_SnwH_ave_S              =   5.5905266158433E-01
(PID.TID 0000.0001) %MON land_SnwH_ave_T              =   0.0000000000000E+00
(PID.TID 0000.0001) %MON land_SnwH_ave_N              =   1.2391864436934E-01
(PID.TID 0000.0001) %MON land_SnwH_max_S              =   9.9999369371384E-01
(PID.TID 0000.0001) %MON land_SnwH_max_T              =   0.0000000000000E+00
(PID.TID 0000.0001) %MON land_SnwH_max_N              =   9.9999916831622E-01
(PID.TID 0000.0001) %MON land_TotEnerg_G              =  -6.3213081175895E+21
(PID.TID 0000.0001) %MON land_TotEnerg_S              =  -4.9998010582170E+21
(PID.TID 0000.0001) %MON land_TotEnerg_T              =   7.2964779522073E+21
(PID.TID 0000.0001) %MON land_TotEnerg_N              =  -8.6179850115798E+21
(PID.TID 0000.0001) %MON land_Tsrf_ave_G              =  -7.3804252409661E+00
(PID.TID 0000.0001) %MON land_Tsrf_ave_S              =  -6.6654104995071E+00
(PID.TID 0000.0001) %MON land_Tsrf_ave_T              =   1.2444899549792E+01
(PID.TID 0000.0001) %MON land_Tsrf_ave_N              =  -2.0851140508883E+01
(PID.TID 0000.0001) %MON land_Tsrf_min_S              =  -3.4010342853370E+01
(PID.TID 0000.0001) %MON land_Tsrf_min_T              =  -5.4369176246713E+00
(PID.TID 0000.0001) %MON land_Tsrf_min_N              =  -5.1948476801054E+01
(PID.TID 0000.0001) %MON land_Tsrf_max_S              =   2.3101645628547E+01
(PID.TID 0000.0001) %MON land_Tsrf_max_T              =   2.4584655197386E+01
(PID.TID 0000.0001) %MON land_Tsrf_max_N              =   1.0807273577188E+01
(PID.TID 0000.0001) %MON land_Tgr1_ave_G              =  -6.0959598583551E+00
(PID.TID 0000.0001) %MON land_Tgr1_ave_S              =  -6.3793218792534E+00
(PID.TID 0000.0001) %MON land_Tgr1_ave_T              =   1.2444899549792E+01
(PID.TID 0000.0001) %MON land_Tgr1_ave_N              =  -1.8385079580742E+01
(PID.TID 0000.0001) %MON land_Tgr1_min_S              =  -3.9129675253755E+01
(PID.TID 0000.0001) %MON land_Tgr1_min_T              =  -5.4369176246713E+00
(PID.TID 0000.0001) %MON land_Tgr1_min_N              =  -5.4858915577443E+01
(PID.TID 0000.0001) %MON land_Tgr1_max_S              =   2.3101645628547E+01
(PID.TID 0000.0001) %MON land_Tgr1_max_T              =   2.4584655197386E+01
(PID.TID 0000.0001) %MON land_Tgr1_max_N              =   1.0807273577188E+01
(PID.TID 0000.0001) %MON land_Tgr2_ave_G              =   4.2059285150819E+00
(PID.TID 0000.0001) %MON land_Tgr2_ave_S              =  -1.8729225216223E+01
(PID.TID 0000.0001) %MON land_Tgr2_ave_T              =   2.2011740585097E+01
(PID.TID 0000.0001) %MON land_Tgr2_ave_N              =  -2.4424500095878E-01
(PID.TID 0000.0001) %MON land_Tgr2_min_S              =  -6.4757095326326E+01
(PID.TID 0000.0001) %MON land_Tgr2_min_T              =  -9.7046267167749E+00
(PID.TID 0000.0001) %MON land_Tgr2_min_N              =  -4.0196499812301E+01
(PID.TID 0000.0001) %MON land_Tgr2_max_S              =   2.3360624235368E+01
(PID.TID 0000.0001) %MON land_Tgr2_max_T              =   3.1357089311980E+01
(PID.TID 0000.0001) %MON land_Tgr2_max_N              =   2.9828036777208E+01
(PID.TID 0000.0001) %MON land_grdW_ave_G              =   4.8687490715215E-01
(PID.TID 0000.0001) %MON land_grdW_ave_S              =   3.0863460653813E-01
(PID.TID 0000.0001) %MON land_grdW_ave_T              =   5.6447149050764E-01
(PID.TID 0000.0001) %MON land_grdW_ave_N              =   4.9287825834775E-01
(PID.TID 0000.0001) %MON land_grdW_min_S              =   2.6429350516204E-02
(PID.TID 0000.0001) %MON land_grdW_min_T              =   0.0000000000000E+00
(PID.TID 0000.0001) %MON land_grdW_min_N              =   0.0000000000000E+00
(PID.TID 0000.0001) // =======================================================
(PID.TID 0000.0001) // End MONITOR Land statistics
(PID.TID 0000.0001) // =======================================================
(PID.TID 0000.0001) // =======================================================
(PID.TID 0000.0001) // Begin MONITOR Therm.SeaIce statistics
(PID.TID 0000.0001) // =======================================================
(PID.TID 0000.0001) %MON thSI_time_sec                =   5.4000000000000E+03
(PID.TID 0000.0001) %MON thSI_Ice_Area_G              =   1.3364649046884E+11
(PID.TID 0000.0001) %MON thSI_Ice_Area_S              =   0.0000000000000E+00
(PID.TID 0000.0001) %MON thSI_Ice_Area_N              =   1.3364649046884E+11
(PID.TID 0000.0001) %MON thSI_IceH_ave_G              =   1.2636108214211E-01
(PID.TID 0000.0001) %MON thSI_IceH_ave_S              =   0.0000000000000E+00
(PID.TID 0000.0001) %MON thSI_IceH_ave_N              =   1.2636108214211E-01
(PID.TID 0000.0001) %MON thSI_IceH_max_S              =   0.0000000000000E+00
(PID.TID 0000.0001) %MON thSI_IceH_max_N              =   1.3321029673592E-01
(PID.TID 0000.0001) %MON thSI_SnwH_ave_G              =   0.0000000000000E+00
(PID.TID 0000.0001) %MON thSI_SnwH_ave_S              =   0.0000000000000E+00
(PID.TID 0000.0001) %MON thSI_SnwH_ave_N              =   0.0000000000000E+00
(PID.TID 0000.0001) %MON thSI_SnwH_max_S              =   0.0000000000000E+00
(PID.TID 0000.0001) %MON thSI_SnwH_max_N              =   0.0000000000000E+00
(PID.TID 0000.0001) %MON thSI_TotEnerg_G              =  -5.1634578749883E+18
(PID.TID 0000.0001) %MON thSI_Tsrf_ave_G              =  -7.2315181033903E+00
(PID.TID 0000.0001) %MON thSI_Tsrf_ave_S              =   0.0000000000000E+00
(PID.TID 0000.0001) %MON thSI_Tsrf_ave_N              =  -7.2315181033903E+00
(PID.TID 0000.0001) %MON thSI_Tsrf_min_S              =   0.0000000000000E+00
(PID.TID 0000.0001) %MON thSI_Tsrf_min_N              =  -7.3179122751136E+00
(PID.TID 0000.0001) %MON thSI_Tsrf_max_S              =   0.0000000000000E+00
(PID.TID 0000.0001) %MON thSI_Tsrf_max_N              =  -7.0816748873456E+00
(PID.TID 0000.0001) %MON thSI_Tic1_ave_G              =  -4.7786010460058E+00
(PID.TID 0000.0001) %MON thSI_Tic1_ave_S              =   0.0000000000000E+00
(PID.TID 0000.0001) %MON thSI_Tic1_ave_N              =  -4.7786010460058E+00
(PID.TID 0000.0001) %MON thSI_Tic1_min_S              =   0.0000000000000E+00
(PID.TID 0000.0001) %MON thSI_Tic1_min_N              =  -4.8575592377281E+00
(PID.TID 0000.0001) %MON thSI_Tic1_max_S              =   0.0000000000000E+00
(PID.TID 0000.0001) %MON thSI_Tic1_max_N              =  -4.7029431170752E+00
(PID.TID 0000.0001) %MON thSI_Tic2_ave_G              =  -2.4431718063213E+00
(PID.TID 0000.0001) %MON thSI_Tic2_ave_S              =   0.0000000000000E+00
(PID.TID 0000.0001) %MON thSI_Tic2_ave_N              =  -2.4431718063213E+00
(PID.TID 0000.0001) %MON thSI_Tic2_min_S              =   0.0000000000000E+00
(PID.TID 0000.0001) %MON thSI_Tic2_min_N              =  -2.5226907917601E+00
(PID.TID 0000.0001) %MON thSI_Tic2_max_S              =   0.0000000000000E+00
(PID.TID 0000.0001) %MON thSI_Tic2_max_N              =  -2.3732153694426E+00
(PID.TID 0000.0001) // =======================================================
(PID.TID 0000.0001) // End MONITOR Therm.SeaIce statistics
(PID.TID 0000.0001) // =======================================================
 cg2d: Sum(rhs),rhsMax =  -4.40195435658097E-10  2.37850844410585E+04
(PID.TID 0000.0001)                    cg2d_init_res =    1.57334599622713E+04
(PID.TID 0000.0001)                       cg2d_iters =    16
(PID.TID 0000.0001)                         cg2d_res =    9.41993392337267E-11
(PID.TID 0000.0001) // =======================================================
(PID.TID 0000.0001) // Begin MONITOR dynamic field statistics
(PID.TID 0000.0001) // =======================================================
(PID.TID 0000.0001) %MON time_tsnumber                =                    13
(PID.TID 0000.0001) %MON time_secondsf                =   5.8500000000000E+03
(PID.TID 0000.0001) %MON dynstat_eta_max              =   4.5158001967285E+03
(PID.TID 0000.0001) %MON dynstat_eta_min              =  -1.6396449054835E+03
(PID.TID 0000.0001) %MON dynstat_eta_mean             =   7.9324679043764E-15
(PID.TID 0000.0001) %MON dynstat_eta_sd               =   5.1820906869283E+02
(PID.TID 0000.0001) %MON dynstat_eta_del2             =   3.7773169702783E+01
(PID.TID 0000.0001) %MON dynstat_uvel_max             =   6.0851399995610E+00
(PID.TID 0000.0001) %MON dynstat_uvel_min             =  -5.6367502148214E+00
(PID.TID 0000.0001) %MON dynstat_uvel_mean            =  -9.0602837302903E-03
(PID.TID 0000.0001) %MON dynstat_uvel_sd              =   7.8429535542981E-01
(PID.TID 0000.0001) %MON dynstat_uvel_del2            =   1.9752957451912E-02
(PID.TID 0000.0001) %MON dynstat_vvel_max             =   7.6523449599940E+00
(PID.TID 0000.0001) %MON dynstat_vvel_min             =  -7.7748848425720E+00
(PID.TID 0000.0001) %MON dynstat_vvel_mean            =   1.8780714244266E-02
(PID.TID 0000.0001) %MON dynstat_vvel_sd              =   8.5039263569093E-01
(PID.TID 0000.0001) %MON dynstat_vvel_del2            =   2.0041485154000E-02
(PID.TID 0000.0001) %MON dynstat_wvel_max             =   1.6580820407727E-01
(PID.TID 0000.0001) %MON dynstat_wvel_min             =  -2.7318918135183E-01
(PID.TID 0000.0001) %MON dynstat_wvel_mean            =  -1.1430526878351E-03
(PID.TID 0000.0001) %MON dynstat_wvel_sd              =   1.0745856026076E-02
(PID.TID 0000.0001) %MON dynstat_wvel_del2            =   1.2968219876714E-03
(PID.TID 0000.0001) %MON dynstat_theta_max            =   4.3770993734865E+02
(PID.TID 0000.0001) %MON dynstat_theta_min            =   2.8641234135316E+02
(PID.TID 0000.0001) %MON dynstat_theta_mean           =   3.3170696973807E+02
(PID.TID 0000.0001) %MON dynstat_theta_sd             =   4.7429742872902E+01
(PID.TID 0000.0001) %MON dynstat_theta_del2           =   1.5124558314157E-02
(PID.TID 0000.0001) %MON dynstat_salt_max             =   3.4925794310680E+00
(PID.TID 0000.0001) %MON dynstat_salt_min             =  -2.2440184124041E-03
(PID.TID 0000.0001) %MON dynstat_salt_mean            =   4.8979215776036E-02
(PID.TID 0000.0001) %MON dynstat_salt_sd              =   2.0477819174887E-01
(PID.TID 0000.0001) %MON dynstat_salt_del2            =   6.8568964275441E-03
(PID.TID 0000.0001) %MON advcfl_uvel_max              =   8.5426900151989E-03
(PID.TID 0000.0001) %MON advcfl_vvel_max              =   1.1153095482476E-02
(PID.TID 0000.0001) %MON advcfl_wvel_max              =   4.4703684221209E-03
(PID.TID 0000.0001) %MON advcfl_W_hf_max              =   1.5147596422626E-02
(PID.TID 0000.0001) %MON pe_b_mean                    =  -1.0874972829241E+00
(PID.TID 0000.0001) %MON ke_max                       =   3.5350095765340E+01
(PID.TID 0000.0001) %MON ke_mean                      =   6.6541726039109E-01
(PID.TID 0000.0001) %MON ke_vol                       =   4.9523908919847E+19
(PID.TID 0000.0001) %MON vort_r_min                   =  -3.1232798369268E-05
(PID.TID 0000.0001) %MON vort_r_max                   =   1.7572981215814E-05
(PID.TID 0000.0001) %MON vort_a_mean                  =   6.7059142261986E-08
(PID.TID 0000.0001) %MON vort_a_sd                    =   8.3730365502989E-05
(PID.TID 0000.0001) %MON vort_p_mean                  =   6.8751146814717E-08
(PID.TID 0000.0001) %MON vort_p_sd                    =   9.1638131351890E-05
(PID.TID 0000.0001) %MON surfExpan_theta_mean         =   1.0973073393148E-01
(PID.TID 0000.0001) %MON surfExpan_salt_mean          =  -1.8774674653098E-04
(PID.TID 0000.0001) %MON surfExpan_Heat_mean          =  -9.3890804351369E+00
(PID.TID 0000.0001) %MON En_Budget_T2PE_mean          =   1.7449696337896E+01
(PID.TID 0000.0001) // =======================================================
(PID.TID 0000.0001) // End MONITOR dynamic field statistics
(PID.TID 0000.0001) // =======================================================
(PID.TID 0000.0001) // =======================================================
(PID.TID 0000.0001) // Begin MONITOR Land statistics
(PID.TID 0000.0001) // =======================================================
(PID.TID 0000.0001) %MON land_time_sec                =   5.8500000000000E+03
(PID.TID 0000.0001) %MON land_SnwH_ave_G              =   1.5323530492168E-01
(PID.TID 0000.0001) %MON land_SnwH_ave_S              =   5.5905173582339E-01
(PID.TID 0000.0001) %MON land_SnwH_ave_T              =   0.0000000000000E+00
(PID.TID 0000.0001) %MON land_SnwH_ave_N              =   1.2391695746912E-01
(PID.TID 0000.0001) %MON land_SnwH_max_S              =   9.9999313882867E-01
(PID.TID 0000.0001) %MON land_SnwH_max_T              =   0.0000000000000E+00
(PID.TID 0000.0001) %MON land_SnwH_max_N              =   9.9999910389012E-01
(PID.TID 0000.0001) %MON land_TotEnerg_G              =  -6.3249330787645E+21
(PID.TID 0000.0001) %MON land_TotEnerg_S              =  -5.0001618474104E+21
(PID.TID 0000.0001) %MON land_TotEnerg_T              =   7.2940042361708E+21
(PID.TID 0000.0001) %MON land_TotEnerg_N              =  -8.6187754675249E+21
(PID.TID 0000.0001) %MON land_Tsrf_ave_G              =  -7.5178775491736E+00
(PID.TID 0000.0001) %MON land_Tsrf_ave_S              =  -6.7945887832494E+00
(PID.TID 0000.0001) %MON land_Tsrf_ave_T              =   1.2160052946171E+01
(PID.TID 0000.0001) %MON land_Tsrf_ave_N              =  -2.0892851284528E+01
(PID.TID 0000.0001) %MON land_Tsrf_min_S              =  -3.3997104611598E+01
(PID.TID 0000.0001) %MON land_Tsrf_min_T              =  -5.2660379408588E+00
(PID.TID 0000.0001) %MON land_Tsrf_min_N              =  -5.1963743560811E+01
(PID.TID 0000.0001) %MON land_Tsrf_max_S              =   2.2721624687130E+01
(PID.TID 0000.0001) %MON land_Tsrf_max_T              =   2.4060676936593E+01
(PID.TID 0000.0001) %MON land_Tsrf_max_N              =   1.0568151449511E+01
(PID.TID 0000.0001) %MON land_Tgr1_ave_G              =  -6.2339642886336E+00
(PID.TID 0000.0001) %MON land_Tgr1_ave_S              =  -6.4901453791761E+00
(PID.TID 0000.0001) %MON land_Tgr1_ave_T              =   1.2160052946171E+01
(PID.TID 0000.0001) %MON land_Tgr1_ave_N              =  -1.8433844454409E+01
(PID.TID 0000.0001) %MON land_Tgr1_min_S              =  -3.9140823140849E+01
(PID.TID 0000.0001) %MON land_Tgr1_min_T              =  -5.2660379408588E+00
(PID.TID 0000.0001) %MON land_Tgr1_min_N              =  -5.4846098190526E+01
(PID.TID 0000.0001) %MON land_Tgr1_max_S              =   2.2721624687130E+01
(PID.TID 0000.0001) %MON land_Tgr1_max_T              =   2.4060676936593E+01
(PID.TID 0000.0001) %MON land_Tgr1_max_N              =   1.0568151449511E+01
(PID.TID 0000.0001) %MON land_Tgr2_ave_G              =   4.2057686902762E+00
(PID.TID 0000.0001) %MON land_Tgr2_ave_S              =  -1.8729020706320E+01
(PID.TID 0000.0001) %MON land_Tgr2_ave_T              =   2.2011579366499E+01
(PID.TID 0000.0001) %MON land_Tgr2_ave_N              =  -2.4452208299075E-01
(PID.TID 0000.0001) %MON land_Tgr2_min_S              =  -6.4756663329654E+01
(PID.TID 0000.0001) %MON land_Tgr2_min_T              =  -9.7045706332112E+00
(PID.TID 0000.0001) %MON land_Tgr2_min_N              =  -4.0196738207068E+01
(PID.TID 0000.0001) %MON land_Tgr2_max_S              =   2.3360604331064E+01
(PID.TID 0000.0001) %MON land_Tgr2_max_T              =   3.1356708421641E+01
(PID.TID 0000.0001) %MON land_Tgr2_max_N              =   2.9827584842362E+01
(PID.TID 0000.0001) %MON land_grdW_ave_G              =   4.8686419968542E-01
(PID.TID 0000.0001) %MON land_grdW_ave_S              =   3.0862521201212E-01
(PID.TID 0000.0001) %MON land_grdW_ave_T              =   5.6444461594230E-01
(PID.TID 0000.0001) %MON land_grdW_ave_N              =   4.9287792088403E-01
(PID.TID 0000.0001) %MON land_grdW_min_S              =   2.6503731344189E-02
(PID.TID 0000.0001) %MON land_grdW_min_T              =   0.0000000000000E+00
(PID.TID 0000.0001) %MON land_grdW_min_N              =   0.0000000000000E+00
(PID.TID 0000.0001) // =======================================================
(PID.TID 0000.0001) // End MONITOR Land statistics
(PID.TID 0000.0001) // =======================================================
(PID.TID 0000.0001) // =======================================================
(PID.TID 0000.0001) // Begin MONITOR Therm.SeaIce statistics
(PID.TID 0000.0001) // =======================================================
(PID.TID 0000.0001) %MON thSI_time_sec                =   5.8500000000000E+03
(PID.TID 0000.0001) %MON thSI_Ice_Area_G              =   1.4202005449460E+11
(PID.TID 0000.0001) %MON thSI_Ice_Area_S              =   0.0000000000000E+00
(PID.TID 0000.0001) %MON thSI_Ice_Area_N              =   1.4202005449460E+11
(PID.TID 0000.0001) %MON thSI_IceH_ave_G              =   1.2877499911882E-01
(PID.TID 0000.0001) %MON thSI_IceH_ave_S              =   0.0000000000000E+00
(PID.TID 0000.0001) %MON thSI_IceH_ave_N              =   1.2877499911882E-01
(PID.TID 0000.0001) %MON thSI_IceH_max_S              =   0.0000000000000E+00
(PID.TID 0000.0001) %MON thSI_IceH_max_N              =   1.3626155433729E-01
(PID.TID 0000.0001) %MON thSI_SnwH_ave_G              =   0.0000000000000E+00
(PID.TID 0000.0001) %MON thSI_SnwH_ave_S              =   0.0000000000000E+00
(PID.TID 0000.0001) %MON thSI_SnwH_ave_N              =   0.0000000000000E+00
(PID.TID 0000.0001) %MON thSI_SnwH_max_S              =   0.0000000000000E+00
(PID.TID 0000.0001) %MON thSI_SnwH_max_N              =   0.0000000000000E+00
(PID.TID 0000.0001) %MON thSI_TotEnerg_G              =  -5.5977277378286E+18
(PID.TID 0000.0001) %MON thSI_Tsrf_ave_G              =  -7.4486879017020E+00
(PID.TID 0000.0001) %MON thSI_Tsrf_ave_S              =   0.0000000000000E+00
(PID.TID 0000.0001) %MON thSI_Tsrf_ave_N              =  -7.4486879017020E+00
(PID.TID 0000.0001) %MON thSI_Tsrf_min_S              =   0.0000000000000E+00
(PID.TID 0000.0001) %MON thSI_Tsrf_min_N              =  -7.5371239418831E+00
(PID.TID 0000.0001) %MON thSI_Tsrf_max_S              =   0.0000000000000E+00
(PID.TID 0000.0001) %MON thSI_Tsrf_max_N              =  -7.2916739513277E+00
(PID.TID 0000.0001) %MON thSI_Tic1_ave_G              =  -4.9865808729612E+00
(PID.TID 0000.0001) %MON thSI_Tic1_ave_S              =   0.0000000000000E+00
(PID.TID 0000.0001) %MON thSI_Tic1_ave_N              =  -4.9865808729612E+00
(PID.TID 0000.0001) %MON thSI_Tic1_min_S              =   0.0000000000000E+00
(PID.TID 0000.0001) %MON thSI_Tic1_min_N              =  -5.0690008509302E+00
(PID.TID 0000.0001) %MON thSI_Tic1_max_S              =   0.0000000000000E+00
(PID.TID 0000.0001) %MON thSI_Tic1_max_N              =  -4.9130007264447E+00
(PID.TID 0000.0001) %MON thSI_Tic2_ave_G              =  -2.5087512338910E+00
(PID.TID 0000.0001) %MON thSI_Tic2_ave_S              =   0.0000000000000E+00
(PID.TID 0000.0001) %MON thSI_Tic2_ave_N              =  -2.5087512338910E+00
(PID.TID 0000.0001) %MON thSI_Tic2_min_S              =   0.0000000000000E+00
(PID.TID 0000.0001) %MON thSI_Tic2_min_N              =  -2.5932920255646E+00
(PID.TID 0000.0001) %MON thSI_Tic2_max_S              =   0.0000000000000E+00
(PID.TID 0000.0001) %MON thSI_Tic2_max_N              =  -2.4345424716750E+00
(PID.TID 0000.0001) // =======================================================
(PID.TID 0000.0001) // End MONITOR Therm.SeaIce statistics
(PID.TID 0000.0001) // =======================================================
 cg2d: Sum(rhs),rhsMax =   4.29281499236822E-10  2.50481920718908E+04
(PID.TID 0000.0001)                    cg2d_init_res =    1.46784675915898E+04
(PID.TID 0000.0001)                       cg2d_iters =    16
(PID.TID 0000.0001)                         cg2d_res =    9.10493576193992E-11
(PID.TID 0000.0001) // =======================================================
(PID.TID 0000.0001) // Begin MONITOR dynamic field statistics
(PID.TID 0000.0001) // =======================================================
(PID.TID 0000.0001) %MON time_tsnumber                =                    14
(PID.TID 0000.0001) %MON time_secondsf                =   6.3000000000000E+03
(PID.TID 0000.0001) %MON dynstat_eta_max              =   4.7491681616951E+03
(PID.TID 0000.0001) %MON dynstat_eta_min              =  -1.5202024735122E+03
(PID.TID 0000.0001) %MON dynstat_eta_mean             =  -1.3856716086126E-14
(PID.TID 0000.0001) %MON dynstat_eta_sd               =   5.3283840661977E+02
(PID.TID 0000.0001) %MON dynstat_eta_del2             =   3.7766928008826E+01
(PID.TID 0000.0001) %MON dynstat_uvel_max             =   5.7287677535336E+00
(PID.TID 0000.0001) %MON dynstat_uvel_min             =  -5.9925835213005E+00
(PID.TID 0000.0001) %MON dynstat_uvel_mean            =  -9.4156664733849E-03
(PID.TID 0000.0001) %MON dynstat_uvel_sd              =   7.8431249871689E-01
(PID.TID 0000.0001) %MON dynstat_uvel_del2            =   1.9699360653989E-02
(PID.TID 0000.0001) %MON dynstat_vvel_max             =   7.1735756910372E+00
(PID.TID 0000.0001) %MON dynstat_vvel_min             =  -7.3770327602674E+00
(PID.TID 0000.0001) %MON dynstat_vvel_mean            =   2.0416562621420E-02
(PID.TID 0000.0001) %MON dynstat_vvel_sd              =   8.4266272780031E-01
(PID.TID 0000.0001) %MON dynstat_vvel_del2            =   1.9866147538042E-02
(PID.TID 0000.0001) %MON dynstat_wvel_max             =   1.6935627074462E-01
(PID.TID 0000.0001) %MON dynstat_wvel_min             =  -2.4039884203948E-01
(PID.TID 0000.0001) %MON dynstat_wvel_mean            =  -9.8223310485578E-04
(PID.TID 0000.0001) %MON dynstat_wvel_sd              =   9.8539989559003E-03
(PID.TID 0000.0001) %MON dynstat_wvel_del2            =   1.2820317500477E-03
(PID.TID 0000.0001) %MON dynstat_theta_max            =   4.3779892067638E+02
(PID.TID 0000.0001) %MON dynstat_theta_min            =   2.8617346000846E+02
(PID.TID 0000.0001) %MON dynstat_theta_mean           =   3.3170542287830E+02
(PID.TID 0000.0001) %MON dynstat_theta_sd             =   4.7431545908631E+01
(PID.TID 0000.0001) %MON dynstat_theta_del2           =   1.6106389103726E-02
(PID.TID 0000.0001) %MON dynstat_salt_max             =   3.6186631424002E+00
(PID.TID 0000.0001) %MON dynstat_salt_min             =  -2.5530699217161E-03
(PID.TID 0000.0001) %MON dynstat_salt_mean            =   5.2536500272847E-02
(PID.TID 0000.0001) %MON dynstat_salt_sd              =   2.1852572957914E-01
(PID.TID 0000.0001) %MON dynstat_salt_del2            =   7.2286016371008E-03
(PID.TID 0000.0001) %MON advcfl_uvel_max              =   8.4127535958668E-03
(PID.TID 0000.0001) %MON advcfl_vvel_max              =   1.0582375484471E-02
(PID.TID 0000.0001) %MON advcfl_wvel_max              =   4.3548755334331E-03
(PID.TID 0000.0001) %MON advcfl_W_hf_max              =   1.5456306828750E-02
(PID.TID 0000.0001) %MON pe_b_mean                    =  -1.0944212180606E+00
(PID.TID 0000.0001) %MON ke_max                       =   3.2989472448204E+01
(PID.TID 0000.0001) %MON ke_mean                      =   6.5895831934533E-01
(PID.TID 0000.0001) %MON ke_vol                       =   4.9523908919847E+19
(PID.TID 0000.0001) %MON vort_r_min                   =  -2.9430026236945E-05
(PID.TID 0000.0001) %MON vort_r_max                   =   1.6355393989110E-05
(PID.TID 0000.0001) %MON vort_a_mean                  =   6.7059142262016E-08
(PID.TID 0000.0001) %MON vort_a_sd                    =   8.3732944065655E-05
(PID.TID 0000.0001) %MON vort_p_mean                  =   6.8751148323082E-08
(PID.TID 0000.0001) %MON vort_p_sd                    =   9.1646975761371E-05
(PID.TID 0000.0001) %MON surfExpan_theta_mean         =   9.3556476964694E-02
(PID.TID 0000.0001) %MON surfExpan_salt_mean          =  -2.2218911605312E-04
(PID.TID 0000.0001) %MON surfExpan_Heat_mean          =  -8.0902889949971E+00
(PID.TID 0000.0001) %MON En_Budget_T2PE_mean          =   1.4966084107976E+01
(PID.TID 0000.0001) // =======================================================
(PID.TID 0000.0001) // End MONITOR dynamic field statistics
(PID.TID 0000.0001) // =======================================================
(PID.TID 0000.0001) // =======================================================
(PID.TID 0000.0001) // Begin MONITOR Land statistics
(PID.TID 0000.0001) // =======================================================
(PID.TID 0000.0001) %MON land_time_sec                =   6.3000000000000E+03
(PID.TID 0000.0001) %MON land_SnwH_ave_G              =   1.5323431303435E-01
(PID.TID 0000.0001) %MON land_SnwH_ave_S              =   5.5905082400490E-01
(PID.TID 0000.0001) %MON land_SnwH_ave_T              =   0.0000000000000E+00
(PID.TID 0000.0001) %MON land_SnwH_ave_N              =   1.2391527725475E-01
(PID.TID 0000.0001) %MON land_SnwH_max_S              =   9.9999258496016E-01
(PID.TID 0000.0001) %MON land_SnwH_max_T              =   0.0000000000000E+00
(PID.TID 0000.0001) %MON land_SnwH_max_N              =   9.9999903966698E-01
(PID.TID 0000.0001) %MON land_TotEnerg_G              =  -6.3282521839410E+21
(PID.TID 0000.0001) %MON land_TotEnerg_S              =  -5.0004824835374E+21
(PID.TID 0000.0001) %MON land_TotEnerg_T              =   7.2917762530247E+21
(PID.TID 0000.0001) %MON land_TotEnerg_N              =  -8.6195459534283E+21
(PID.TID 0000.0001) %MON land_Tsrf_ave_G              =  -7.6438009097506E+00
(PID.TID 0000.0001) %MON land_Tsrf_ave_S              =  -6.9178544028451E+00
(PID.TID 0000.0001) %MON land_Tsrf_ave_T              =   1.1903542046140E+01
(PID.TID 0000.0001) %MON land_Tsrf_ave_N              =  -2.0932434281752E+01
(PID.TID 0000.0001) %MON land_Tsrf_min_S              =  -3.3973152846719E+01
(PID.TID 0000.0001) %MON land_Tsrf_min_T              =  -5.1007075035460E+00
(PID.TID 0000.0001) %MON land_Tsrf_min_N              =  -5.1983332768516E+01
(PID.TID 0000.0001) %MON land_Tsrf_max_S              =   2.2381943823203E+01
(PID.TID 0000.0001) %MON land_Tsrf_max_T              =   2.3586496308977E+01
(PID.TID 0000.0001) %MON land_Tsrf_max_N              =   1.0339623586964E+01
(PID.TID 0000.0001) %MON land_Tgr1_ave_G              =  -6.3594515475048E+00
(PID.TID 0000.0001) %MON land_Tgr1_ave_S              =  -6.5893196024999E+00
(PID.TID 0000.0001) %MON land_Tgr1_ave_T              =   1.1903542046140E+01
(PID.TID 0000.0001) %MON land_Tgr1_ave_N              =  -1.8480373767456E+01
(PID.TID 0000.0001) %MON land_Tgr1_min_S              =  -3.9151937806896E+01
(PID.TID 0000.0001) %MON land_Tgr1_min_T              =  -5.1007075035460E+00
(PID.TID 0000.0001) %MON land_Tgr1_min_N              =  -5.4833321046721E+01
(PID.TID 0000.0001) %MON land_Tgr1_max_S              =   2.2381943823203E+01
(PID.TID 0000.0001) %MON land_Tgr1_max_T              =   2.3586496308977E+01
(PID.TID 0000.0001) %MON land_Tgr1_max_N              =   1.0339623586964E+01
(PID.TID 0000.0001) %MON land_Tgr2_ave_G              =   4.2056068669457E+00
(PID.TID 0000.0001) %MON land_Tgr2_ave_S              =  -1.8728817770368E+01
(PID.TID 0000.0001) %MON land_Tgr2_ave_T              =   2.2011414181207E+01
(PID.TID 0000.0001) %MON land_Tgr2_ave_N              =  -2.4479998699066E-01
(PID.TID 0000.0001) %MON land_Tgr2_min_S              =  -6.4756231548904E+01
(PID.TID 0000.0001) %MON land_Tgr2_min_T              =  -9.7045124614553E+00
(PID.TID 0000.0001) %MON land_Tgr2_min_N              =  -4.0196976357711E+01
(PID.TID 0000.0001) %MON land_Tgr2_max_S              =   2.3360578273609E+01
(PID.TID 0000.0001) %MON land_Tgr2_max_T              =   3.1356321628672E+01
(PID.TID 0000.0001) %MON land_Tgr2_max_N              =   2.9827125332155E+01
(PID.TID 0000.0001) %MON land_grdW_ave_G              =   4.8685390024344E-01
(PID.TID 0000.0001) %MON land_grdW_ave_S              =   3.0861602254050E-01
(PID.TID 0000.0001) %MON land_grdW_ave_T              =   5.6441884865598E-01
(PID.TID 0000.0001) %MON land_grdW_ave_N              =   4.9287759034598E-01
(PID.TID 0000.0001) %MON land_grdW_min_S              =   2.6580535957893E-02
(PID.TID 0000.0001) %MON land_grdW_min_T              =   0.0000000000000E+00
(PID.TID 0000.0001) %MON land_grdW_min_N              =   0.0000000000000E+00
(PID.TID 0000.0001) // =======================================================
(PID.TID 0000.0001) // End MONITOR Land statistics
(PID.TID 0000.0001) // =======================================================
(PID.TID 0000.0001) // =======================================================
(PID.TID 0000.0001) // Begin MONITOR Therm.SeaIce statistics
(PID.TID 0000.0001) // =======================================================
(PID.TID 0000.0001) %MON thSI_time_sec                =   6.3000000000000E+03
(PID.TID 0000.0001) %MON thSI_Ice_Area_G              =   1.5008673761657E+11
(PID.TID 0000.0001) %MON thSI_Ice_Area_S              =   0.0000000000000E+00
(PID.TID 0000.0001) %MON thSI_Ice_Area_N              =   1.5008673761657E+11
(PID.TID 0000.0001) %MON thSI_IceH_ave_G              =   1.3119050740023E-01
(PID.TID 0000.0001) %MON thSI_IceH_ave_S              =   0.0000000000000E+00
(PID.TID 0000.0001) %MON thSI_IceH_ave_N              =   1.3119050740023E-01
(PID.TID 0000.0001) %MON thSI_IceH_max_S              =   0.0000000000000E+00
(PID.TID 0000.0001) %MON thSI_IceH_max_N              =   1.3931624963360E-01
(PID.TID 0000.0001) %MON thSI_SnwH_ave_G              =   0.0000000000000E+00
(PID.TID 0000.0001) %MON thSI_SnwH_ave_S              =   0.0000000000000E+00
(PID.TID 0000.0001) %MON thSI_SnwH_ave_N              =   0.0000000000000E+00
(PID.TID 0000.0001) %MON thSI_SnwH_max_S              =   0.0000000000000E+00
(PID.TID 0000.0001) %MON thSI_SnwH_max_N              =   0.0000000000000E+00
(PID.TID 0000.0001) %MON thSI_TotEnerg_G              =  -6.0324395020811E+18
(PID.TID 0000.0001) %MON thSI_Tsrf_ave_G              =  -7.6496766728382E+00
(PID.TID 0000.0001) %MON thSI_Tsrf_ave_S              =   0.0000000000000E+00
(PID.TID 0000.0001) %MON thSI_Tsrf_ave_N              =  -7.6496766728382E+00
(PID.TID 0000.0001) %MON thSI_Tsrf_min_S              =   0.0000000000000E+00
(PID.TID 0000.0001) %MON thSI_Tsrf_min_N              =  -7.7403937872072E+00
(PID.TID 0000.0001) %MON thSI_Tsrf_max_S              =   0.0000000000000E+00
(PID.TID 0000.0001) %MON thSI_Tsrf_max_N              =  -7.4850022448814E+00
(PID.TID 0000.0001) %MON thSI_Tic1_ave_G              =  -5.1779099873738E+00
(PID.TID 0000.0001) %MON thSI_Tic1_ave_S              =   0.0000000000000E+00
(PID.TID 0000.0001) %MON thSI_Tic1_ave_N              =  -5.1779099873738E+00
(PID.TID 0000.0001) %MON thSI_Tic1_min_S              =   0.0000000000000E+00
(PID.TID 0000.0001) %MON thSI_Tic1_min_N              =  -5.2629424314906E+00
(PID.TID 0000.0001) %MON thSI_Tic1_max_S              =   0.0000000000000E+00
(PID.TID 0000.0001) %MON thSI_Tic1_max_N              =  -5.1018421707637E+00
(PID.TID 0000.0001) %MON thSI_Tic2_ave_G              =  -2.5697488045047E+00
(PID.TID 0000.0001) %MON thSI_Tic2_ave_S              =   0.0000000000000E+00
(PID.TID 0000.0001) %MON thSI_Tic2_ave_N              =  -2.5697488045047E+00
(PID.TID 0000.0001) %MON thSI_Tic2_min_S              =   0.0000000000000E+00
(PID.TID 0000.0001) %MON thSI_Tic2_min_N              =  -2.6589718973251E+00
(PID.TID 0000.0001) %MON thSI_Tic2_max_S              =   0.0000000000000E+00
(PID.TID 0000.0001) %MON thSI_Tic2_max_N              =  -2.4915354259504E+00
(PID.TID 0000.0001) // =======================================================
(PID.TID 0000.0001) // End MONITOR Therm.SeaIce statistics
(PID.TID 0000.0001) // =======================================================
 cg2d: Sum(rhs),rhsMax =   6.18456397205591E-10  2.56261221723354E+04
(PID.TID 0000.0001)                    cg2d_init_res =    1.37972864262866E+04
(PID.TID 0000.0001)                       cg2d_iters =    16
(PID.TID 0000.0001)                         cg2d_res =    8.96645483006697E-11
(PID.TID 0000.0001) // =======================================================
(PID.TID 0000.0001) // Begin MONITOR dynamic field statistics
(PID.TID 0000.0001) // =======================================================
(PID.TID 0000.0001) %MON time_tsnumber                =                    15
(PID.TID 0000.0001) %MON time_secondsf                =   6.7500000000000E+03
(PID.TID 0000.0001) %MON dynstat_eta_max              =   4.8635830178759E+03
(PID.TID 0000.0001) %MON dynstat_eta_min              =  -1.3921772391285E+03
(PID.TID 0000.0001) %MON dynstat_eta_mean             =  -9.6394546686094E-15
(PID.TID 0000.0001) %MON dynstat_eta_sd               =   5.4460476875280E+02
(PID.TID 0000.0001) %MON dynstat_eta_del2             =   3.7713896592436E+01
(PID.TID 0000.0001) %MON dynstat_uvel_max             =   5.7762832727537E+00
(PID.TID 0000.0001) %MON dynstat_uvel_min             =  -6.3463289581764E+00
(PID.TID 0000.0001) %MON dynstat_uvel_mean            =  -9.6165733691055E-03
(PID.TID 0000.0001) %MON dynstat_uvel_sd              =   7.8679439986051E-01
(PID.TID 0000.0001) %MON dynstat_uvel_del2            =   1.9770584686317E-02
(PID.TID 0000.0001) %MON dynstat_vvel_max             =   6.5908685406545E+00
(PID.TID 0000.0001) %MON dynstat_vvel_min             =  -6.8295624557687E+00
(PID.TID 0000.0001) %MON dynstat_vvel_mean            =   2.1991609508555E-02
(PID.TID 0000.0001) %MON dynstat_vvel_sd              =   8.3301326804647E-01
(PID.TID 0000.0001) %MON dynstat_vvel_del2            =   1.9828636902814E-02
(PID.TID 0000.0001) %MON dynstat_wvel_max             =   1.6645708061581E-01
(PID.TID 0000.0001) %MON dynstat_wvel_min             =  -2.0298196197163E-01
(PID.TID 0000.0001) %MON dynstat_wvel_mean            =  -8.1966627071746E-04
(PID.TID 0000.0001) %MON dynstat_wvel_sd              =   9.0978553650181E-03
(PID.TID 0000.0001) %MON dynstat_wvel_del2            =   1.2777991452754E-03
(PID.TID 0000.0001) %MON dynstat_theta_max            =   4.3793750287589E+02
(PID.TID 0000.0001) %MON dynstat_theta_min            =   2.8593650339249E+02
(PID.TID 0000.0001) %MON dynstat_theta_mean           =   3.3170382358038E+02
(PID.TID 0000.0001) %MON dynstat_theta_sd             =   4.7433388471869E+01
(PID.TID 0000.0001) %MON dynstat_theta_del2           =   1.7028072413256E-02
(PID.TID 0000.0001) %MON dynstat_salt_max             =   3.7344534788776E+00
(PID.TID 0000.0001) %MON dynstat_salt_min             =  -2.8797428949973E-03
(PID.TID 0000.0001) %MON dynstat_salt_mean            =   5.6073489807732E-02
(PID.TID 0000.0001) %MON dynstat_salt_sd              =   2.3205046577638E-01
(PID.TID 0000.0001) %MON dynstat_salt_del2            =   7.5955428049336E-03
(PID.TID 0000.0001) %MON advcfl_uvel_max              =   8.9463688521944E-03
(PID.TID 0000.0001) %MON advcfl_vvel_max              =   9.8519816560089E-03
(PID.TID 0000.0001) %MON advcfl_wvel_max              =   4.2803249301209E-03
(PID.TID 0000.0001) %MON advcfl_W_hf_max              =   1.5169865289896E-02
(PID.TID 0000.0001) %MON pe_b_mean                    =  -1.1006101719209E+00
(PID.TID 0000.0001) %MON ke_max                       =   3.0044057512315E+01
(PID.TID 0000.0001) %MON ke_mean                      =   6.5289181356830E-01
(PID.TID 0000.0001) %MON ke_vol                       =   4.9523908919847E+19
(PID.TID 0000.0001) %MON vort_r_min                   =  -2.7903925844400E-05
(PID.TID 0000.0001) %MON vort_r_max                   =   1.5929978071892E-05
(PID.TID 0000.0001) %MON vort_a_mean                  =   6.7059142261971E-08
(PID.TID 0000.0001) %MON vort_a_sd                    =   8.3735554229476E-05
(PID.TID 0000.0001) %MON vort_p_mean                  =   6.8751149899066E-08
(PID.TID 0000.0001) %MON vort_p_sd                    =   9.1652897068104E-05
(PID.TID 0000.0001) %MON surfExpan_theta_mean         =   7.7262382145016E-02
(PID.TID 0000.0001) %MON surfExpan_salt_mean          =  -2.6055478737382E-04
(PID.TID 0000.0001) %MON surfExpan_Heat_mean          =  -6.7707776525398E+00
(PID.TID 0000.0001) %MON En_Budget_T2PE_mean          =   1.2453435812024E+01
(PID.TID 0000.0001) // =======================================================
(PID.TID 0000.0001) // End MONITOR dynamic field statistics
(PID.TID 0000.0001) // =======================================================
(PID.TID 0000.0001) // =======================================================
(PID.TID 0000.0001) // Begin MONITOR Land statistics
(PID.TID 0000.0001) // =======================================================
(PID.TID 0000.0001) %MON land_time_sec                =   6.7500000000000E+03
(PID.TID 0000.0001) %MON land_SnwH_ave_G              =   1.5323332652259E-01
(PID.TID 0000.0001) %MON land_SnwH_ave_S              =   5.5904992616605E-01
(PID.TID 0000.0001) %MON land_SnwH_ave_T              =   0.0000000000000E+00
(PID.TID 0000.0001) %MON land_SnwH_ave_N              =   1.2391360321451E-01
(PID.TID 0000.0001) %MON land_SnwH_max_S              =   9.9999202932607E-01
(PID.TID 0000.0001) %MON land_SnwH_max_T              =   0.0000000000000E+00
(PID.TID 0000.0001) %MON land_SnwH_max_N              =   9.9999897565513E-01
(PID.TID 0000.0001) %MON land_TotEnerg_G              =  -6.3312972984738E+21
(PID.TID 0000.0001) %MON land_TotEnerg_S              =  -5.0007668422512E+21
(PID.TID 0000.0001) %MON land_TotEnerg_T              =   7.2897670382454E+21
(PID.TID 0000.0001) %MON land_TotEnerg_N              =  -8.6202974944680E+21
(PID.TID 0000.0001) %MON land_Tsrf_ave_G              =  -7.7578245107012E+00
(PID.TID 0000.0001) %MON land_Tsrf_ave_S              =  -7.0294874695995E+00
(PID.TID 0000.0001) %MON land_Tsrf_ave_T              =   1.1672369421082E+01
(PID.TID 0000.0001) %MON land_Tsrf_ave_N              =  -2.0969004684425E+01
(PID.TID 0000.0001) %MON land_Tsrf_min_S              =  -3.3930409747752E+01
(PID.TID 0000.0001) %MON land_Tsrf_min_T              =  -4.9406610545499E+00
(PID.TID 0000.0001) %MON land_Tsrf_min_N              =  -5.2003887536552E+01
(PID.TID 0000.0001) %MON land_Tsrf_max_S              =   2.2078502895690E+01
(PID.TID 0000.0001) %MON land_Tsrf_max_T              =   2.3157437531578E+01
(PID.TID 0000.0001) %MON land_Tsrf_max_N              =   1.0121943615143E+01
(PID.TID 0000.0001) %MON land_Tgr1_ave_G              =  -6.4733027080628E+00
(PID.TID 0000.0001) %MON land_Tgr1_ave_S              =  -6.6779796703499E+00
(PID.TID 0000.0001) %MON land_Tgr1_ave_T              =   1.1672369421082E+01
(PID.TID 0000.0001) %MON land_Tgr1_ave_N              =  -1.8524052941369E+01
(PID.TID 0000.0001) %MON land_Tgr1_min_S              =  -3.9163053300382E+01
(PID.TID 0000.0001) %MON land_Tgr1_min_T              =  -4.9406610545499E+00
(PID.TID 0000.0001) %MON land_Tgr1_min_N              =  -5.4820585020105E+01
(PID.TID 0000.0001) %MON land_Tgr1_max_S              =   2.2078502895690E+01
(PID.TID 0000.0001) %MON land_Tgr1_max_T              =   2.3157437531578E+01
(PID.TID 0000.0001) %MON land_Tgr1_max_N              =   1.0121943615143E+01
(PID.TID 0000.0001) %MON land_Tgr2_ave_G              =   4.2054432380366E+00
(PID.TID 0000.0001) %MON land_Tgr2_ave_S              =  -1.8728616241060E+01
(PID.TID 0000.0001) %MON land_Tgr2_ave_T              =   2.2011245435888E+01
(PID.TID 0000.0001) %MON land_Tgr2_ave_N              =  -2.4507865441256E-01
(PID.TID 0000.0001) %MON land_Tgr2_min_S              =  -6.4755799983032E+01
(PID.TID 0000.0001) %MON land_Tgr2_min_T              =  -9.7044522683196E+00
(PID.TID 0000.0001) %MON land_Tgr2_min_N              =  -4.0197214265231E+01
(PID.TID 0000.0001) %MON land_Tgr2_max_S              =   2.3360546691062E+01
(PID.TID 0000.0001) %MON land_Tgr2_max_T              =   3.1355929366973E+01
(PID.TID 0000.0001) %MON land_Tgr2_max_N              =   2.9826658521212E+01
(PID.TID 0000.0001) %MON land_grdW_ave_G              =   4.8684396904388E-01
(PID.TID 0000.0001) %MON land_grdW_ave_S              =   3.0860702323333E-01
(PID.TID 0000.0001) %MON land_grdW_ave_T              =   5.6439407839850E-01
(PID.TID 0000.0001) %MON land_grdW_ave_N              =   4.9287726593267E-01
(PID.TID 0000.0001) %MON land_grdW_min_S              =   2.6659419983474E-02
(PID.TID 0000.0001) %MON land_grdW_min_T              =   0.0000000000000E+00
(PID.TID 0000.0001) %MON land_grdW_min_N              =   0.0000000000000E+00
(PID.TID 0000.0001) // =======================================================
(PID.TID 0000.0001) // End MONITOR Land statistics
(PID.TID 0000.0001) // =======================================================
(PID.TID 0000.0001) // =======================================================
(PID.TID 0000.0001) // Begin MONITOR Therm.SeaIce statistics
(PID.TID 0000.0001) // =======================================================
(PID.TID 0000.0001) %MON thSI_time_sec                =   6.7500000000000E+03
(PID.TID 0000.0001) %MON thSI_Ice_Area_G              =   1.5786402728674E+11
(PID.TID 0000.0001) %MON thSI_Ice_Area_S              =   0.0000000000000E+00
(PID.TID 0000.0001) %MON thSI_Ice_Area_N              =   1.5786402728674E+11
(PID.TID 0000.0001) %MON thSI_IceH_ave_G              =   1.3360717491881E-01
(PID.TID 0000.0001) %MON thSI_IceH_ave_S              =   0.0000000000000E+00
(PID.TID 0000.0001) %MON thSI_IceH_ave_N              =   1.3360717491881E-01
(PID.TID 0000.0001) %MON thSI_IceH_max_S              =   0.0000000000000E+00
(PID.TID 0000.0001) %MON thSI_IceH_max_N              =   1.4237386869560E-01
(PID.TID 0000.0001) %MON thSI_SnwH_ave_G              =   0.0000000000000E+00
(PID.TID 0000.0001) %MON thSI_SnwH_ave_S              =   0.0000000000000E+00
(PID.TID 0000.0001) %MON thSI_SnwH_ave_N              =   0.0000000000000E+00
(PID.TID 0000.0001) %MON thSI_SnwH_max_S              =   0.0000000000000E+00
(PID.TID 0000.0001) %MON thSI_SnwH_max_N              =   0.0000000000000E+00
(PID.TID 0000.0001) %MON thSI_TotEnerg_G              =  -6.4675615726198E+18
(PID.TID 0000.0001) %MON thSI_Tsrf_ave_G              =  -7.8356148284167E+00
(PID.TID 0000.0001) %MON thSI_Tsrf_ave_S              =   0.0000000000000E+00
(PID.TID 0000.0001) %MON thSI_Tsrf_ave_N              =  -7.8356148284167E+00
(PID.TID 0000.0001) %MON thSI_Tsrf_min_S              =   0.0000000000000E+00
(PID.TID 0000.0001) %MON thSI_Tsrf_min_N              =  -7.9287754663639E+00
(PID.TID 0000.0001) %MON thSI_Tsrf_max_S              =   0.0000000000000E+00
(PID.TID 0000.0001) %MON thSI_Tsrf_max_N              =  -7.6626791342460E+00
(PID.TID 0000.0001) %MON thSI_Tic1_ave_G              =  -5.3538370041431E+00
(PID.TID 0000.0001) %MON thSI_Tic1_ave_S              =   0.0000000000000E+00
(PID.TID 0000.0001) %MON thSI_Tic1_ave_N              =  -5.3538370041431E+00
(PID.TID 0000.0001) %MON thSI_Tic1_min_S              =   0.0000000000000E+00
(PID.TID 0000.0001) %MON thSI_Tic1_min_N              =  -5.4406212949331E+00
(PID.TID 0000.0001) %MON thSI_Tic1_max_S              =   0.0000000000000E+00
(PID.TID 0000.0001) %MON thSI_Tic1_max_N              =  -5.2759271083591E+00
(PID.TID 0000.0001) %MON thSI_Tic2_ave_G              =  -2.6262922026048E+00
(PID.TID 0000.0001) %MON thSI_Tic2_ave_S              =   0.0000000000000E+00
(PID.TID 0000.0001) %MON thSI_Tic2_ave_N              =  -2.6262922026048E+00
(PID.TID 0000.0001) %MON thSI_Tic2_min_S              =   0.0000000000000E+00
(PID.TID 0000.0001) %MON thSI_Tic2_min_N              =  -2.7198237212543E+00
(PID.TID 0000.0001) %MON thSI_Tic2_max_S              =   0.0000000000000E+00
(PID.TID 0000.0001) %MON thSI_Tic2_max_N              =  -2.5443525348544E+00
(PID.TID 0000.0001) // =======================================================
(PID.TID 0000.0001) // End MONITOR Therm.SeaIce statistics
(PID.TID 0000.0001) // =======================================================
 cg2d: Sum(rhs),rhsMax =   5.09317032992840E-11  2.57946827818597E+04
(PID.TID 0000.0001)                    cg2d_init_res =    1.31464669085441E+04
(PID.TID 0000.0001)                       cg2d_iters =    16
(PID.TID 0000.0001)                         cg2d_res =    8.68897746401348E-11
(PID.TID 0000.0001) // =======================================================
(PID.TID 0000.0001) // Begin MONITOR dynamic field statistics
(PID.TID 0000.0001) // =======================================================
(PID.TID 0000.0001) %MON time_tsnumber                =                    16
(PID.TID 0000.0001) %MON time_secondsf                =   7.2000000000000E+03
(PID.TID 0000.0001) %MON dynstat_eta_max              =   4.9129643765122E+03
(PID.TID 0000.0001) %MON dynstat_eta_min              =  -1.3028662312702E+03
(PID.TID 0000.0001) %MON dynstat_eta_mean             =   2.4299458643786E-14
(PID.TID 0000.0001) %MON dynstat_eta_sd               =   5.5342316737318E+02
(PID.TID 0000.0001) %MON dynstat_eta_del2             =   3.7584282936605E+01
(PID.TID 0000.0001) %MON dynstat_uvel_max             =   5.8604559632881E+00
(PID.TID 0000.0001) %MON dynstat_uvel_min             =  -6.5120549619843E+00
(PID.TID 0000.0001) %MON dynstat_uvel_mean            =  -9.6050349959572E-03
(PID.TID 0000.0001) %MON dynstat_uvel_sd              =   7.9176915723158E-01
(PID.TID 0000.0001) %MON dynstat_uvel_del2            =   2.0068652168095E-02
(PID.TID 0000.0001) %MON dynstat_vvel_max             =   5.9715983499224E+00
(PID.TID 0000.0001) %MON dynstat_vvel_min             =  -6.3080635923354E+00
(PID.TID 0000.0001) %MON dynstat_vvel_mean            =   2.3474797063934E-02
(PID.TID 0000.0001) %MON dynstat_vvel_sd              =   8.2323915934016E-01
(PID.TID 0000.0001) %MON dynstat_vvel_del2            =   2.0043261137843E-02
(PID.TID 0000.0001) %MON dynstat_wvel_max             =   1.6218496135379E-01
(PID.TID 0000.0001) %MON dynstat_wvel_min             =  -1.6268314717043E-01
(PID.TID 0000.0001) %MON dynstat_wvel_mean            =  -6.5593657030836E-04
(PID.TID 0000.0001) %MON dynstat_wvel_sd              =   8.5728741140517E-03
(PID.TID 0000.0001) %MON dynstat_wvel_del2            =   1.2920842280202E-03
(PID.TID 0000.0001) %MON dynstat_theta_max            =   4.3805814818308E+02
(PID.TID 0000.0001) %MON dynstat_theta_min            =   2.8570154163991E+02
(PID.TID 0000.0001) %MON dynstat_theta_mean           =   3.3170217627715E+02
(PID.TID 0000.0001) %MON dynstat_theta_sd             =   4.7435264941996E+01
(PID.TID 0000.0001) %MON dynstat_theta_del2           =   1.7909409834269E-02
(PID.TID 0000.0001) %MON dynstat_salt_max             =   3.8410130143405E+00
(PID.TID 0000.0001) %MON dynstat_salt_min             =  -3.2244407640239E-03
(PID.TID 0000.0001) %MON dynstat_salt_mean            =   5.9591359959141E-02
(PID.TID 0000.0001) %MON dynstat_salt_sd              =   2.4537039807861E-01
(PID.TID 0000.0001) %MON dynstat_salt_del2            =   7.9602260081581E-03
(PID.TID 0000.0001) %MON advcfl_uvel_max              =   9.1799914658718E-03
(PID.TID 0000.0001) %MON advcfl_vvel_max              =   9.1189138082805E-03
(PID.TID 0000.0001) %MON advcfl_wvel_max              =   4.0644904110163E-03
(PID.TID 0000.0001) %MON advcfl_W_hf_max              =   1.4380633448921E-02
(PID.TID 0000.0001) %MON pe_b_mean                    =  -1.1078034600146E+00
(PID.TID 0000.0001) %MON ke_max                       =   2.6901662739534E+01
(PID.TID 0000.0001) %MON ke_mean                      =   6.4877920323115E-01
(PID.TID 0000.0001) %MON ke_vol                       =   4.9523908919847E+19
(PID.TID 0000.0001) %MON vort_r_min                   =  -2.7071620191241E-05
(PID.TID 0000.0001) %MON vort_r_max                   =   1.4965838474432E-05
(PID.TID 0000.0001) %MON vort_a_mean                  =   6.7059142261981E-08
(PID.TID 0000.0001) %MON vort_a_sd                    =   8.3738194280883E-05
(PID.TID 0000.0001) %MON vort_p_mean                  =   6.8751151458716E-08
(PID.TID 0000.0001) %MON vort_p_sd                    =   9.1655725106828E-05
(PID.TID 0000.0001) %MON surfExpan_theta_mean         =   6.0937133371272E-02
(PID.TID 0000.0001) %MON surfExpan_salt_mean          =  -3.0356112053350E-04
(PID.TID 0000.0001) %MON surfExpan_Heat_mean          =  -5.4373686692366E+00
(PID.TID 0000.0001) %MON En_Budget_T2PE_mean          =   9.9242932045745E+00
(PID.TID 0000.0001) // =======================================================
(PID.TID 0000.0001) // End MONITOR dynamic field statistics
(PID.TID 0000.0001) // =======================================================
(PID.TID 0000.0001) // =======================================================
(PID.TID 0000.0001) // Begin MONITOR Land statistics
(PID.TID 0000.0001) // =======================================================
(PID.TID 0000.0001) %MON land_time_sec                =   7.2000000000000E+03
(PID.TID 0000.0001) %MON land_SnwH_ave_G              =   1.5323234493235E-01
(PID.TID 0000.0001) %MON land_SnwH_ave_S              =   5.5904904065804E-01
(PID.TID 0000.0001) %MON land_SnwH_ave_T              =   0.0000000000000E+00
(PID.TID 0000.0001) %MON land_SnwH_ave_N              =   1.2391193497869E-01
(PID.TID 0000.0001) %MON land_SnwH_max_S              =   9.9999147006055E-01
(PID.TID 0000.0001) %MON land_SnwH_max_T              =   0.0000000000000E+00
(PID.TID 0000.0001) %MON land_SnwH_max_N              =   9.9999891179468E-01
(PID.TID 0000.0001) %MON land_TotEnerg_G              =  -6.3340963692315E+21
(PID.TID 0000.0001) %MON land_TotEnerg_S              =  -5.0010186473737E+21
(PID.TID 0000.0001) %MON land_TotEnerg_T              =   7.2879533761283E+21
(PID.TID 0000.0001) %MON land_TotEnerg_N              =  -8.6210310979861E+21
(PID.TID 0000.0001) %MON land_Tsrf_ave_G              =  -7.8601502674099E+00
(PID.TID 0000.0001) %MON land_Tsrf_ave_S              =  -7.1250587718160E+00
(PID.TID 0000.0001) %MON land_Tsrf_ave_T              =   1.1463504143939E+01
(PID.TID 0000.0001) %MON land_Tsrf_ave_N              =  -2.1002377586543E+01
(PID.TID 0000.0001) %MON land_Tsrf_min_S              =  -3.3876443317415E+01
(PID.TID 0000.0001) %MON land_Tsrf_min_T              =  -4.7856512505061E+00
(PID.TID 0000.0001) %MON land_Tsrf_min_N              =  -5.2018187472154E+01
(PID.TID 0000.0001) %MON land_Tsrf_max_S              =   2.1807646693998E+01
(PID.TID 0000.0001) %MON land_Tsrf_max_T              =   2.2769351496694E+01
(PID.TID 0000.0001) %MON land_Tsrf_max_N              =   9.9148236915813E+00
(PID.TID 0000.0001) %MON land_Tgr1_ave_G              =  -6.5766438445343E+00
(PID.TID 0000.0001) %MON land_Tgr1_ave_S              =  -6.7571973294379E+00
(PID.TID 0000.0001) %MON land_Tgr1_ave_T              =   1.1463504143939E+01
(PID.TID 0000.0001) %MON land_Tgr1_ave_N              =  -1.8564753669189E+01
(PID.TID 0000.0001) %MON land_Tgr1_min_S              =  -3.9174190433409E+01
(PID.TID 0000.0001) %MON land_Tgr1_min_T              =  -4.7856512505061E+00
(PID.TID 0000.0001) %MON land_Tgr1_min_N              =  -5.4807883952863E+01
(PID.TID 0000.0001) %MON land_Tgr1_max_S              =   2.1807646693998E+01
(PID.TID 0000.0001) %MON land_Tgr1_max_T              =   2.2769351496694E+01
(PID.TID 0000.0001) %MON land_Tgr1_max_N              =   9.9148236915813E+00
(PID.TID 0000.0001) %MON land_Tgr2_ave_G              =   4.2052779857161E+00
(PID.TID 0000.0001) %MON land_Tgr2_ave_S              =  -1.8728415968217E+01
(PID.TID 0000.0001) %MON land_Tgr2_ave_T              =   2.2011073509288E+01
(PID.TID 0000.0001) %MON land_Tgr2_ave_N              =  -2.4535802398167E-01
(PID.TID 0000.0001) %MON land_Tgr2_min_S              =  -6.4755368630814E+01
(PID.TID 0000.0001) %MON land_Tgr2_min_T              =  -9.7043901174896E+00
(PID.TID 0000.0001) %MON land_Tgr2_min_N              =  -4.0197451930734E+01
(PID.TID 0000.0001) %MON land_Tgr2_max_S              =   2.3360510145221E+01
(PID.TID 0000.0001) %MON land_Tgr2_max_T              =   3.1355532025457E+01
(PID.TID 0000.0001) %MON land_Tgr2_max_N              =   2.9826184673467E+01
(PID.TID 0000.0001) %MON land_grdW_ave_G              =   4.8683437063078E-01
(PID.TID 0000.0001) %MON land_grdW_ave_S              =   3.0859819644535E-01
(PID.TID 0000.0001) %MON land_grdW_ave_T              =   5.6437020924109E-01
(PID.TID 0000.0001) %MON land_grdW_ave_N              =   4.9287694679244E-01
(PID.TID 0000.0001) %MON land_grdW_min_S              =   2.6740075596103E-02
(PID.TID 0000.0001) %MON land_grdW_min_T              =   0.0000000000000E+00
(PID.TID 0000.0001) %MON land_grdW_min_N              =   0.0000000000000E+00
(PID.TID 0000.0001) // =======================================================
(PID.TID 0000.0001) // End MONITOR Land statistics
(PID.TID 0000.0001) // =======================================================
(PID.TID 0000.0001) // =======================================================
(PID.TID 0000.0001) // Begin MONITOR Therm.SeaIce statistics
(PID.TID 0000.0001) // =======================================================
(PID.TID 0000.0001) %MON thSI_time_sec                =   7.2000000000000E+03
(PID.TID 0000.0001) %MON thSI_Ice_Area_G              =   1.6536805678588E+11
(PID.TID 0000.0001) %MON thSI_Ice_Area_S              =   0.0000000000000E+00
(PID.TID 0000.0001) %MON thSI_Ice_Area_N              =   1.6536805678588E+11
(PID.TID 0000.0001) %MON thSI_IceH_ave_G              =   1.3602460849217E-01
(PID.TID 0000.0001) %MON thSI_IceH_ave_S              =   0.0000000000000E+00
(PID.TID 0000.0001) %MON thSI_IceH_ave_N              =   1.3602460849217E-01
(PID.TID 0000.0001) %MON thSI_IceH_max_S              =   0.0000000000000E+00
(PID.TID 0000.0001) %MON thSI_IceH_max_N              =   1.4543394888169E-01
(PID.TID 0000.0001) %MON thSI_SnwH_ave_G              =   0.0000000000000E+00
(PID.TID 0000.0001) %MON thSI_SnwH_ave_S              =   0.0000000000000E+00
(PID.TID 0000.0001) %MON thSI_SnwH_ave_N              =   0.0000000000000E+00
(PID.TID 0000.0001) %MON thSI_SnwH_max_S              =   0.0000000000000E+00
(PID.TID 0000.0001) %MON thSI_SnwH_max_N              =   0.0000000000000E+00
(PID.TID 0000.0001) %MON thSI_TotEnerg_G              =  -6.9030650085915E+18
(PID.TID 0000.0001) %MON thSI_Tsrf_ave_G              =  -8.0077040916707E+00
(PID.TID 0000.0001) %MON thSI_Tsrf_ave_S              =   0.0000000000000E+00
(PID.TID 0000.0001) %MON thSI_Tsrf_ave_N              =  -8.0077040916707E+00
(PID.TID 0000.0001) %MON thSI_Tsrf_min_S              =   0.0000000000000E+00
(PID.TID 0000.0001) %MON thSI_Tsrf_min_N              =  -8.1034429960846E+00
(PID.TID 0000.0001) %MON thSI_Tsrf_max_S              =   0.0000000000000E+00
(PID.TID 0000.0001) %MON thSI_Tsrf_max_N              =  -7.8257906365346E+00
(PID.TID 0000.0001) %MON thSI_Tic1_ave_G              =  -5.5156310001147E+00
(PID.TID 0000.0001) %MON thSI_Tic1_ave_S              =   0.0000000000000E+00
(PID.TID 0000.0001) %MON thSI_Tic1_ave_N              =  -5.5156310001147E+00
(PID.TID 0000.0001) %MON thSI_Tic1_min_S              =   0.0000000000000E+00
(PID.TID 0000.0001) %MON thSI_Tic1_min_N              =  -5.6033420657491E+00
(PID.TID 0000.0001) %MON thSI_Tic1_max_S              =   0.0000000000000E+00
(PID.TID 0000.0001) %MON thSI_Tic1_max_N              =  -5.4365266237326E+00
(PID.TID 0000.0001) %MON thSI_Tic2_ave_G              =  -2.6785836214164E+00
(PID.TID 0000.0001) %MON thSI_Tic2_ave_S              =   0.0000000000000E+00
(PID.TID 0000.0001) %MON thSI_Tic2_ave_N              =  -2.6785836214164E+00
(PID.TID 0000.0001) %MON thSI_Tic2_min_S              =   0.0000000000000E+00
(PID.TID 0000.0001) %MON thSI_Tic2_min_N              =  -2.7760378910671E+00
(PID.TID 0000.0001) %MON thSI_Tic2_max_S              =   0.0000000000000E+00
(PID.TID 0000.0001) %MON thSI_Tic2_max_N              =  -2.5932103261334E+00
(PID.TID 0000.0001) // =======================================================
(PID.TID 0000.0001) // End MONITOR Therm.SeaIce statistics
(PID.TID 0000.0001) // =======================================================
 cg2d: Sum(rhs),rhsMax =  -1.09139364212751E-10  2.57458064155616E+04
(PID.TID 0000.0001)                    cg2d_init_res =    1.27175738536147E+04
(PID.TID 0000.0001)                       cg2d_iters =    16
(PID.TID 0000.0001)                         cg2d_res =    8.51870561471850E-11
(PID.TID 0000.0001) // =======================================================
(PID.TID 0000.0001) // Begin MONITOR dynamic field statistics
(PID.TID 0000.0001) // =======================================================
(PID.TID 0000.0001) %MON time_tsnumber                =                    17
(PID.TID 0000.0001) %MON time_secondsf                =   7.6500000000000E+03
(PID.TID 0000.0001) %MON dynstat_eta_max              =   4.9097867748935E+03
(PID.TID 0000.0001) %MON dynstat_eta_min              =  -1.2215130991822E+03
(PID.TID 0000.0001) %MON dynstat_eta_mean             =   1.6467401725541E-14
(PID.TID 0000.0001) %MON dynstat_eta_sd               =   5.5931978088985E+02
(PID.TID 0000.0001) %MON dynstat_eta_del2             =   3.7444979500986E+01
(PID.TID 0000.0001) %MON dynstat_uvel_max             =   5.9131306566230E+00
(PID.TID 0000.0001) %MON dynstat_uvel_min             =  -6.4929458752723E+00
(PID.TID 0000.0001) %MON dynstat_uvel_mean            =  -9.3164626828465E-03
(PID.TID 0000.0001) %MON dynstat_uvel_sd              =   7.9871407652619E-01
(PID.TID 0000.0001) %MON dynstat_uvel_del2            =   2.0509385948290E-02
(PID.TID 0000.0001) %MON dynstat_vvel_max             =   5.3252303131691E+00
(PID.TID 0000.0001) %MON dynstat_vvel_min             =  -5.8634918607355E+00
(PID.TID 0000.0001) %MON dynstat_vvel_mean            =   2.4830102873620E-02
(PID.TID 0000.0001) %MON dynstat_vvel_sd              =   8.1464083269097E-01
(PID.TID 0000.0001) %MON dynstat_vvel_del2            =   2.0364530258825E-02
(PID.TID 0000.0001) %MON dynstat_wvel_max             =   1.7225861806684E-01
(PID.TID 0000.0001) %MON dynstat_wvel_min             =  -1.2169695862441E-01
(PID.TID 0000.0001) %MON dynstat_wvel_mean            =  -4.9243217788980E-04
(PID.TID 0000.0001) %MON dynstat_wvel_sd              =   8.3406099460886E-03
(PID.TID 0000.0001) %MON dynstat_wvel_del2            =   1.3279232579740E-03
(PID.TID 0000.0001) %MON dynstat_theta_max            =   4.3815778115743E+02
(PID.TID 0000.0001) %MON dynstat_theta_min            =   2.8546853257134E+02
(PID.TID 0000.0001) %MON dynstat_theta_mean           =   3.3170048225605E+02
(PID.TID 0000.0001) %MON dynstat_theta_sd             =   4.7437172048479E+01
(PID.TID 0000.0001) %MON dynstat_theta_del2           =   1.8755859037989E-02
(PID.TID 0000.0001) %MON dynstat_salt_max             =   3.9392891809983E+00
(PID.TID 0000.0001) %MON dynstat_salt_min             =  -3.5875503941398E-03
(PID.TID 0000.0001) %MON dynstat_salt_mean            =   6.3089549808409E-02
(PID.TID 0000.0001) %MON dynstat_salt_sd              =   2.5849690993902E-01
(PID.TID 0000.0001) %MON dynstat_salt_del2            =   8.3167320817661E-03
(PID.TID 0000.0001) %MON advcfl_uvel_max              =   9.1530535401386E-03
(PID.TID 0000.0001) %MON advcfl_vvel_max              =   8.3581004550455E-03
(PID.TID 0000.0001) %MON advcfl_wvel_max              =   3.7416737019550E-03
(PID.TID 0000.0001) %MON advcfl_W_hf_max              =   1.3215127446646E-02
(PID.TID 0000.0001) %MON pe_b_mean                    =  -1.1168444988843E+00
(PID.TID 0000.0001) %MON ke_max                       =   2.5016357242945E+01
(PID.TID 0000.0001) %MON ke_mean                      =   6.4729652683865E-01
(PID.TID 0000.0001) %MON ke_vol                       =   4.9523908919847E+19
(PID.TID 0000.0001) %MON vort_r_min                   =  -2.5763862674597E-05
(PID.TID 0000.0001) %MON vort_r_max                   =   1.3517801404602E-05
(PID.TID 0000.0001) %MON vort_a_mean                  =   6.7059142261994E-08
(PID.TID 0000.0001) %MON vort_a_sd                    =   8.3740861572595E-05
(PID.TID 0000.0001) %MON vort_p_mean                  =   6.8751152925704E-08
(PID.TID 0000.0001) %MON vort_p_sd                    =   9.1655329117155E-05
(PID.TID 0000.0001) %MON surfExpan_theta_mean         =   4.4732189891127E-02
(PID.TID 0000.0001) %MON surfExpan_salt_mean          =  -3.5194299286550E-04
(PID.TID 0000.0001) %MON surfExpan_Heat_mean          =  -4.1034230144530E+00
(PID.TID 0000.0001) %MON En_Budget_T2PE_mean          =   7.4025685735361E+00
(PID.TID 0000.0001) // =======================================================
(PID.TID 0000.0001) // End MONITOR dynamic field statistics
(PID.TID 0000.0001) // =======================================================
(PID.TID 0000.0001) // =======================================================
(PID.TID 0000.0001) // Begin MONITOR Land statistics
(PID.TID 0000.0001) // =======================================================
(PID.TID 0000.0001) %MON land_time_sec                =   7.6500000000000E+03
(PID.TID 0000.0001) %MON land_SnwH_ave_G              =   1.5323136845690E-01
(PID.TID 0000.0001) %MON land_SnwH_ave_S              =   5.5904816470013E-01
(PID.TID 0000.0001) %MON land_SnwH_ave_T              =   0.0000000000000E+00
(PID.TID 0000.0001) %MON land_SnwH_ave_N              =   1.2391027383437E-01
(PID.TID 0000.0001) %MON land_SnwH_max_S              =   9.9999090719875E-01
(PID.TID 0000.0001) %MON land_SnwH_max_T              =   0.0000000000000E+00
(PID.TID 0000.0001) %MON land_SnwH_max_N              =   9.9999884804880E-01
(PID.TID 0000.0001) %MON land_TotEnerg_G              =  -6.3366734675372E+21
(PID.TID 0000.0001) %MON land_TotEnerg_S              =  -5.0012406258416E+21
(PID.TID 0000.0001) %MON land_TotEnerg_T              =   7.2863148306838E+21
(PID.TID 0000.0001) %MON land_TotEnerg_N              =  -8.6217476723793E+21
(PID.TID 0000.0001) %MON land_Tsrf_ave_G              =  -7.9512983239958E+00
(PID.TID 0000.0001) %MON land_Tsrf_ave_S              =  -7.2017824686143E+00
(PID.TID 0000.0001) %MON land_Tsrf_ave_T              =   1.1274733896506E+01
(PID.TID 0000.0001) %MON land_Tsrf_ave_N              =  -2.1033015589527E+01
(PID.TID 0000.0001) %MON land_Tsrf_min_S              =  -3.3826082197627E+01
(PID.TID 0000.0001) %MON land_Tsrf_min_T              =  -4.6354481752069E+00
(PID.TID 0000.0001) %MON land_Tsrf_min_N              =  -5.2028968960637E+01
(PID.TID 0000.0001) %MON land_Tsrf_max_S              =   2.1566099864554E+01
(PID.TID 0000.0001) %MON land_Tsrf_max_T              =   2.2418528160134E+01
(PID.TID 0000.0001) %MON land_Tsrf_max_N              =   9.7179619232626E+00
(PID.TID 0000.0001) %MON land_Tgr1_ave_G              =  -6.6705106861744E+00
(PID.TID 0000.0001) %MON land_Tgr1_ave_S              =  -6.8277928435092E+00
(PID.TID 0000.0001) %MON land_Tgr1_ave_T              =   1.1274733896506E+01
(PID.TID 0000.0001) %MON land_Tgr1_ave_N              =  -1.8602795884370E+01
(PID.TID 0000.0001) %MON land_Tgr1_min_S              =  -3.9185356197011E+01
(PID.TID 0000.0001) %MON land_Tgr1_min_T              =  -4.6354481752069E+00
(PID.TID 0000.0001) %MON land_Tgr1_min_N              =  -5.4795214361674E+01
(PID.TID 0000.0001) %MON land_Tgr1_max_S              =   2.1566099864554E+01
(PID.TID 0000.0001) %MON land_Tgr1_max_T              =   2.2418528160134E+01
(PID.TID 0000.0001) %MON land_Tgr1_max_N              =   9.7179619232626E+00
(PID.TID 0000.0001) %MON land_Tgr2_ave_G              =   4.2051112567744E+00
(PID.TID 0000.0001) %MON land_Tgr2_ave_S              =  -1.8728216815278E+01
(PID.TID 0000.0001) %MON land_Tgr2_ave_T              =   2.2010898691861E+01
(PID.TID 0000.0001) %MON land_Tgr2_ave_N              =  -2.4563804152309E-01
(PID.TID 0000.0001) %MON land_Tgr2_min_S              =  -6.4754937491086E+01
(PID.TID 0000.0001) %MON land_Tgr2_min_T              =  -9.7043260697438E+00
(PID.TID 0000.0001) %MON land_Tgr2_min_N              =  -4.0197689355311E+01
(PID.TID 0000.0001) %MON land_Tgr2_max_S              =   2.3360469139233E+01
(PID.TID 0000.0001) %MON land_Tgr2_max_T              =   3.1355129955077E+01
(PID.TID 0000.0001) %MON land_Tgr2_max_N              =   2.9825704043508E+01
(PID.TID 0000.0001) %MON land_grdW_ave_G              =   4.8682507426614E-01
(PID.TID 0000.0001) %MON land_grdW_ave_S              =   3.0858953492757E-01
(PID.TID 0000.0001) %MON land_grdW_ave_T              =   5.6434715490165E-01
(PID.TID 0000.0001) %MON land_grdW_ave_N              =   4.9287663165832E-01
(PID.TID 0000.0001) %MON land_grdW_min_S              =   2.6822226687451E-02
(PID.TID 0000.0001) %MON land_grdW_min_T              =   0.0000000000000E+00
(PID.TID 0000.0001) %MON land_grdW_min_N              =   0.0000000000000E+00
(PID.TID 0000.0001) // =======================================================
(PID.TID 0000.0001) // End MONITOR Land statistics
(PID.TID 0000.0001) // =======================================================
(PID.TID 0000.0001) // =======================================================
(PID.TID 0000.0001) // Begin MONITOR Therm.SeaIce statistics
(PID.TID 0000.0001) // =======================================================
(PID.TID 0000.0001) %MON thSI_time_sec                =   7.6500000000000E+03
(PID.TID 0000.0001) %MON thSI_Ice_Area_G              =   1.6634323468401E+11
(PID.TID 0000.0001) %MON thSI_Ice_Area_S              =   0.0000000000000E+00
(PID.TID 0000.0001) %MON thSI_Ice_Area_N              =   1.6634323468401E+11
(PID.TID 0000.0001) %MON thSI_IceH_ave_G              =   1.3638629531202E-01
(PID.TID 0000.0001) %MON thSI_IceH_ave_S              =   0.0000000000000E+00
(PID.TID 0000.0001) %MON thSI_IceH_ave_N              =   1.3638629531202E-01
(PID.TID 0000.0001) %MON thSI_IceH_max_S              =   0.0000000000000E+00
(PID.TID 0000.0001) %MON thSI_IceH_max_N              =   1.4578996032185E-01
(PID.TID 0000.0001) %MON thSI_SnwH_ave_G              =   0.0000000000000E+00
(PID.TID 0000.0001) %MON thSI_SnwH_ave_S              =   0.0000000000000E+00
(PID.TID 0000.0001) %MON thSI_SnwH_ave_N              =   0.0000000000000E+00
(PID.TID 0000.0001) %MON thSI_SnwH_max_S              =   0.0000000000000E+00
(PID.TID 0000.0001) %MON thSI_SnwH_max_N              =   0.0000000000000E+00
(PID.TID 0000.0001) %MON thSI_TotEnerg_G              =  -6.9684358553003E+18
(PID.TID 0000.0001) %MON thSI_Tsrf_ave_G              =  -8.1672489758673E+00
(PID.TID 0000.0001) %MON thSI_Tsrf_ave_S              =   0.0000000000000E+00
(PID.TID 0000.0001) %MON thSI_Tsrf_ave_N              =  -8.1672489758673E+00
(PID.TID 0000.0001) %MON thSI_Tsrf_min_S              =   0.0000000000000E+00
(PID.TID 0000.0001) %MON thSI_Tsrf_min_N              =  -8.2656449734205E+00
(PID.TID 0000.0001) %MON thSI_Tsrf_max_S              =   0.0000000000000E+00
(PID.TID 0000.0001) %MON thSI_Tsrf_max_N              =  -7.9754590584839E+00
(PID.TID 0000.0001) %MON thSI_Tic1_ave_G              =  -5.6646296622559E+00
(PID.TID 0000.0001) %MON thSI_Tic1_ave_S              =   0.0000000000000E+00
(PID.TID 0000.0001) %MON thSI_Tic1_ave_N              =  -5.6646296622559E+00
(PID.TID 0000.0001) %MON thSI_Tic1_min_S              =   0.0000000000000E+00
(PID.TID 0000.0001) %MON thSI_Tic1_min_N              =  -5.7524153909563E+00
(PID.TID 0000.0001) %MON thSI_Tic1_max_S              =   0.0000000000000E+00
(PID.TID 0000.0001) %MON thSI_Tic1_max_N              =  -5.5848520604116E+00
(PID.TID 0000.0001) %MON thSI_Tic2_ave_G              =  -2.7270760581630E+00
(PID.TID 0000.0001) %MON thSI_Tic2_ave_S              =   0.0000000000000E+00
(PID.TID 0000.0001) %MON thSI_Tic2_ave_N              =  -2.7270760581630E+00
(PID.TID 0000.0001) %MON thSI_Tic2_min_S              =   0.0000000000000E+00
(PID.TID 0000.0001) %MON thSI_Tic2_min_N              =  -2.8279320131014E+00
(PID.TID 0000.0001) %MON thSI_Tic2_max_S              =   0.0000000000000E+00
(PID.TID 0000.0001) %MON thSI_Tic2_max_N              =  -2.6384518530374E+00
(PID.TID 0000.0001) // =======================================================
(PID.TID 0000.0001) // End MONITOR Therm.SeaIce statistics
(PID.TID 0000.0001) // =======================================================
 cg2d: Sum(rhs),rhsMax =  -1.67347025126219E-10  2.63811493216964E+04
(PID.TID 0000.0001)                    cg2d_init_res =    1.24560300421161E+04
(PID.TID 0000.0001)                       cg2d_iters =    16
(PID.TID 0000.0001)                         cg2d_res =    8.28564823122487E-11
(PID.TID 0000.0001) // =======================================================
(PID.TID 0000.0001) // Begin MONITOR dynamic field statistics
(PID.TID 0000.0001) // =======================================================
(PID.TID 0000.0001) %MON time_tsnumber                =                    18
(PID.TID 0000.0001) %MON time_secondsf                =   8.1000000000000E+03
(PID.TID 0000.0001) %MON dynstat_eta_max              =   4.8421415679938E+03
(PID.TID 0000.0001) %MON dynstat_eta_min              =  -1.1364726127059E+03
(PID.TID 0000.0001) %MON dynstat_eta_mean             =   1.4860825947439E-14
(PID.TID 0000.0001) %MON dynstat_eta_sd               =   5.6241251792873E+02
(PID.TID 0000.0001) %MON dynstat_eta_del2             =   3.7289374107171E+01
(PID.TID 0000.0001) %MON dynstat_uvel_max             =   5.9424363800096E+00
(PID.TID 0000.0001) %MON dynstat_uvel_min             =  -6.3347149167472E+00
(PID.TID 0000.0001) %MON dynstat_uvel_mean            =  -8.6831043655228E-03
(PID.TID 0000.0001) %MON dynstat_uvel_sd              =   8.0675573041218E-01
(PID.TID 0000.0001) %MON dynstat_uvel_del2            =   2.1066556163895E-02
(PID.TID 0000.0001) %MON dynstat_vvel_max             =   4.8050086726469E+00
(PID.TID 0000.0001) %MON dynstat_vvel_min             =  -5.7154757591601E+00
(PID.TID 0000.0001) %MON dynstat_vvel_mean            =   2.6018976600760E-02
(PID.TID 0000.0001) %MON dynstat_vvel_sd              =   8.0801575151026E-01
(PID.TID 0000.0001) %MON dynstat_vvel_del2            =   2.0745940581845E-02
(PID.TID 0000.0001) %MON dynstat_wvel_max             =   1.8079640472045E-01
(PID.TID 0000.0001) %MON dynstat_wvel_min             =  -1.0750748850266E-01
(PID.TID 0000.0001) %MON dynstat_wvel_mean            =  -3.3125784487338E-04
(PID.TID 0000.0001) %MON dynstat_wvel_sd              =   8.3988998523767E-03
(PID.TID 0000.0001) %MON dynstat_wvel_del2            =   1.3745464912528E-03
(PID.TID 0000.0001) %MON dynstat_theta_max            =   4.3823385237069E+02
(PID.TID 0000.0001) %MON dynstat_theta_min            =   2.8523735024147E+02
(PID.TID 0000.0001) %MON dynstat_theta_mean           =   3.3169874531401E+02
(PID.TID 0000.0001) %MON dynstat_theta_sd             =   4.7439104286425E+01
(PID.TID 0000.0001) %MON dynstat_theta_del2           =   1.9588241274202E-02
(PID.TID 0000.0001) %MON dynstat_salt_max             =   4.0301241573990E+00
(PID.TID 0000.0001) %MON dynstat_salt_min             =  -3.9697114693325E-03
(PID.TID 0000.0001) %MON dynstat_salt_mean            =   6.6570713612320E-02
(PID.TID 0000.0001) %MON dynstat_salt_sd              =   2.7145695339666E-01
(PID.TID 0000.0001) %MON dynstat_salt_del2            =   8.6616196687382E-03
(PID.TID 0000.0001) %MON advcfl_uvel_max              =   8.9956260806607E-03
(PID.TID 0000.0001) %MON advcfl_vvel_max              =   8.1471112569167E-03
(PID.TID 0000.0001) %MON advcfl_wvel_max              =   3.3494393198308E-03
(PID.TID 0000.0001) %MON advcfl_W_hf_max              =   1.2593815300643E-02
(PID.TID 0000.0001) %MON pe_b_mean                    =  -1.1278328499680E+00
(PID.TID 0000.0001) %MON ke_max                       =   2.3796862913714E+01
(PID.TID 0000.0001) %MON ke_mean                      =   6.4839208095806E-01
(PID.TID 0000.0001) %MON ke_vol                       =   4.9523908919847E+19
(PID.TID 0000.0001) %MON vort_r_min                   =  -2.4143957226614E-05
(PID.TID 0000.0001) %MON vort_r_max                   =   1.1649338647424E-05
(PID.TID 0000.0001) %MON vort_a_mean                  =   6.7059142262051E-08
(PID.TID 0000.0001) %MON vort_a_sd                    =   8.3743550949655E-05
(PID.TID 0000.0001) %MON vort_p_mean                  =   6.8751154244869E-08
(PID.TID 0000.0001) %MON vort_p_sd                    =   9.1651663027779E-05
(PID.TID 0000.0001) %MON surfExpan_theta_mean         =   2.8855575930654E-02
(PID.TID 0000.0001) %MON surfExpan_salt_mean          =  -4.0637636710063E-04
(PID.TID 0000.0001) %MON surfExpan_Heat_mean          =  -2.7878495066131E+00
(PID.TID 0000.0001) %MON En_Budget_T2PE_mean          =   4.9221244452921E+00
(PID.TID 0000.0001) // =======================================================
(PID.TID 0000.0001) // End MONITOR dynamic field statistics
(PID.TID 0000.0001) // =======================================================
(PID.TID 0000.0001) // =======================================================
(PID.TID 0000.0001) // Begin MONITOR Land statistics
(PID.TID 0000.0001) // =======================================================
(PID.TID 0000.0001) %MON land_time_sec                =   8.1000000000000E+03
(PID.TID 0000.0001) %MON land_SnwH_ave_G              =   1.5323039675730E-01
(PID.TID 0000.0001) %MON land_SnwH_ave_S              =   5.5904729499612E-01
(PID.TID 0000.0001) %MON land_SnwH_ave_T              =   0.0000000000000E+00
(PID.TID 0000.0001) %MON land_SnwH_ave_N              =   1.2390862017561E-01
(PID.TID 0000.0001) %MON land_SnwH_max_S              =   9.9999034228128E-01
(PID.TID 0000.0001) %MON land_SnwH_max_T              =   0.0000000000000E+00
(PID.TID 0000.0001) %MON land_SnwH_max_N              =   9.9999878439490E-01
(PID.TID 0000.0001) %MON land_TotEnerg_G              =  -6.3390520442598E+21
(PID.TID 0000.0001) %MON land_TotEnerg_S              =  -5.0014354692275E+21
(PID.TID 0000.0001) %MON land_TotEnerg_T              =   7.2848314340867E+21
(PID.TID 0000.0001) %MON land_TotEnerg_N              =  -8.6224480091189E+21
(PID.TID 0000.0001) %MON land_Tsrf_ave_G              =  -8.0321147112970E+00
(PID.TID 0000.0001) %MON land_Tsrf_ave_S              =  -7.2590925118362E+00
(PID.TID 0000.0001) %MON land_Tsrf_ave_T              =   1.1104224893291E+01
(PID.TID 0000.0001) %MON land_Tsrf_ave_N              =  -2.1061563200529E+01
(PID.TID 0000.0001) %MON land_Tsrf_min_S              =  -3.3790534399712E+01
(PID.TID 0000.0001) %MON land_Tsrf_min_T              =  -4.4898432360057E+00
(PID.TID 0000.0001) %MON land_Tsrf_min_N              =  -5.2037583248394E+01
(PID.TID 0000.0001) %MON land_Tsrf_max_S              =   2.1350926571752E+01
(PID.TID 0000.0001) %MON land_Tsrf_max_T              =   2.2101099372402E+01
(PID.TID 0000.0001) %MON land_Tsrf_max_N              =   9.5310961073382E+00
(PID.TID 0000.0001) %MON land_Tgr1_ave_G              =  -6.7558715085327E+00
(PID.TID 0000.0001) %MON land_Tgr1_ave_S              =  -6.8905574170492E+00
(PID.TID 0000.0001) %MON land_Tgr1_ave_T              =   1.1104224893291E+01
(PID.TID 0000.0001) %MON land_Tgr1_ave_N              =  -1.8638627341153E+01
(PID.TID 0000.0001) %MON land_Tgr1_min_S              =  -3.9196545459031E+01
(PID.TID 0000.0001) %MON land_Tgr1_min_T              =  -4.4898432360057E+00
(PID.TID 0000.0001) %MON land_Tgr1_min_N              =  -5.4782574084628E+01
(PID.TID 0000.0001) %MON land_Tgr1_max_S              =   2.1350926571752E+01
(PID.TID 0000.0001) %MON land_Tgr1_max_T              =   2.2101099372402E+01
(PID.TID 0000.0001) %MON land_Tgr1_max_N              =   9.5310961073382E+00
(PID.TID 0000.0001) %MON land_Tgr2_ave_G              =   4.2049431932364E+00
(PID.TID 0000.0001) %MON land_Tgr2_ave_S              =  -1.8728018658560E+01
(PID.TID 0000.0001) %MON land_Tgr2_ave_T              =   2.2010721279439E+01
(PID.TID 0000.0001) %MON land_Tgr2_ave_N              =  -2.4591866177080E-01
(PID.TID 0000.0001) %MON land_Tgr2_min_S              =  -6.4754506562927E+01
(PID.TID 0000.0001) %MON land_Tgr2_min_T              =  -9.7042601832236E+00
(PID.TID 0000.0001) %MON land_Tgr2_min_N              =  -4.0197926539917E+01
(PID.TID 0000.0001) %MON land_Tgr2_max_S              =   2.3360424124053E+01
(PID.TID 0000.0001) %MON land_Tgr2_max_T              =   3.1354723474529E+01
(PID.TID 0000.0001) %MON land_Tgr2_max_N              =   2.9825216877043E+01
(PID.TID 0000.0001) %MON land_grdW_ave_G              =   4.8681604748325E-01
(PID.TID 0000.0001) %MON land_grdW_ave_S              =   3.0858102825772E-01
(PID.TID 0000.0001) %MON land_grdW_ave_T              =   5.6432482461824E-01
(PID.TID 0000.0001) %MON land_grdW_ave_N              =   4.9287631984032E-01
(PID.TID 0000.0001) %MON land_grdW_min_S              =   2.6905626692042E-02
(PID.TID 0000.0001) %MON land_grdW_min_T              =   0.0000000000000E+00
(PID.TID 0000.0001) %MON land_grdW_min_N              =   0.0000000000000E+00
(PID.TID 0000.0001) // =======================================================
(PID.TID 0000.0001) // End MONITOR Land statistics
(PID.TID 0000.0001) // =======================================================
(PID.TID 0000.0001) // =======================================================
(PID.TID 0000.0001) // Begin MONITOR Therm.SeaIce statistics
(PID.TID 0000.0001) // =======================================================
(PID.TID 0000.0001) %MON thSI_time_sec                =   8.1000000000000E+03
(PID.TID 0000.0001) %MON thSI_Ice_Area_G              =   1.6731267614978E+11
(PID.TID 0000.0001) %MON thSI_Ice_Area_S              =   0.0000000000000E+00
(PID.TID 0000.0001) %MON thSI_Ice_Area_N              =   1.6731267614978E+11
(PID.TID 0000.0001) %MON thSI_IceH_ave_G              =   1.3675441342730E-01
(PID.TID 0000.0001) %MON thSI_IceH_ave_S              =   0.0000000000000E+00
(PID.TID 0000.0001) %MON thSI_IceH_ave_N              =   1.3675441342730E-01
(PID.TID 0000.0001) %MON thSI_IceH_max_S              =   0.0000000000000E+00
(PID.TID 0000.0001) %MON thSI_IceH_max_N              =   1.4615188775900E-01
(PID.TID 0000.0001) %MON thSI_SnwH_ave_G              =   0.0000000000000E+00
(PID.TID 0000.0001) %MON thSI_SnwH_ave_S              =   0.0000000000000E+00
(PID.TID 0000.0001) %MON thSI_SnwH_ave_N              =   0.0000000000000E+00
(PID.TID 0000.0001) %MON thSI_SnwH_max_S              =   0.0000000000000E+00
(PID.TID 0000.0001) %MON thSI_SnwH_max_N              =   0.0000000000000E+00
(PID.TID 0000.0001) %MON thSI_TotEnerg_G              =  -7.0337332426644E+18
(PID.TID 0000.0001) %MON thSI_Tsrf_ave_G              =  -8.2975011624405E+00
(PID.TID 0000.0001) %MON thSI_Tsrf_ave_S              =   0.0000000000000E+00
(PID.TID 0000.0001) %MON thSI_Tsrf_ave_N              =  -8.2975011624405E+00
(PID.TID 0000.0001) %MON thSI_Tsrf_min_S              =   0.0000000000000E+00
(PID.TID 0000.0001) %MON thSI_Tsrf_min_N              =  -8.3958576738931E+00
(PID.TID 0000.0001) %MON thSI_Tsrf_max_S              =   0.0000000000000E+00
(PID.TID 0000.0001) %MON thSI_Tsrf_max_N              =  -8.1036127959459E+00
(PID.TID 0000.0001) %MON thSI_Tic1_ave_G              =  -5.8196924246672E+00
(PID.TID 0000.0001) %MON thSI_Tic1_ave_S              =   0.0000000000000E+00
(PID.TID 0000.0001) %MON thSI_Tic1_ave_N              =  -5.8196924246672E+00
(PID.TID 0000.0001) %MON thSI_Tic1_min_S              =   0.0000000000000E+00
(PID.TID 0000.0001) %MON thSI_Tic1_min_N              =  -5.9017011056910E+00
(PID.TID 0000.0001) %MON thSI_Tic1_max_S              =   0.0000000000000E+00
(PID.TID 0000.0001) %MON thSI_Tic1_max_N              =  -5.7439244646699E+00
(PID.TID 0000.0001) %MON thSI_Tic2_ave_G              =  -2.7985690550089E+00
(PID.TID 0000.0001) %MON thSI_Tic2_ave_S              =   0.0000000000000E+00
(PID.TID 0000.0001) %MON thSI_Tic2_ave_N              =  -2.7985690550089E+00
(PID.TID 0000.0001) %MON thSI_Tic2_min_S              =   0.0000000000000E+00
(PID.TID 0000.0001) %MON thSI_Tic2_min_N              =  -2.8955780488047E+00
(PID.TID 0000.0001) %MON thSI_Tic2_max_S              =   0.0000000000000E+00
(PID.TID 0000.0001) %MON thSI_Tic2_max_N              =  -2.7123635228696E+00
(PID.TID 0000.0001) // =======================================================
(PID.TID 0000.0001) // End MONITOR Therm.SeaIce statistics
(PID.TID 0000.0001) // =======================================================
 cg2d: Sum(rhs),rhsMax =   3.34694050252438E-10  2.67618915061075E+04
(PID.TID 0000.0001)                    cg2d_init_res =    1.22932354790331E+04
(PID.TID 0000.0001)                       cg2d_iters =    16
(PID.TID 0000.0001)                         cg2d_res =    8.09401251888983E-11
(PID.TID 0000.0001) // =======================================================
(PID.TID 0000.0001) // Begin MONITOR dynamic field statistics
(PID.TID 0000.0001) // =======================================================
(PID.TID 0000.0001) %MON time_tsnumber                =                    19
(PID.TID 0000.0001) %MON time_secondsf                =   8.5500000000000E+03
(PID.TID 0000.0001) %MON dynstat_eta_max              =   4.7666907651743E+03
(PID.TID 0000.0001) %MON dynstat_eta_min              =  -1.0803939799486E+03
(PID.TID 0000.0001) %MON dynstat_eta_mean             =  -6.8279470569316E-15
(PID.TID 0000.0001) %MON dynstat_eta_sd               =   5.6288383638127E+02
(PID.TID 0000.0001) %MON dynstat_eta_del2             =   3.7149053746460E+01
(PID.TID 0000.0001) %MON dynstat_uvel_max             =   5.9537492252407E+00
(PID.TID 0000.0001) %MON dynstat_uvel_min             =  -6.3871038642386E+00
(PID.TID 0000.0001) %MON dynstat_uvel_mean            =  -7.6380962442603E-03
(PID.TID 0000.0001) %MON dynstat_uvel_sd              =   8.1490292040954E-01
(PID.TID 0000.0001) %MON dynstat_uvel_del2            =   2.1588797972838E-02
(PID.TID 0000.0001) %MON dynstat_vvel_max             =   4.4195699708209E+00
(PID.TID 0000.0001) %MON dynstat_vvel_min             =  -5.5419984852718E+00
(PID.TID 0000.0001) %MON dynstat_vvel_mean            =   2.7003898263603E-02
(PID.TID 0000.0001) %MON dynstat_vvel_sd              =   8.0371003615566E-01
(PID.TID 0000.0001) %MON dynstat_vvel_del2            =   2.1134940835702E-02
(PID.TID 0000.0001) %MON dynstat_wvel_max             =   2.2450928155312E-01
(PID.TID 0000.0001) %MON dynstat_wvel_min             =  -9.8202406219595E-02
(PID.TID 0000.0001) %MON dynstat_wvel_mean            =  -1.7511405791397E-04
(PID.TID 0000.0001) %MON dynstat_wvel_sd              =   8.6806541192024E-03
(PID.TID 0000.0001) %MON dynstat_wvel_del2            =   1.4341871094591E-03
(PID.TID 0000.0001) %MON dynstat_theta_max            =   4.3828434245678E+02
(PID.TID 0000.0001) %MON dynstat_theta_min            =   2.8500785974078E+02
(PID.TID 0000.0001) %MON dynstat_theta_mean           =   3.3169696659721E+02
(PID.TID 0000.0001) %MON dynstat_theta_sd             =   4.7441058125562E+01
(PID.TID 0000.0001) %MON dynstat_theta_del2           =   2.0415646647773E-02
(PID.TID 0000.0001) %MON dynstat_salt_max             =   4.1142682902489E+00
(PID.TID 0000.0001) %MON dynstat_salt_min             =  -4.3694670979470E-03
(PID.TID 0000.0001) %MON dynstat_salt_mean            =   7.0035786276496E-02
(PID.TID 0000.0001) %MON dynstat_salt_sd              =   2.8426864216573E-01
(PID.TID 0000.0001) %MON dynstat_salt_del2            =   9.0015943043059E-03
(PID.TID 0000.0001) %MON advcfl_uvel_max              =   9.1099200343995E-03
(PID.TID 0000.0001) %MON advcfl_vvel_max              =   7.8978123458980E-03
(PID.TID 0000.0001) %MON advcfl_wvel_max              =   3.6737882435965E-03
(PID.TID 0000.0001) %MON advcfl_W_hf_max              =   1.4302617602801E-02
(PID.TID 0000.0001) %MON pe_b_mean                    =  -1.1403579385445E+00
(PID.TID 0000.0001) %MON ke_max                       =   2.2374226969265E+01
(PID.TID 0000.0001) %MON ke_mean                      =   6.5152481606359E-01
(PID.TID 0000.0001) %MON ke_vol                       =   4.9523908919847E+19
(PID.TID 0000.0001) %MON vort_r_min                   =  -2.3113004475335E-05
(PID.TID 0000.0001) %MON vort_r_max                   =   9.4253346107519E-06
(PID.TID 0000.0001) %MON vort_a_mean                  =   6.7059142262031E-08
(PID.TID 0000.0001) %MON vort_a_sd                    =   8.3746254314457E-05
(PID.TID 0000.0001) %MON vort_p_mean                  =   6.8751155391380E-08
(PID.TID 0000.0001) %MON vort_p_sd                    =   9.1644794351024E-05
(PID.TID 0000.0001) %MON surfExpan_theta_mean         =   1.3563976259884E-02
(PID.TID 0000.0001) %MON surfExpan_salt_mean          =  -4.6737683784452E-04
(PID.TID 0000.0001) %MON surfExpan_Heat_mean          =  -1.5139833101837E+00
(PID.TID 0000.0001) %MON En_Budget_T2PE_mean          =   2.5250559016912E+00
(PID.TID 0000.0001) // =======================================================
(PID.TID 0000.0001) // End MONITOR dynamic field statistics
(PID.TID 0000.0001) // =======================================================
(PID.TID 0000.0001) // =======================================================
(PID.TID 0000.0001) // Begin MONITOR Land statistics
(PID.TID 0000.0001) // =======================================================
(PID.TID 0000.0001) %MON land_time_sec                =   8.5500000000000E+03
(PID.TID 0000.0001) %MON land_SnwH_ave_G              =   1.5322942815029E-01
(PID.TID 0000.0001) %MON land_SnwH_ave_S              =   5.5904642828219E-01
(PID.TID 0000.0001) %MON land_SnwH_ave_T              =   0.0000000000000E+00
(PID.TID 0000.0001) %MON land_SnwH_ave_N              =   1.2390697170782E-01
(PID.TID 0000.0001) %MON land_SnwH_max_S              =   9.9998977723565E-01
(PID.TID 0000.0001) %MON land_SnwH_max_T              =   0.0000000000000E+00
(PID.TID 0000.0001) %MON land_SnwH_max_N              =   9.9999872081960E-01
(PID.TID 0000.0001) %MON land_TotEnerg_G              =  -6.3412526769303E+21
(PID.TID 0000.0001) %MON land_TotEnerg_S              =  -5.0016059928401E+21
(PID.TID 0000.0001) %MON land_TotEnerg_T              =   7.2834861008166E+21
(PID.TID 0000.0001) %MON land_TotEnerg_N              =  -8.6231327849068E+21
(PID.TID 0000.0001) %MON land_Tsrf_ave_G              =  -8.1038847667523E+00
(PID.TID 0000.0001) %MON land_Tsrf_ave_S              =  -7.2984513399603E+00
(PID.TID 0000.0001) %MON land_Tsrf_ave_T              =   1.0949902536025E+01
(PID.TID 0000.0001) %MON land_Tsrf_ave_N              =  -2.1088721261318E+01
(PID.TID 0000.0001) %MON land_Tsrf_min_S              =  -3.3772189812210E+01
(PID.TID 0000.0001) %MON land_Tsrf_min_T              =  -4.3486491884789E+00
(PID.TID 0000.0001) %MON land_Tsrf_min_N              =  -5.2044942133386E+01
(PID.TID 0000.0001) %MON land_Tsrf_max_S              =   2.1159488920654E+01
(PID.TID 0000.0001) %MON land_Tsrf_max_T              =   2.1814493833317E+01
(PID.TID 0000.0001) %MON land_Tsrf_max_N              =   9.3539494087116E+00
(PID.TID 0000.0001) %MON land_Tgr1_ave_G              =  -6.8338177491116E+00
(PID.TID 0000.0001) %MON land_Tgr1_ave_S              =  -6.9463052750326E+00
(PID.TID 0000.0001) %MON land_Tgr1_ave_T              =   1.0949902536025E+01
(PID.TID 0000.0001) %MON land_Tgr1_ave_N              =  -1.8672772877249E+01
(PID.TID 0000.0001) %MON land_Tgr1_min_S              =  -3.9207744300571E+01
(PID.TID 0000.0001) %MON land_Tgr1_min_T              =  -4.3486491884789E+00
(PID.TID 0000.0001) %MON land_Tgr1_min_N              =  -5.4769961851168E+01
(PID.TID 0000.0001) %MON land_Tgr1_max_S              =   2.1159488920654E+01
(PID.TID 0000.0001) %MON land_Tgr1_max_T              =   2.1814493833317E+01
(PID.TID 0000.0001) %MON land_Tgr1_max_N              =   9.3539494087116E+00
(PID.TID 0000.0001) %MON land_Tgr2_ave_G              =   4.2047739161754E+00
(PID.TID 0000.0001) %MON land_Tgr2_ave_S              =  -1.8727821387075E+01
(PID.TID 0000.0001) %MON land_Tgr2_ave_T              =   2.2010541529282E+01
(PID.TID 0000.0001) %MON land_Tgr2_ave_N              =  -2.4619985132131E-01
(PID.TID 0000.0001) %MON land_Tgr2_min_S              =  -6.4754075845695E+01
(PID.TID 0000.0001) %MON land_Tgr2_min_T              =  -9.7041925137026E+00
(PID.TID 0000.0001) %MON land_Tgr2_min_N              =  -4.0198163485409E+01
(PID.TID 0000.0001) %MON land_Tgr2_max_S              =   2.3360375504150E+01
(PID.TID 0000.0001) %MON land_Tgr2_max_T              =   3.1354312874878E+01
(PID.TID 0000.0001) %MON land_Tgr2_max_N              =   2.9824723411481E+01
(PID.TID 0000.0001) %MON land_grdW_ave_G              =   4.8680726200882E-01
(PID.TID 0000.0001) %MON land_grdW_ave_S              =   3.0857266213608E-01
(PID.TID 0000.0001) %MON land_grdW_ave_T              =   5.6430314051830E-01
(PID.TID 0000.0001) %MON land_grdW_ave_N              =   4.9287601165317E-01
(PID.TID 0000.0001) %MON land_grdW_min_S              =   2.6990052417787E-02
(PID.TID 0000.0001) %MON land_grdW_min_T              =   0.0000000000000E+00
(PID.TID 0000.0001) %MON land_grdW_min_N              =   0.0000000000000E+00
(PID.TID 0000.0001) // =======================================================
(PID.TID 0000.0001) // End MONITOR Land statistics
(PID.TID 0000.0001) // =======================================================
(PID.TID 0000.0001) // =======================================================
(PID.TID 0000.0001) // Begin MONITOR Therm.SeaIce statistics
(PID.TID 0000.0001) // =======================================================
(PID.TID 0000.0001) %MON thSI_time_sec                =   8.5500000000000E+03
(PID.TID 0000.0001) %MON thSI_Ice_Area_G              =   1.6827645534281E+11
(PID.TID 0000.0001) %MON thSI_Ice_Area_S              =   0.0000000000000E+00
(PID.TID 0000.0001) %MON thSI_Ice_Area_N              =   1.6827645534281E+11
(PID.TID 0000.0001) %MON thSI_IceH_ave_G              =   1.3712837036950E-01
(PID.TID 0000.0001) %MON thSI_IceH_ave_S              =   0.0000000000000E+00
(PID.TID 0000.0001) %MON thSI_IceH_ave_N              =   1.3712837036950E-01
(PID.TID 0000.0001) %MON thSI_IceH_max_S              =   0.0000000000000E+00
(PID.TID 0000.0001) %MON thSI_IceH_max_N              =   1.4651922526649E-01
(PID.TID 0000.0001) %MON thSI_SnwH_ave_G              =   0.0000000000000E+00
(PID.TID 0000.0001) %MON thSI_SnwH_ave_S              =   0.0000000000000E+00
(PID.TID 0000.0001) %MON thSI_SnwH_ave_N              =   0.0000000000000E+00
(PID.TID 0000.0001) %MON thSI_SnwH_max_S              =   0.0000000000000E+00
(PID.TID 0000.0001) %MON thSI_SnwH_max_N              =   0.0000000000000E+00
(PID.TID 0000.0001) %MON thSI_TotEnerg_G              =  -7.0989606359083E+18
(PID.TID 0000.0001) %MON thSI_Tsrf_ave_G              =  -8.4188399302085E+00
(PID.TID 0000.0001) %MON thSI_Tsrf_ave_S              =   0.0000000000000E+00
(PID.TID 0000.0001) %MON thSI_Tsrf_ave_N              =  -8.4188399302085E+00
(PID.TID 0000.0001) %MON thSI_Tsrf_min_S              =   0.0000000000000E+00
(PID.TID 0000.0001) %MON thSI_Tsrf_min_N              =  -8.5177817143030E+00
(PID.TID 0000.0001) %MON thSI_Tsrf_max_S              =   0.0000000000000E+00
(PID.TID 0000.0001) %MON thSI_Tsrf_max_N              =  -8.2208551680055E+00
(PID.TID 0000.0001) %MON thSI_Tic1_ave_G              =  -5.9647217847085E+00
(PID.TID 0000.0001) %MON thSI_Tic1_ave_S              =   0.0000000000000E+00
(PID.TID 0000.0001) %MON thSI_Tic1_ave_N              =  -5.9647217847085E+00
(PID.TID 0000.0001) %MON thSI_Tic1_min_S              =   0.0000000000000E+00
(PID.TID 0000.0001) %MON thSI_Tic1_min_N              =  -6.0397154442213E+00
(PID.TID 0000.0001) %MON thSI_Tic1_max_S              =   0.0000000000000E+00
(PID.TID 0000.0001) %MON thSI_Tic1_max_N              =  -5.8940991478524E+00
(PID.TID 0000.0001) %MON thSI_Tic2_ave_G              =  -2.8639321421224E+00
(PID.TID 0000.0001) %MON thSI_Tic2_ave_S              =   0.0000000000000E+00
(PID.TID 0000.0001) %MON thSI_Tic2_ave_N              =  -2.8639321421224E+00
(PID.TID 0000.0001) %MON thSI_Tic2_min_S              =   0.0000000000000E+00
(PID.TID 0000.0001) %MON thSI_Tic2_min_N              =  -2.9567621768670E+00
(PID.TID 0000.0001) %MON thSI_Tic2_max_S              =   0.0000000000000E+00
(PID.TID 0000.0001) %MON thSI_Tic2_max_N              =  -2.7805433239305E+00
(PID.TID 0000.0001) // =======================================================
(PID.TID 0000.0001) // End MONITOR Therm.SeaIce statistics
(PID.TID 0000.0001) // =======================================================
 cg2d: Sum(rhs),rhsMax =  -3.92901711165905E-10  2.67788543246778E+04
(PID.TID 0000.0001)                    cg2d_init_res =    1.21726089652632E+04
(PID.TID 0000.0001)                       cg2d_iters =    16
(PID.TID 0000.0001)                         cg2d_res =    7.90206944639687E-11
(PID.TID 0000.0001) // =======================================================
(PID.TID 0000.0001) // Begin MONITOR dynamic field statistics
(PID.TID 0000.0001) // =======================================================
(PID.TID 0000.0001) %MON time_tsnumber                =                    20
(PID.TID 0000.0001) %MON time_secondsf                =   9.0000000000000E+03
(PID.TID 0000.0001) %MON dynstat_eta_max              =   4.6427679651292E+03
(PID.TID 0000.0001) %MON dynstat_eta_min              =  -1.0197143466249E+03
(PID.TID 0000.0001) %MON dynstat_eta_mean             =  -1.5262469891965E-14
(PID.TID 0000.0001) %MON dynstat_eta_sd               =   5.6095707331222E+02
(PID.TID 0000.0001) %MON dynstat_eta_del2             =   3.7004630301365E+01
(PID.TID 0000.0001) %MON dynstat_uvel_max             =   5.9498585559376E+00
(PID.TID 0000.0001) %MON dynstat_uvel_min             =  -6.3698114287072E+00
(PID.TID 0000.0001) %MON dynstat_uvel_mean            =  -6.1198297508999E-03
(PID.TID 0000.0001) %MON dynstat_uvel_sd              =   8.2224720159195E-01
(PID.TID 0000.0001) %MON dynstat_uvel_del2            =   2.2105324671848E-02
(PID.TID 0000.0001) %MON dynstat_vvel_max             =   4.4078079344088E+00
(PID.TID 0000.0001) %MON dynstat_vvel_min             =  -5.6049241400222E+00
(PID.TID 0000.0001) %MON dynstat_vvel_mean            =   2.7752517364122E-02
(PID.TID 0000.0001) %MON dynstat_vvel_sd              =   8.0170526316858E-01
(PID.TID 0000.0001) %MON dynstat_vvel_del2            =   2.1516101988550E-02
(PID.TID 0000.0001) %MON dynstat_wvel_max             =   2.5864438563661E-01
(PID.TID 0000.0001) %MON dynstat_wvel_min             =  -9.9293383686008E-02
(PID.TID 0000.0001) %MON dynstat_wvel_mean            =  -2.7089749491384E-05
(PID.TID 0000.0001) %MON dynstat_wvel_sd              =   9.0858134490508E-03
(PID.TID 0000.0001) %MON dynstat_wvel_del2            =   1.4982292963671E-03
(PID.TID 0000.0001) %MON dynstat_theta_max            =   4.3830786464438E+02
(PID.TID 0000.0001) %MON dynstat_theta_min            =   2.8477991930716E+02
(PID.TID 0000.0001) %MON dynstat_theta_mean           =   3.3169514651150E+02
(PID.TID 0000.0001) %MON dynstat_theta_sd             =   4.7443030592240E+01
(PID.TID 0000.0001) %MON dynstat_theta_del2           =   2.1255715655632E-02
(PID.TID 0000.0001) %MON dynstat_salt_max             =   4.1923191391758E+00
(PID.TID 0000.0001) %MON dynstat_salt_min             =  -3.1106789347690E-03
(PID.TID 0000.0001) %MON dynstat_salt_mean            =   7.3485553239448E-02
(PID.TID 0000.0001) %MON dynstat_salt_sd              =   2.9693958865736E-01
(PID.TID 0000.0001) %MON dynstat_salt_del2            =   9.3355160924972E-03
(PID.TID 0000.0001) %MON advcfl_uvel_max              =   9.0852558504063E-03
(PID.TID 0000.0001) %MON advcfl_vvel_max              =   7.9816305194301E-03
(PID.TID 0000.0001) %MON advcfl_wvel_max              =   4.2323626740535E-03
(PID.TID 0000.0001) %MON advcfl_W_hf_max              =   1.5538240847241E-02
(PID.TID 0000.0001) %MON pe_b_mean                    =  -1.1537408341519E+00
(PID.TID 0000.0001) %MON ke_max                       =   2.0915477736180E+01
(PID.TID 0000.0001) %MON ke_mean                      =   6.5590927943417E-01
(PID.TID 0000.0001) %MON ke_vol                       =   4.9523908919847E+19
(PID.TID 0000.0001) %MON vort_r_min                   =  -2.1832371123575E-05
(PID.TID 0000.0001) %MON vort_r_max                   =   7.0991592862666E-06
(PID.TID 0000.0001) %MON vort_a_mean                  =   6.7059142262105E-08
(PID.TID 0000.0001) %MON vort_a_sd                    =   8.3748961227494E-05
(PID.TID 0000.0001) %MON vort_p_mean                  =   6.8751156374182E-08
(PID.TID 0000.0001) %MON vort_p_sd                    =   9.1634915051106E-05
(PID.TID 0000.0001) %MON surfExpan_theta_mean         =  -8.5301003584420E-04
(PID.TID 0000.0001) %MON surfExpan_salt_mean          =  -5.3524108203169E-04
(PID.TID 0000.0001) %MON surfExpan_Heat_mean          =  -3.0789371848721E-01
(PID.TID 0000.0001) %MON En_Budget_T2PE_mean          =   2.5878371374559E-01
(PID.TID 0000.0001) // =======================================================
(PID.TID 0000.0001) // End MONITOR dynamic field statistics
(PID.TID 0000.0001) // =======================================================
(PID.TID 0000.0001) // =======================================================
(PID.TID 0000.0001) // Begin MONITOR Land statistics
(PID.TID 0000.0001) // =======================================================
(PID.TID 0000.0001) %MON land_time_sec                =   9.0000000000000E+03
(PID.TID 0000.0001) %MON land_SnwH_ave_G              =   1.5322846210173E-01
(PID.TID 0000.0001) %MON land_SnwH_ave_S              =   5.5904556182524E-01
(PID.TID 0000.0001) %MON land_SnwH_ave_T              =   0.0000000000000E+00
(PID.TID 0000.0001) %MON land_SnwH_ave_N              =   1.2390532825355E-01
(PID.TID 0000.0001) %MON land_SnwH_max_S              =   9.9998921343538E-01
(PID.TID 0000.0001) %MON land_SnwH_max_T              =   0.0000000000000E+00
(PID.TID 0000.0001) %MON land_SnwH_max_N              =   9.9999865729069E-01
(PID.TID 0000.0001) %MON land_TotEnerg_G              =  -6.3432929445842E+21
(PID.TID 0000.0001) %MON land_TotEnerg_S              =  -5.0017541906056E+21
(PID.TID 0000.0001) %MON land_TotEnerg_T              =   7.2822638853661E+21
(PID.TID 0000.0001) %MON land_TotEnerg_N              =  -8.6238026393448E+21
(PID.TID 0000.0001) %MON land_Tsrf_ave_G              =  -8.1677018608877E+00
(PID.TID 0000.0001) %MON land_Tsrf_ave_S              =  -7.3228456930667E+00
(PID.TID 0000.0001) %MON land_Tsrf_ave_T              =   1.0810266453997E+01
(PID.TID 0000.0001) %MON land_Tsrf_ave_N              =  -2.1114697162120E+01
(PID.TID 0000.0001) %MON land_Tsrf_min_S              =  -3.3766300918477E+01
(PID.TID 0000.0001) %MON land_Tsrf_min_T              =  -4.2117007549265E+00
(PID.TID 0000.0001) %MON land_Tsrf_min_N              =  -5.2048829780517E+01
(PID.TID 0000.0001) %MON land_Tsrf_max_S              =   2.0989424325522E+01
(PID.TID 0000.0001) %MON land_Tsrf_max_T              =   2.1555925523544E+01
(PID.TID 0000.0001) %MON land_Tsrf_max_N              =   9.1862408603419E+00
(PID.TID 0000.0001) %MON land_Tgr1_ave_G              =  -6.9050187872268E+00
(PID.TID 0000.0001) %MON land_Tgr1_ave_S              =  -6.9955615659204E+00
(PID.TID 0000.0001) %MON land_Tgr1_ave_T              =   1.0810266453997E+01
(PID.TID 0000.0001) %MON land_Tgr1_ave_N              =  -1.8705393747969E+01
(PID.TID 0000.0001) %MON land_Tgr1_min_S              =  -3.9218934747334E+01
(PID.TID 0000.0001) %MON land_Tgr1_min_T              =  -4.2117007549265E+00
(PID.TID 0000.0001) %MON land_Tgr1_min_N              =  -5.4757374235275E+01
(PID.TID 0000.0001) %MON land_Tgr1_max_S              =   2.0989424325522E+01
(PID.TID 0000.0001) %MON land_Tgr1_max_T              =   2.1555925523544E+01
(PID.TID 0000.0001) %MON land_Tgr1_max_N              =   9.1862408603419E+00
(PID.TID 0000.0001) %MON land_Tgr2_ave_G              =   4.2046035367675E+00
(PID.TID 0000.0001) %MON land_Tgr2_ave_S              =  -1.8727624898172E+01
(PID.TID 0000.0001) %MON land_Tgr2_ave_T              =   2.2010359677214E+01
(PID.TID 0000.0001) %MON land_Tgr2_ave_N              =  -2.4648157946904E-01
(PID.TID 0000.0001) %MON land_Tgr2_min_S              =  -6.4753645338953E+01
(PID.TID 0000.0001) %MON land_Tgr2_min_T              =  -9.7041231148644E+00
(PID.TID 0000.0001) %MON land_Tgr2_min_N              =  -4.0198400192512E+01
(PID.TID 0000.0001) %MON land_Tgr2_max_S              =   2.3360323642561E+01
(PID.TID 0000.0001) %MON land_Tgr2_max_T              =   3.1353898428677E+01
(PID.TID 0000.0001) %MON land_Tgr2_max_N              =   2.9824223876540E+01
(PID.TID 0000.0001) %MON land_grdW_ave_G              =   4.8679869376294E-01
(PID.TID 0000.0001) %MON land_grdW_ave_S              =   3.0856443025088E-01
(PID.TID 0000.0001) %MON land_grdW_ave_T              =   5.6428203440364E-01
(PID.TID 0000.0001) %MON land_grdW_ave_N              =   4.9287570671396E-01
(PID.TID 0000.0001) %MON land_grdW_min_S              =   2.7075303336747E-02
(PID.TID 0000.0001) %MON land_grdW_min_T              =   0.0000000000000E+00
(PID.TID 0000.0001) %MON land_grdW_min_N              =   0.0000000000000E+00
(PID.TID 0000.0001) // =======================================================
(PID.TID 0000.0001) // End MONITOR Land statistics
(PID.TID 0000.0001) // =======================================================
(PID.TID 0000.0001) // =======================================================
(PID.TID 0000.0001) // Begin MONITOR Therm.SeaIce statistics
(PID.TID 0000.0001) // =======================================================
(PID.TID 0000.0001) %MON thSI_time_sec                =   9.0000000000000E+03
(PID.TID 0000.0001) %MON thSI_Ice_Area_G              =   1.6923464427920E+11
(PID.TID 0000.0001) %MON thSI_Ice_Area_S              =   0.0000000000000E+00
(PID.TID 0000.0001) %MON thSI_Ice_Area_N              =   1.6923464427920E+11
(PID.TID 0000.0001) %MON thSI_IceH_ave_G              =   1.3750764506332E-01
(PID.TID 0000.0001) %MON thSI_IceH_ave_S              =   0.0000000000000E+00
(PID.TID 0000.0001) %MON thSI_IceH_ave_N              =   1.3750764506332E-01
(PID.TID 0000.0001) %MON thSI_IceH_max_S              =   0.0000000000000E+00
(PID.TID 0000.0001) %MON thSI_IceH_max_N              =   1.4689152405170E-01
(PID.TID 0000.0001) %MON thSI_SnwH_ave_G              =   0.0000000000000E+00
(PID.TID 0000.0001) %MON thSI_SnwH_ave_S              =   0.0000000000000E+00
(PID.TID 0000.0001) %MON thSI_SnwH_ave_N              =   0.0000000000000E+00
(PID.TID 0000.0001) %MON thSI_SnwH_max_S              =   0.0000000000000E+00
(PID.TID 0000.0001) %MON thSI_SnwH_max_N              =   0.0000000000000E+00
(PID.TID 0000.0001) %MON thSI_TotEnerg_G              =  -7.1641218926439E+18
(PID.TID 0000.0001) %MON thSI_Tsrf_ave_G              =  -8.5316289117834E+00
(PID.TID 0000.0001) %MON thSI_Tsrf_ave_S              =   0.0000000000000E+00
(PID.TID 0000.0001) %MON thSI_Tsrf_ave_N              =  -8.5316289117834E+00
(PID.TID 0000.0001) %MON thSI_Tsrf_min_S              =   0.0000000000000E+00
(PID.TID 0000.0001) %MON thSI_Tsrf_min_N              =  -8.6317973019571E+00
(PID.TID 0000.0001) %MON thSI_Tsrf_max_S              =   0.0000000000000E+00
(PID.TID 0000.0001) %MON thSI_Tsrf_max_N              =  -8.3277841804864E+00
(PID.TID 0000.0001) %MON thSI_Tic1_ave_G              =  -6.1000168770806E+00
(PID.TID 0000.0001) %MON thSI_Tic1_ave_S              =   0.0000000000000E+00
(PID.TID 0000.0001) %MON thSI_Tic1_ave_N              =  -6.1000168770806E+00
(PID.TID 0000.0001) %MON thSI_Tic1_min_S              =   0.0000000000000E+00
(PID.TID 0000.0001) %MON thSI_Tic1_min_N              =  -6.1670076919323E+00
(PID.TID 0000.0001) %MON thSI_Tic1_max_S              =   0.0000000000000E+00
(PID.TID 0000.0001) %MON thSI_Tic1_max_N              =  -6.0354869066132E+00
(PID.TID 0000.0001) %MON thSI_Tic2_ave_G              =  -2.9239111232926E+00
(PID.TID 0000.0001) %MON thSI_Tic2_ave_S              =   0.0000000000000E+00
(PID.TID 0000.0001) %MON thSI_Tic2_ave_N              =  -2.9239111232926E+00
(PID.TID 0000.0001) %MON thSI_Tic2_min_S              =   0.0000000000000E+00
(PID.TID 0000.0001) %MON thSI_Tic2_min_N              =  -3.0123295056718E+00
(PID.TID 0000.0001) %MON thSI_Tic2_max_S              =   0.0000000000000E+00
(PID.TID 0000.0001) %MON thSI_Tic2_max_N              =  -2.8436439961720E+00
(PID.TID 0000.0001) // =======================================================
(PID.TID 0000.0001) // End MONITOR Therm.SeaIce statistics
(PID.TID 0000.0001) // =======================================================
 cg2d: Sum(rhs),rhsMax =  -5.23868948221207E-10  2.64715619963671E+04
(PID.TID 0000.0001)                    cg2d_init_res =    1.20605227164557E+04
(PID.TID 0000.0001)                       cg2d_iters =    16
(PID.TID 0000.0001)                         cg2d_res =    7.45799105795713E-11
(PID.TID 0000.0001) // =======================================================
(PID.TID 0000.0001) // Begin MONITOR dynamic field statistics
(PID.TID 0000.0001) // =======================================================
(PID.TID 0000.0001) %MON time_tsnumber                =                    21
(PID.TID 0000.0001) %MON time_secondsf                =   9.4500000000000E+03
(PID.TID 0000.0001) %MON dynstat_eta_max              =   4.5458333147478E+03
(PID.TID 0000.0001) %MON dynstat_eta_min              =  -9.7711434881592E+02
(PID.TID 0000.0001) %MON dynstat_eta_mean             =   1.5262469891965E-14
(PID.TID 0000.0001) %MON dynstat_eta_sd               =   5.5688108772754E+02
(PID.TID 0000.0001) %MON dynstat_eta_del2             =   3.6890574490396E+01
(PID.TID 0000.0001) %MON dynstat_uvel_max             =   5.9313492486867E+00
(PID.TID 0000.0001) %MON dynstat_uvel_min             =  -6.2695685232597E+00
(PID.TID 0000.0001) %MON dynstat_uvel_mean            =  -4.0760004479203E-03
(PID.TID 0000.0001) %MON dynstat_uvel_sd              =   8.2808964668179E-01
(PID.TID 0000.0001) %MON dynstat_uvel_del2            =   2.2614371668700E-02
(PID.TID 0000.0001) %MON dynstat_vvel_max             =   4.5755946998044E+00
(PID.TID 0000.0001) %MON dynstat_vvel_min             =  -5.6431918108715E+00
(PID.TID 0000.0001) %MON dynstat_vvel_mean            =   2.8241529848646E-02
(PID.TID 0000.0001) %MON dynstat_vvel_sd              =   8.0172400737418E-01
(PID.TID 0000.0001) %MON dynstat_vvel_del2            =   2.1834431328755E-02
(PID.TID 0000.0001) %MON dynstat_wvel_max             =   2.8152510490346E-01
(PID.TID 0000.0001) %MON dynstat_wvel_min             =  -1.1319222310732E-01
(PID.TID 0000.0001) %MON dynstat_wvel_mean            =   1.0961939621216E-04
(PID.TID 0000.0001) %MON dynstat_wvel_sd              =   9.5191558965192E-03
(PID.TID 0000.0001) %MON dynstat_wvel_del2            =   1.5645960134951E-03
(PID.TID 0000.0001) %MON dynstat_theta_max            =   4.3830383560922E+02
(PID.TID 0000.0001) %MON dynstat_theta_min            =   2.8455341682296E+02
(PID.TID 0000.0001) %MON dynstat_theta_mean           =   3.3169328512668E+02
(PID.TID 0000.0001) %MON dynstat_theta_sd             =   4.7445019095592E+01
(PID.TID 0000.0001) %MON dynstat_theta_del2           =   2.2106494666682E-02
(PID.TID 0000.0001) %MON dynstat_salt_max             =   4.2647364573925E+00
(PID.TID 0000.0001) %MON dynstat_salt_min             =  -4.7219552184809E-03
(PID.TID 0000.0001) %MON dynstat_salt_mean            =   7.6920850159503E-02
(PID.TID 0000.0001) %MON dynstat_salt_sd              =   3.0947704151875E-01
(PID.TID 0000.0001) %MON dynstat_salt_del2            =   9.6641654226602E-03
(PID.TID 0000.0001) %MON advcfl_uvel_max              =   8.9422794917854E-03
(PID.TID 0000.0001) %MON advcfl_vvel_max              =   8.0361251748309E-03
(PID.TID 0000.0001) %MON advcfl_wvel_max              =   4.6067744438748E-03
(PID.TID 0000.0001) %MON advcfl_W_hf_max              =   1.6248265371337E-02
(PID.TID 0000.0001) %MON pe_b_mean                    =  -1.1672355166207E+00
(PID.TID 0000.0001) %MON ke_max                       =   1.9548203403259E+01
(PID.TID 0000.0001) %MON ke_mean                      =   6.6071807689453E-01
(PID.TID 0000.0001) %MON ke_vol                       =   4.9523908919847E+19
(PID.TID 0000.0001) %MON vort_r_min                   =  -2.0697849515891E-05
(PID.TID 0000.0001) %MON vort_r_max                   =   7.2526026143565E-06
(PID.TID 0000.0001) %MON vort_a_mean                  =   6.7059142262058E-08
(PID.TID 0000.0001) %MON vort_a_sd                    =   8.3751660124028E-05
(PID.TID 0000.0001) %MON vort_p_mean                  =   6.8751157231515E-08
(PID.TID 0000.0001) %MON vort_p_sd                    =   9.1622336364236E-05
(PID.TID 0000.0001) %MON surfExpan_theta_mean         =  -1.4096304409677E-02
(PID.TID 0000.0001) %MON surfExpan_salt_mean          =  -6.0999687642611E-04
(PID.TID 0000.0001) %MON surfExpan_Heat_mean          =   8.0385965231272E-01
(PID.TID 0000.0001) %MON En_Budget_T2PE_mean          =  -1.8279896142872E+00
(PID.TID 0000.0001) // =======================================================
(PID.TID 0000.0001) // End MONITOR dynamic field statistics
(PID.TID 0000.0001) // =======================================================
(PID.TID 0000.0001) // =======================================================
(PID.TID 0000.0001) // Begin MONITOR Land statistics
(PID.TID 0000.0001) // =======================================================
(PID.TID 0000.0001) %MON land_time_sec                =   9.4500000000000E+03
(PID.TID 0000.0001) %MON land_SnwH_ave_G              =   1.5322749820557E-01
(PID.TID 0000.0001) %MON land_SnwH_ave_S              =   5.5904469367793E-01
(PID.TID 0000.0001) %MON land_SnwH_ave_T              =   0.0000000000000E+00
(PID.TID 0000.0001) %MON land_SnwH_ave_N              =   1.2390368963553E-01
(PID.TID 0000.0001) %MON land_SnwH_max_S              =   9.9998865138989E-01
(PID.TID 0000.0001) %MON land_SnwH_max_T              =   0.0000000000000E+00
(PID.TID 0000.0001) %MON land_SnwH_max_N              =   9.9999859380921E-01
(PID.TID 0000.0001) %MON land_TotEnerg_G              =  -6.3451904981706E+21
(PID.TID 0000.0001) %MON land_TotEnerg_S              =  -5.0018826752451E+21
(PID.TID 0000.0001) %MON land_TotEnerg_T              =   7.2811503609221E+21
(PID.TID 0000.0001) %MON land_TotEnerg_N              =  -8.6244581838475E+21
(PID.TID 0000.0001) %MON land_Tsrf_ave_G              =  -8.2246958309257E+00
(PID.TID 0000.0001) %MON land_Tsrf_ave_S              =  -7.3361805693790E+00
(PID.TID 0000.0001) %MON land_Tsrf_ave_T              =   1.0683427565374E+01
(PID.TID 0000.0001) %MON land_Tsrf_ave_N              =  -2.1139213493616E+01
(PID.TID 0000.0001) %MON land_Tsrf_min_S              =  -3.3765777554773E+01
(PID.TID 0000.0001) %MON land_Tsrf_min_T              =  -4.0788538305607E+00
(PID.TID 0000.0001) %MON land_Tsrf_min_N              =  -5.2053539472257E+01
(PID.TID 0000.0001) %MON land_Tsrf_max_S              =   2.0838606554287E+01
(PID.TID 0000.0001) %MON land_Tsrf_max_T              =   2.1322869926870E+01
(PID.TID 0000.0001) %MON land_Tsrf_max_N              =   9.0276843991076E+00
(PID.TID 0000.0001) %MON land_Tgr1_ave_G              =  -6.9701332159972E+00
(PID.TID 0000.0001) %MON land_Tgr1_ave_S              =  -7.0391271403311E+00
(PID.TID 0000.0001) %MON land_Tgr1_ave_T              =   1.0683427565374E+01
(PID.TID 0000.0001) %MON land_Tgr1_ave_N              =  -1.8736280714789E+01
(PID.TID 0000.0001) %MON land_Tgr1_min_S              =  -3.9230099886168E+01
(PID.TID 0000.0001) %MON land_Tgr1_min_T              =  -4.0788538305607E+00
(PID.TID 0000.0001) %MON land_Tgr1_min_N              =  -5.4744811996889E+01
(PID.TID 0000.0001) %MON land_Tgr1_max_S              =   2.0838606554287E+01
(PID.TID 0000.0001) %MON land_Tgr1_max_T              =   2.1322869926870E+01
(PID.TID 0000.0001) %MON land_Tgr1_max_N              =   9.0276843991076E+00
(PID.TID 0000.0001) %MON land_Tgr2_ave_G              =   4.2044321527835E+00
(PID.TID 0000.0001) %MON land_Tgr2_ave_S              =  -1.8727429101947E+01
(PID.TID 0000.0001) %MON land_Tgr2_ave_T              =   2.2010175928308E+01
(PID.TID 0000.0001) %MON land_Tgr2_ave_N              =  -2.4676381754444E-01
(PID.TID 0000.0001) %MON land_Tgr2_min_S              =  -6.4753215042352E+01
(PID.TID 0000.0001) %MON land_Tgr2_min_T              =  -9.7040520385698E+00
(PID.TID 0000.0001) %MON land_Tgr2_min_N              =  -4.0198636661831E+01
(PID.TID 0000.0001) %MON land_Tgr2_max_S              =   2.3360268865497E+01
(PID.TID 0000.0001) %MON land_Tgr2_max_T              =   3.1353480382186E+01
(PID.TID 0000.0001) %MON land_Tgr2_max_N              =   2.9823718494836E+01
(PID.TID 0000.0001) %MON land_grdW_ave_G              =   4.8679031626420E-01
(PID.TID 0000.0001) %MON land_grdW_ave_S              =   3.0855631577496E-01
(PID.TID 0000.0001) %MON land_grdW_ave_T              =   5.6426143597091E-01
(PID.TID 0000.0001) %MON land_grdW_ave_N              =   4.9287540467254E-01
(PID.TID 0000.0001) %MON land_grdW_min_S              =   2.7161199546641E-02
(PID.TID 0000.0001) %MON land_grdW_min_T              =   0.0000000000000E+00
(PID.TID 0000.0001) %MON land_grdW_min_N              =   0.0000000000000E+00
(PID.TID 0000.0001) // =======================================================
(PID.TID 0000.0001) // End MONITOR Land statistics
(PID.TID 0000.0001) // =======================================================
(PID.TID 0000.0001) // =======================================================
(PID.TID 0000.0001) // Begin MONITOR Therm.SeaIce statistics
(PID.TID 0000.0001) // =======================================================
(PID.TID 0000.0001) %MON thSI_time_sec                =   9.4500000000000E+03
(PID.TID 0000.0001) %MON thSI_Ice_Area_G              =   1.7018731288634E+11
(PID.TID 0000.0001) %MON thSI_Ice_Area_S              =   0.0000000000000E+00
(PID.TID 0000.0001) %MON thSI_Ice_Area_N              =   1.7018731288634E+11
(PID.TID 0000.0001) %MON thSI_IceH_ave_G              =   1.3789177344279E-01
(PID.TID 0000.0001) %MON thSI_IceH_ave_S              =   0.0000000000000E+00
(PID.TID 0000.0001) %MON thSI_IceH_ave_N              =   1.3789177344279E-01
(PID.TID 0000.0001) %MON thSI_IceH_max_S              =   0.0000000000000E+00
(PID.TID 0000.0001) %MON thSI_IceH_max_N              =   1.4726838138742E-01
(PID.TID 0000.0001) %MON thSI_SnwH_ave_G              =   0.0000000000000E+00
(PID.TID 0000.0001) %MON thSI_SnwH_ave_S              =   0.0000000000000E+00
(PID.TID 0000.0001) %MON thSI_SnwH_ave_N              =   0.0000000000000E+00
(PID.TID 0000.0001) %MON thSI_SnwH_max_S              =   0.0000000000000E+00
(PID.TID 0000.0001) %MON thSI_SnwH_max_N              =   0.0000000000000E+00
(PID.TID 0000.0001) %MON thSI_TotEnerg_G              =  -7.2292210917604E+18
(PID.TID 0000.0001) %MON thSI_Tsrf_ave_G              =  -8.6362858524891E+00
(PID.TID 0000.0001) %MON thSI_Tsrf_ave_S              =   0.0000000000000E+00
(PID.TID 0000.0001) %MON thSI_Tsrf_ave_N              =  -8.6362858524891E+00
(PID.TID 0000.0001) %MON thSI_Tsrf_min_S              =   0.0000000000000E+00
(PID.TID 0000.0001) %MON thSI_Tsrf_min_N              =  -8.7411726969524E+00
(PID.TID 0000.0001) %MON thSI_Tsrf_max_S              =   0.0000000000000E+00
(PID.TID 0000.0001) %MON thSI_Tsrf_max_N              =  -8.4250740656350E+00
(PID.TID 0000.0001) %MON thSI_Tic1_ave_G              =  -6.2259669458205E+00
(PID.TID 0000.0001) %MON thSI_Tic1_ave_S              =   0.0000000000000E+00
(PID.TID 0000.0001) %MON thSI_Tic1_ave_N              =  -6.2259669458205E+00
(PID.TID 0000.0001) %MON thSI_Tic1_min_S              =   0.0000000000000E+00
(PID.TID 0000.0001) %MON thSI_Tic1_min_N              =  -6.2842014291967E+00
(PID.TID 0000.0001) %MON thSI_Tic1_max_S              =   0.0000000000000E+00
(PID.TID 0000.0001) %MON thSI_Tic1_max_N              =  -6.1682968835280E+00
(PID.TID 0000.0001) %MON thSI_Tic2_ave_G              =  -2.9790978856244E+00
(PID.TID 0000.0001) %MON thSI_Tic2_ave_S              =   0.0000000000000E+00
(PID.TID 0000.0001) %MON thSI_Tic2_ave_N              =  -2.9790978856244E+00
(PID.TID 0000.0001) %MON thSI_Tic2_min_S              =   0.0000000000000E+00
(PID.TID 0000.0001) %MON thSI_Tic2_min_N              =  -3.0629452010521E+00
(PID.TID 0000.0001) %MON thSI_Tic2_max_S              =   0.0000000000000E+00
(PID.TID 0000.0001) %MON thSI_Tic2_max_N              =  -2.9021874978331E+00
(PID.TID 0000.0001) // =======================================================
(PID.TID 0000.0001) // End MONITOR Therm.SeaIce statistics
(PID.TID 0000.0001) // =======================================================
 cg2d: Sum(rhs),rhsMax =  -4.94765117764473E-10  2.58984565278487E+04
(PID.TID 0000.0001)                    cg2d_init_res =    1.19444129844779E+04
(PID.TID 0000.0001)                       cg2d_iters =    16
(PID.TID 0000.0001)                         cg2d_res =    7.09195577384128E-11
(PID.TID 0000.0001) // =======================================================
(PID.TID 0000.0001) // Begin MONITOR dynamic field statistics
(PID.TID 0000.0001) // =======================================================
(PID.TID 0000.0001) %MON time_tsnumber                =                    22
(PID.TID 0000.0001) %MON time_secondsf                =   9.9000000000000E+03
(PID.TID 0000.0001) %MON dynstat_eta_max              =   4.3988836588409E+03
(PID.TID 0000.0001) %MON dynstat_eta_min              =  -9.3489336797361E+02
(PID.TID 0000.0001) %MON dynstat_eta_mean             =   0.0000000000000E+00
(PID.TID 0000.0001) %MON dynstat_eta_sd               =   5.5092304408235E+02
(PID.TID 0000.0001) %MON dynstat_eta_del2             =   3.6788890160584E+01
(PID.TID 0000.0001) %MON dynstat_uvel_max             =   5.8972256936067E+00
(PID.TID 0000.0001) %MON dynstat_uvel_min             =  -6.1042593102025E+00
(PID.TID 0000.0001) %MON dynstat_uvel_mean            =  -1.4669805758028E-03
(PID.TID 0000.0001) %MON dynstat_uvel_sd              =   8.3198793866660E-01
(PID.TID 0000.0001) %MON dynstat_uvel_del2            =   2.3104682411718E-02
(PID.TID 0000.0001) %MON dynstat_vvel_max             =   4.7375382931417E+00
(PID.TID 0000.0001) %MON dynstat_vvel_min             =  -5.8701605393227E+00
(PID.TID 0000.0001) %MON dynstat_vvel_mean            =   2.8459759872009E-02
(PID.TID 0000.0001) %MON dynstat_vvel_sd              =   8.0333479271798E-01
(PID.TID 0000.0001) %MON dynstat_vvel_del2            =   2.2185294441705E-02
(PID.TID 0000.0001) %MON dynstat_wvel_max             =   2.9235229864956E-01
(PID.TID 0000.0001) %MON dynstat_wvel_min             =  -1.2462521454682E-01
(PID.TID 0000.0001) %MON dynstat_wvel_mean            =   2.3202691059401E-04
(PID.TID 0000.0001) %MON dynstat_wvel_sd              =   9.9115749097235E-03
(PID.TID 0000.0001) %MON dynstat_wvel_del2            =   1.6289140222916E-03
(PID.TID 0000.0001) %MON dynstat_theta_max            =   4.3827265317137E+02
(PID.TID 0000.0001) %MON dynstat_theta_min            =   2.8432826994926E+02
(PID.TID 0000.0001) %MON dynstat_theta_mean           =   3.3169138239560E+02
(PID.TID 0000.0001) %MON dynstat_theta_sd             =   4.7447021304127E+01
(PID.TID 0000.0001) %MON dynstat_theta_del2           =   2.2954169611906E-02
(PID.TID 0000.0001) %MON dynstat_salt_max             =   4.3321510164596E+00
(PID.TID 0000.0001) %MON dynstat_salt_min             =  -6.4007914043584E-03
(PID.TID 0000.0001) %MON dynstat_salt_mean            =   8.0342387341575E-02
(PID.TID 0000.0001) %MON dynstat_salt_sd              =   3.2188591015527E-01
(PID.TID 0000.0001) %MON dynstat_salt_del2            =   9.9901846054279E-03
(PID.TID 0000.0001) %MON advcfl_uvel_max              =   8.7064991218540E-03
(PID.TID 0000.0001) %MON advcfl_vvel_max              =   8.3676063069949E-03
(PID.TID 0000.0001) %MON advcfl_wvel_max              =   4.7839467051747E-03
(PID.TID 0000.0001) %MON advcfl_W_hf_max              =   1.6415951134710E-02
(PID.TID 0000.0001) %MON pe_b_mean                    =  -1.1801649373115E+00
(PID.TID 0000.0001) %MON ke_max                       =   1.8387219960811E+01
(PID.TID 0000.0001) %MON ke_mean                      =   6.6521691231201E-01
(PID.TID 0000.0001) %MON ke_vol                       =   4.9523908919847E+19
(PID.TID 0000.0001) %MON vort_r_min                   =  -2.1765076117210E-05
(PID.TID 0000.0001) %MON vort_r_max                   =   7.7293182593734E-06
(PID.TID 0000.0001) %MON vort_a_mean                  =   6.7059142262023E-08
(PID.TID 0000.0001) %MON vort_a_sd                    =   8.3754339676165E-05
(PID.TID 0000.0001) %MON vort_p_mean                  =   6.8751158022864E-08
(PID.TID 0000.0001) %MON vort_p_sd                    =   9.1607469385964E-05
(PID.TID 0000.0001) %MON surfExpan_theta_mean         =  -2.5885366126290E-02
(PID.TID 0000.0001) %MON surfExpan_salt_mean          =  -6.9136905251645E-04
(PID.TID 0000.0001) %MON surfExpan_Heat_mean          =   1.7967441225275E+00
(PID.TID 0000.0001) %MON En_Budget_T2PE_mean          =  -3.6899296426340E+00
(PID.TID 0000.0001) // =======================================================
(PID.TID 0000.0001) // End MONITOR dynamic field statistics
(PID.TID 0000.0001) // =======================================================
(PID.TID 0000.0001) // =======================================================
(PID.TID 0000.0001) // Begin MONITOR Land statistics
(PID.TID 0000.0001) // =======================================================
(PID.TID 0000.0001) %MON land_time_sec                =   9.9000000000000E+03
(PID.TID 0000.0001) %MON land_SnwH_ave_G              =   1.5322653618846E-01
(PID.TID 0000.0001) %MON land_SnwH_ave_S              =   5.5904382279076E-01
(PID.TID 0000.0001) %MON land_SnwH_ave_T              =   0.0000000000000E+00
(PID.TID 0000.0001) %MON land_SnwH_ave_N              =   1.2390205564969E-01
(PID.TID 0000.0001) %MON land_SnwH_max_S              =   9.9998809095291E-01
(PID.TID 0000.0001) %MON land_SnwH_max_T              =   0.0000000000000E+00
(PID.TID 0000.0001) %MON land_SnwH_max_N              =   9.9999853035151E-01
(PID.TID 0000.0001) %MON land_TotEnerg_G              =  -6.3469603230496E+21
(PID.TID 0000.0001) %MON land_TotEnerg_S              =  -5.0019936402708E+21
(PID.TID 0000.0001) %MON land_TotEnerg_T              =   7.2801333673036E+21
(PID.TID 0000.0001) %MON land_TotEnerg_N              =  -8.6251000500824E+21
(PID.TID 0000.0001) %MON land_Tsrf_ave_G              =  -8.2760324843167E+00
(PID.TID 0000.0001) %MON land_Tsrf_ave_S              =  -7.3423862221137E+00
(PID.TID 0000.0001) %MON land_Tsrf_ave_T              =   1.0567940159088E+01
(PID.TID 0000.0001) %MON land_Tsrf_ave_N              =  -2.1162352382491E+01
(PID.TID 0000.0001) %MON land_Tsrf_min_S              =  -3.3765073601253E+01
(PID.TID 0000.0001) %MON land_Tsrf_min_T              =  -3.9499838438088E+00
(PID.TID 0000.0001) %MON land_Tsrf_min_N              =  -5.2056282413824E+01
(PID.TID 0000.0001) %MON land_Tsrf_max_S              =   2.0705128747163E+01
(PID.TID 0000.0001) %MON land_Tsrf_max_T              =   2.1113045866854E+01
(PID.TID 0000.0001) %MON land_Tsrf_max_N              =   8.8779850724991E+00
(PID.TID 0000.0001) %MON land_Tgr1_ave_G              =  -7.0298391252393E+00
(PID.TID 0000.0001) %MON land_Tgr1_ave_S              =  -7.0776298746382E+00
(PID.TID 0000.0001) %MON land_Tgr1_ave_T              =   1.0567940159088E+01
(PID.TID 0000.0001) %MON land_Tgr1_ave_N              =  -1.8765615561568E+01
(PID.TID 0000.0001) %MON land_Tgr1_min_S              =  -3.9241227656146E+01
(PID.TID 0000.0001) %MON land_Tgr1_min_T              =  -3.9499838438088E+00
(PID.TID 0000.0001) %MON land_Tgr1_min_N              =  -5.4732273179271E+01
(PID.TID 0000.0001) %MON land_Tgr1_max_S              =   2.0705128747163E+01
(PID.TID 0000.0001) %MON land_Tgr1_max_T              =   2.1113045866854E+01
(PID.TID 0000.0001) %MON land_Tgr1_max_N              =   8.8779850724991E+00
(PID.TID 0000.0001) %MON land_Tgr2_ave_G              =   4.2042598551540E+00
(PID.TID 0000.0001) %MON land_Tgr2_ave_S              =  -1.8727233918326E+01
(PID.TID 0000.0001) %MON land_Tgr2_ave_T              =   2.2009990463461E+01
(PID.TID 0000.0001) %MON land_Tgr2_ave_N              =  -2.4704653117179E-01
(PID.TID 0000.0001) %MON land_Tgr2_min_S              =  -6.4752784955538E+01
(PID.TID 0000.0001) %MON land_Tgr2_min_T              =  -9.7039793351040E+00
(PID.TID 0000.0001) %MON land_Tgr2_min_N              =  -4.0198872893888E+01
(PID.TID 0000.0001) %MON land_Tgr2_max_S              =   2.3360211466210E+01
(PID.TID 0000.0001) %MON land_Tgr2_max_T              =   3.1353058963320E+01
(PID.TID 0000.0001) %MON land_Tgr2_max_N              =   2.9823207482370E+01
(PID.TID 0000.0001) %MON land_grdW_ave_G              =   4.8678210769664E-01
(PID.TID 0000.0001) %MON land_grdW_ave_S              =   3.0854830578829E-01
(PID.TID 0000.0001) %MON land_grdW_ave_T              =   5.6424128685069E-01
(PID.TID 0000.0001) %MON land_grdW_ave_N              =   4.9287510523644E-01
(PID.TID 0000.0001) %MON land_grdW_min_S              =   2.7247580010571E-02
(PID.TID 0000.0001) %MON land_grdW_min_T              =   0.0000000000000E+00
(PID.TID 0000.0001) %MON land_grdW_min_N              =   0.0000000000000E+00
(PID.TID 0000.0001) // =======================================================
(PID.TID 0000.0001) // End MONITOR Land statistics
(PID.TID 0000.0001) // =======================================================
(PID.TID 0000.0001) // =======================================================
(PID.TID 0000.0001) // Begin MONITOR Therm.SeaIce statistics
(PID.TID 0000.0001) // =======================================================
(PID.TID 0000.0001) %MON thSI_time_sec                =   9.9000000000000E+03
(PID.TID 0000.0001) %MON thSI_Ice_Area_G              =   1.7113452907742E+11
(PID.TID 0000.0001) %MON thSI_Ice_Area_S              =   0.0000000000000E+00
(PID.TID 0000.0001) %MON thSI_Ice_Area_N              =   1.7113452907742E+11
(PID.TID 0000.0001) %MON thSI_IceH_ave_G              =   1.3828033800798E-01
(PID.TID 0000.0001) %MON thSI_IceH_ave_S              =   0.0000000000000E+00
(PID.TID 0000.0001) %MON thSI_IceH_ave_N              =   1.3828033800798E-01
(PID.TID 0000.0001) %MON thSI_IceH_max_S              =   0.0000000000000E+00
(PID.TID 0000.0001) %MON thSI_IceH_max_N              =   1.4764943237236E-01
(PID.TID 0000.0001) %MON thSI_SnwH_ave_G              =   0.0000000000000E+00
(PID.TID 0000.0001) %MON thSI_SnwH_ave_S              =   0.0000000000000E+00
(PID.TID 0000.0001) %MON thSI_SnwH_ave_N              =   0.0000000000000E+00
(PID.TID 0000.0001) %MON thSI_SnwH_max_S              =   0.0000000000000E+00
(PID.TID 0000.0001) %MON thSI_SnwH_max_N              =   0.0000000000000E+00
(PID.TID 0000.0001) %MON thSI_TotEnerg_G              =  -7.2942623729752E+18
(PID.TID 0000.0001) %MON thSI_Tsrf_ave_G              =  -8.7332519479375E+00
(PID.TID 0000.0001) %MON thSI_Tsrf_ave_S              =   0.0000000000000E+00
(PID.TID 0000.0001) %MON thSI_Tsrf_ave_N              =  -8.7332519479375E+00
(PID.TID 0000.0001) %MON thSI_Tsrf_min_S              =   0.0000000000000E+00
(PID.TID 0000.0001) %MON thSI_Tsrf_min_N              =  -8.8433387311992E+00
(PID.TID 0000.0001) %MON thSI_Tsrf_max_S              =   0.0000000000000E+00
(PID.TID 0000.0001) %MON thSI_Tsrf_max_N              =  -8.5134263312954E+00
(PID.TID 0000.0001) %MON thSI_Tic1_ave_G              =  -6.3430176438976E+00
(PID.TID 0000.0001) %MON thSI_Tic1_ave_S              =   0.0000000000000E+00
(PID.TID 0000.0001) %MON thSI_Tic1_ave_N              =  -6.3430176438976E+00
(PID.TID 0000.0001) %MON thSI_Tic1_min_S              =   0.0000000000000E+00
(PID.TID 0000.0001) %MON thSI_Tic1_min_N              =  -6.3919513901142E+00
(PID.TID 0000.0001) %MON thSI_Tic1_max_S              =   0.0000000000000E+00
(PID.TID 0000.0001) %MON thSI_Tic1_max_N              =  -6.2921837308915E+00
(PID.TID 0000.0001) %MON thSI_Tic2_ave_G              =  -3.0299734282389E+00
(PID.TID 0000.0001) %MON thSI_Tic2_ave_S              =   0.0000000000000E+00
(PID.TID 0000.0001) %MON thSI_Tic2_ave_N              =  -3.0299734282389E+00
(PID.TID 0000.0001) %MON thSI_Tic2_min_S              =   0.0000000000000E+00
(PID.TID 0000.0001) %MON thSI_Tic2_min_N              =  -3.1091475843041E+00
(PID.TID 0000.0001) %MON thSI_Tic2_max_S              =   0.0000000000000E+00
(PID.TID 0000.0001) %MON thSI_Tic2_max_N              =  -2.9565995941832E+00
(PID.TID 0000.0001) // =======================================================
(PID.TID 0000.0001) // End MONITOR Therm.SeaIce statistics
(PID.TID 0000.0001) // =======================================================
 cg2d: Sum(rhs),rhsMax =   5.52972778677940E-10  2.51290676773050E+04
(PID.TID 0000.0001)                    cg2d_init_res =    1.18246973229941E+04
(PID.TID 0000.0001)                       cg2d_iters =    16
(PID.TID 0000.0001)                         cg2d_res =    7.03383133354136E-11
(PID.TID 0000.0001) // =======================================================
(PID.TID 0000.0001) // Begin MONITOR dynamic field statistics
(PID.TID 0000.0001) // =======================================================
(PID.TID 0000.0001) %MON time_tsnumber                =                    23
(PID.TID 0000.0001) %MON time_secondsf                =   1.0350000000000E+04
(PID.TID 0000.0001) %MON dynstat_eta_max              =   4.2192817401477E+03
(PID.TID 0000.0001) %MON dynstat_eta_min              =  -8.9617933713129E+02
(PID.TID 0000.0001) %MON dynstat_eta_mean             =   9.6394546686094E-15
(PID.TID 0000.0001) %MON dynstat_eta_sd               =   5.4336639678326E+02
(PID.TID 0000.0001) %MON dynstat_eta_del2             =   3.6702046522721E+01
(PID.TID 0000.0001) %MON dynstat_uvel_max             =   5.8457108791597E+00
(PID.TID 0000.0001) %MON dynstat_uvel_min             =  -6.1126041698229E+00
(PID.TID 0000.0001) %MON dynstat_uvel_mean            =   1.7317998148313E-03
(PID.TID 0000.0001) %MON dynstat_uvel_sd              =   8.3374389652639E-01
(PID.TID 0000.0001) %MON dynstat_uvel_del2            =   2.3590184712928E-02
(PID.TID 0000.0001) %MON dynstat_vvel_max             =   4.8612671739016E+00
(PID.TID 0000.0001) %MON dynstat_vvel_min             =  -6.0480293520790E+00
(PID.TID 0000.0001) %MON dynstat_vvel_mean            =   2.8410026224784E-02
(PID.TID 0000.0001) %MON dynstat_vvel_sd              =   8.0603684383709E-01
(PID.TID 0000.0001) %MON dynstat_vvel_del2            =   2.2607489145665E-02
(PID.TID 0000.0001) %MON dynstat_wvel_max             =   2.9129224705278E-01
(PID.TID 0000.0001) %MON dynstat_wvel_min             =  -1.3310723183434E-01
(PID.TID 0000.0001) %MON dynstat_wvel_mean            =   3.3764651571010E-04
(PID.TID 0000.0001) %MON dynstat_wvel_sd              =   1.0224192207458E-02
(PID.TID 0000.0001) %MON dynstat_wvel_del2            =   1.6887797203315E-03
(PID.TID 0000.0001) %MON dynstat_theta_max            =   4.3821582843828E+02
(PID.TID 0000.0001) %MON dynstat_theta_min            =   2.8410446121942E+02
(PID.TID 0000.0001) %MON dynstat_theta_mean           =   3.3168943830231E+02
(PID.TID 0000.0001) %MON dynstat_theta_sd             =   4.7449035293166E+01
(PID.TID 0000.0001) %MON dynstat_theta_del2           =   2.3810151398075E-02
(PID.TID 0000.0001) %MON dynstat_salt_max             =   4.3951111907005E+00
(PID.TID 0000.0001) %MON dynstat_salt_min             =  -8.1454554054541E-03
(PID.TID 0000.0001) %MON dynstat_salt_mean            =   8.3750743440580E-02
(PID.TID 0000.0001) %MON dynstat_salt_sd              =   3.3417053305655E-01
(PID.TID 0000.0001) %MON dynstat_salt_del2            =   1.0314473495718E-02
(PID.TID 0000.0001) %MON advcfl_uvel_max              =   8.5287178674625E-03
(PID.TID 0000.0001) %MON advcfl_vvel_max              =   8.6211489809077E-03
(PID.TID 0000.0001) %MON advcfl_wvel_max              =   4.7666004063181E-03
(PID.TID 0000.0001) %MON advcfl_W_hf_max              =   1.6062302542371E-02
(PID.TID 0000.0001) %MON pe_b_mean                    =  -1.1919888569481E+00
(PID.TID 0000.0001) %MON ke_max                       =   1.8082086388714E+01
(PID.TID 0000.0001) %MON ke_mean                      =   6.6882938783786E-01
(PID.TID 0000.0001) %MON ke_vol                       =   4.9523908919847E+19
(PID.TID 0000.0001) %MON vort_r_min                   =  -2.2443012073153E-05
(PID.TID 0000.0001) %MON vort_r_max                   =   8.2057073276144E-06
(PID.TID 0000.0001) %MON vort_a_mean                  =   6.7059142262065E-08
(PID.TID 0000.0001) %MON vort_a_sd                    =   8.3756989918454E-05
(PID.TID 0000.0001) %MON vort_p_mean                  =   6.8751158816531E-08
(PID.TID 0000.0001) %MON vort_p_sd                    =   9.1590795300634E-05
(PID.TID 0000.0001) %MON surfExpan_theta_mean         =  -3.5985592494321E-02
(PID.TID 0000.0001) %MON surfExpan_salt_mean          =  -7.7876432236319E-04
(PID.TID 0000.0001) %MON surfExpan_Heat_mean          =   2.6505720217473E+00
(PID.TID 0000.0001) %MON En_Budget_T2PE_mean          =  -5.2894490045284E+00
(PID.TID 0000.0001) // =======================================================
(PID.TID 0000.0001) // End MONITOR dynamic field statistics
(PID.TID 0000.0001) // =======================================================
(PID.TID 0000.0001) // =======================================================
(PID.TID 0000.0001) // Begin MONITOR Land statistics
(PID.TID 0000.0001) // =======================================================
(PID.TID 0000.0001) %MON land_time_sec                =   1.0350000000000E+04
(PID.TID 0000.0001) %MON land_SnwH_ave_G              =   1.5322557593019E-01
(PID.TID 0000.0001) %MON land_SnwH_ave_S              =   5.5904294898818E-01
(PID.TID 0000.0001) %MON land_SnwH_ave_T              =   0.0000000000000E+00
(PID.TID 0000.0001) %MON land_SnwH_ave_N              =   1.2390042611348E-01
(PID.TID 0000.0001) %MON land_SnwH_max_S              =   9.9998753169060E-01
(PID.TID 0000.0001) %MON land_SnwH_max_T              =   0.0000000000000E+00
(PID.TID 0000.0001) %MON land_SnwH_max_N              =   9.9999846689171E-01
(PID.TID 0000.0001) %MON land_TotEnerg_G              =  -6.3486148512312E+21
(PID.TID 0000.0001) %MON land_TotEnerg_S              =  -5.0020889282932E+21
(PID.TID 0000.0001) %MON land_TotEnerg_T              =   7.2792028797227E+21
(PID.TID 0000.0001) %MON land_TotEnerg_N              =  -8.6257288026607E+21
(PID.TID 0000.0001) %MON land_Tsrf_ave_G              =  -8.3224987142547E+00
(PID.TID 0000.0001) %MON land_Tsrf_ave_S              =  -7.3449003542716E+00
(PID.TID 0000.0001) %MON land_Tsrf_ave_T              =   1.0462660574025E+01
(PID.TID 0000.0001) %MON land_Tsrf_ave_N              =  -2.1183802576263E+01
(PID.TID 0000.0001) %MON land_Tsrf_min_S              =  -3.3761452266064E+01
(PID.TID 0000.0001) %MON land_Tsrf_min_T              =  -3.8249836085062E+00
(PID.TID 0000.0001) %MON land_Tsrf_min_N              =  -5.2056855887173E+01
(PID.TID 0000.0001) %MON land_Tsrf_max_S              =   2.0587282228350E+01
(PID.TID 0000.0001) %MON land_Tsrf_max_T              =   2.0924375533639E+01
(PID.TID 0000.0001) %MON land_Tsrf_max_N              =   8.7368386823446E+00
(PID.TID 0000.0001) %MON land_Tgr1_ave_G              =  -7.0845166718647E+00
(PID.TID 0000.0001) %MON land_Tgr1_ave_S              =  -7.1115955743390E+00
(PID.TID 0000.0001) %MON land_Tgr1_ave_T              =   1.0462660574025E+01
(PID.TID 0000.0001) %MON land_Tgr1_ave_N              =  -1.8793221352047E+01
(PID.TID 0000.0001) %MON land_Tgr1_min_S              =  -3.9252312120246E+01
(PID.TID 0000.0001) %MON land_Tgr1_min_T              =  -3.8249836085062E+00
(PID.TID 0000.0001) %MON land_Tgr1_min_N              =  -5.4719755631501E+01
(PID.TID 0000.0001) %MON land_Tgr1_max_S              =   2.0587282228350E+01
(PID.TID 0000.0001) %MON land_Tgr1_max_T              =   2.0924375533639E+01
(PID.TID 0000.0001) %MON land_Tgr1_max_N              =   8.7368386823446E+00
(PID.TID 0000.0001) %MON land_Tgr2_ave_G              =   4.2040867306281E+00
(PID.TID 0000.0001) %MON land_Tgr2_ave_S              =  -1.8727039275513E+01
(PID.TID 0000.0001) %MON land_Tgr2_ave_T              =   2.2009803445975E+01
(PID.TID 0000.0001) %MON land_Tgr2_ave_N              =  -2.4732967987146E-01
(PID.TID 0000.0001) %MON land_Tgr2_min_S              =  -6.4752355078113E+01
(PID.TID 0000.0001) %MON land_Tgr2_min_T              =  -9.7039050533958E+00
(PID.TID 0000.0001) %MON land_Tgr2_min_N              =  -4.0199108889158E+01
(PID.TID 0000.0001) %MON land_Tgr2_max_S              =   2.3360151708577E+01
(PID.TID 0000.0001) %MON land_Tgr2_max_T              =   3.1352634383692E+01
(PID.TID 0000.0001) %MON land_Tgr2_max_N              =   2.9822691048859E+01
(PID.TID 0000.0001) %MON land_grdW_ave_G              =   4.8677405052033E-01
(PID.TID 0000.0001) %MON land_grdW_ave_S              =   3.0854039012249E-01
(PID.TID 0000.0001) %MON land_grdW_ave_T              =   5.6422154011785E-01
(PID.TID 0000.0001) %MON land_grdW_ave_N              =   4.9287480809706E-01
(PID.TID 0000.0001) %MON land_grdW_min_S              =   2.7334301098922E-02
(PID.TID 0000.0001) %MON land_grdW_min_T              =   0.0000000000000E+00
(PID.TID 0000.0001) %MON land_grdW_min_N              =   0.0000000000000E+00
(PID.TID 0000.0001) // =======================================================
(PID.TID 0000.0001) // End MONITOR Land statistics
(PID.TID 0000.0001) // =======================================================
(PID.TID 0000.0001) // =======================================================
(PID.TID 0000.0001) // Begin MONITOR Therm.SeaIce statistics
(PID.TID 0000.0001) // =======================================================
(PID.TID 0000.0001) %MON thSI_time_sec                =   1.0350000000000E+04
(PID.TID 0000.0001) %MON thSI_Ice_Area_G              =   1.7207635884650E+11
(PID.TID 0000.0001) %MON thSI_Ice_Area_S              =   0.0000000000000E+00
(PID.TID 0000.0001) %MON thSI_Ice_Area_N              =   1.7207635884650E+11
(PID.TID 0000.0001) %MON thSI_IceH_ave_G              =   1.3867296014918E-01
(PID.TID 0000.0001) %MON thSI_IceH_ave_S              =   0.0000000000000E+00
(PID.TID 0000.0001) %MON thSI_IceH_ave_N              =   1.3867296014918E-01
(PID.TID 0000.0001) %MON thSI_IceH_max_S              =   0.0000000000000E+00
(PID.TID 0000.0001) %MON thSI_IceH_max_N              =   1.4803434379224E-01
(PID.TID 0000.0001) %MON thSI_SnwH_ave_G              =   0.0000000000000E+00
(PID.TID 0000.0001) %MON thSI_SnwH_ave_S              =   0.0000000000000E+00
(PID.TID 0000.0001) %MON thSI_SnwH_ave_N              =   0.0000000000000E+00
(PID.TID 0000.0001) %MON thSI_SnwH_max_S              =   0.0000000000000E+00
(PID.TID 0000.0001) %MON thSI_SnwH_max_N              =   0.0000000000000E+00
(PID.TID 0000.0001) %MON thSI_TotEnerg_G              =  -7.3592497568851E+18
(PID.TID 0000.0001) %MON thSI_Tsrf_ave_G              =  -8.8229600146505E+00
(PID.TID 0000.0001) %MON thSI_Tsrf_ave_S              =   0.0000000000000E+00
(PID.TID 0000.0001) %MON thSI_Tsrf_ave_N              =  -8.8229600146505E+00
(PID.TID 0000.0001) %MON thSI_Tsrf_min_S              =   0.0000000000000E+00
(PID.TID 0000.0001) %MON thSI_Tsrf_min_N              =  -8.9386428146625E+00
(PID.TID 0000.0001) %MON thSI_Tsrf_max_S              =   0.0000000000000E+00
(PID.TID 0000.0001) %MON thSI_Tsrf_max_N              =  -8.5935322423591E+00
(PID.TID 0000.0001) %MON thSI_Tic1_ave_G              =  -6.4516436909721E+00
(PID.TID 0000.0001) %MON thSI_Tic1_ave_S              =   0.0000000000000E+00
(PID.TID 0000.0001) %MON thSI_Tic1_ave_N              =  -6.4516436909721E+00
(PID.TID 0000.0001) %MON thSI_Tic1_min_S              =   0.0000000000000E+00
(PID.TID 0000.0001) %MON thSI_Tic1_min_N              =  -6.4922495640737E+00
(PID.TID 0000.0001) %MON thSI_Tic1_max_S              =   0.0000000000000E+00
(PID.TID 0000.0001) %MON thSI_Tic1_max_N              =  -6.4009366797771E+00
(PID.TID 0000.0001) %MON thSI_Tic2_ave_G              =  -3.0769377514412E+00
(PID.TID 0000.0001) %MON thSI_Tic2_ave_S              =   0.0000000000000E+00
(PID.TID 0000.0001) %MON thSI_Tic2_ave_N              =  -3.0769377514412E+00
(PID.TID 0000.0001) %MON thSI_Tic2_min_S              =   0.0000000000000E+00
(PID.TID 0000.0001) %MON thSI_Tic2_min_N              =  -3.1513832175122E+00
(PID.TID 0000.0001) %MON thSI_Tic2_max_S              =   0.0000000000000E+00
(PID.TID 0000.0001) %MON thSI_Tic2_max_N              =  -3.0072349794057E+00
(PID.TID 0000.0001) // =======================================================
(PID.TID 0000.0001) // End MONITOR Therm.SeaIce statistics
(PID.TID 0000.0001) // =======================================================
 cg2d: Sum(rhs),rhsMax =   9.89530235528946E-10  2.42356779140598E+04
(PID.TID 0000.0001)                    cg2d_init_res =    1.17062834450324E+04
(PID.TID 0000.0001)                       cg2d_iters =    16
(PID.TID 0000.0001)                         cg2d_res =    6.99137950020189E-11
(PID.TID 0000.0001) // =======================================================
(PID.TID 0000.0001) // Begin MONITOR dynamic field statistics
(PID.TID 0000.0001) // =======================================================
(PID.TID 0000.0001) %MON time_tsnumber                =                    24
(PID.TID 0000.0001) %MON time_secondsf                =   1.0800000000000E+04
(PID.TID 0000.0001) %MON dynstat_eta_max              =   4.0640218890634E+03
(PID.TID 0000.0001) %MON dynstat_eta_min              =  -8.5849435101997E+02
(PID.TID 0000.0001) %MON dynstat_eta_mean             =   4.9803849121148E-14
(PID.TID 0000.0001) %MON dynstat_eta_sd               =   5.3451045230404E+02
(PID.TID 0000.0001) %MON dynstat_eta_del2             =   3.6614001551367E+01
(PID.TID 0000.0001) %MON dynstat_uvel_max             =   5.7750885373528E+00
(PID.TID 0000.0001) %MON dynstat_uvel_min             =  -6.0987912232179E+00
(PID.TID 0000.0001) %MON dynstat_uvel_mean            =   5.5284400001527E-03
(PID.TID 0000.0001) %MON dynstat_uvel_sd              =   8.3335938319540E-01
(PID.TID 0000.0001) %MON dynstat_uvel_del2            =   2.4083254706275E-02
(PID.TID 0000.0001) %MON dynstat_vvel_max             =   4.9640734730022E+00
(PID.TID 0000.0001) %MON dynstat_vvel_min             =  -6.1519776715734E+00
(PID.TID 0000.0001) %MON dynstat_vvel_mean            =   2.8109727720232E-02
(PID.TID 0000.0001) %MON dynstat_vvel_sd              =   8.0931505050988E-01
(PID.TID 0000.0001) %MON dynstat_vvel_del2            =   2.3062032155664E-02
(PID.TID 0000.0001) %MON dynstat_wvel_max             =   2.7941111222346E-01
(PID.TID 0000.0001) %MON dynstat_wvel_min             =  -1.3830981223781E-01
(PID.TID 0000.0001) %MON dynstat_wvel_mean            =   4.2471301672026E-04
(PID.TID 0000.0001) %MON dynstat_wvel_sd              =   1.0443186414186E-02
(PID.TID 0000.0001) %MON dynstat_wvel_del2            =   1.7470355820660E-03
(PID.TID 0000.0001) %MON dynstat_theta_max            =   4.3813599027005E+02
(PID.TID 0000.0001) %MON dynstat_theta_min            =   2.8388199079770E+02
(PID.TID 0000.0001) %MON dynstat_theta_mean           =   3.3168745326538E+02
(PID.TID 0000.0001) %MON dynstat_theta_sd             =   4.7451059375549E+01
(PID.TID 0000.0001) %MON dynstat_theta_del2           =   2.4685443579072E-02
(PID.TID 0000.0001) %MON dynstat_salt_max             =   4.4540972856357E+00
(PID.TID 0000.0001) %MON dynstat_salt_min             =  -9.9548192656686E-03
(PID.TID 0000.0001) %MON dynstat_salt_mean            =   8.7146476486003E-02
(PID.TID 0000.0001) %MON dynstat_salt_sd              =   3.4633413740515E-01
(PID.TID 0000.0001) %MON dynstat_salt_del2            =   1.0640426296547E-02
(PID.TID 0000.0001) %MON advcfl_uvel_max              =   8.5094451121459E-03
(PID.TID 0000.0001) %MON advcfl_vvel_max              =   8.7693218644220E-03
(PID.TID 0000.0001) %MON advcfl_wvel_max              =   4.5721818363840E-03
(PID.TID 0000.0001) %MON advcfl_W_hf_max              =   1.6534225850626E-02
(PID.TID 0000.0001) %MON pe_b_mean                    =  -1.2023172633365E+00
(PID.TID 0000.0001) %MON ke_max                       =   1.8631716624289E+01
(PID.TID 0000.0001) %MON ke_mean                      =   6.7114612826291E-01
(PID.TID 0000.0001) %MON ke_vol                       =   4.9523908919847E+19
(PID.TID 0000.0001) %MON vort_r_min                   =  -2.2678632909919E-05
(PID.TID 0000.0001) %MON vort_r_max                   =   8.6825407358033E-06
(PID.TID 0000.0001) %MON vort_a_mean                  =   6.7059142262103E-08
(PID.TID 0000.0001) %MON vort_a_sd                    =   8.3759602906379E-05
(PID.TID 0000.0001) %MON vort_p_mean                  =   6.8751159677143E-08
(PID.TID 0000.0001) %MON vort_p_sd                    =   9.1572829893137E-05
(PID.TID 0000.0001) %MON surfExpan_theta_mean         =  -4.4230626894188E-02
(PID.TID 0000.0001) %MON surfExpan_salt_mean          =  -8.7127674237943E-04
(PID.TID 0000.0001) %MON surfExpan_Heat_mean          =   3.3512392763041E+00
(PID.TID 0000.0001) %MON En_Budget_T2PE_mean          =  -6.6000987981026E+00
(PID.TID 0000.0001) // =======================================================
(PID.TID 0000.0001) // End MONITOR dynamic field statistics
(PID.TID 0000.0001) // =======================================================
(PID.TID 0000.0001) // =======================================================
(PID.TID 0000.0001) // Begin MONITOR Land statistics
(PID.TID 0000.0001) // =======================================================
(PID.TID 0000.0001) %MON land_time_sec                =   1.0800000000000E+04
(PID.TID 0000.0001) %MON land_SnwH_ave_G              =   1.5322461742793E-01
(PID.TID 0000.0001) %MON land_SnwH_ave_S              =   5.5904207280010E-01
(PID.TID 0000.0001) %MON land_SnwH_ave_T              =   0.0000000000000E+00
(PID.TID 0000.0001) %MON land_SnwH_ave_N              =   1.2389880084940E-01
(PID.TID 0000.0001) %MON land_SnwH_max_S              =   9.9998697314107E-01
(PID.TID 0000.0001) %MON land_SnwH_max_T              =   0.0000000000000E+00
(PID.TID 0000.0001) %MON land_SnwH_max_N              =   9.9999840340618E-01
(PID.TID 0000.0001) %MON land_TotEnerg_G              =  -6.3501659836009E+21
(PID.TID 0000.0001) %MON land_TotEnerg_S              =  -5.0021702315128E+21
(PID.TID 0000.0001) %MON land_TotEnerg_T              =   7.2783494257610E+21
(PID.TID 0000.0001) %MON land_TotEnerg_N              =  -8.6263451778491E+21
(PID.TID 0000.0001) %MON land_Tsrf_ave_G              =  -8.3647468656043E+00
(PID.TID 0000.0001) %MON land_Tsrf_ave_S              =  -7.3463154189829E+00
(PID.TID 0000.0001) %MON land_Tsrf_ave_T              =   1.0366220723308E+01
(PID.TID 0000.0001) %MON land_Tsrf_ave_N              =  -2.1203109109031E+01
(PID.TID 0000.0001) %MON land_Tsrf_min_S              =  -3.3754236179317E+01
(PID.TID 0000.0001) %MON land_Tsrf_min_T              =  -3.7037609698382E+00
(PID.TID 0000.0001) %MON land_Tsrf_min_N              =  -5.2055419401310E+01
(PID.TID 0000.0001) %MON land_Tsrf_max_S              =   2.0483537630310E+01
(PID.TID 0000.0001) %MON land_Tsrf_max_T              =   2.0754972390742E+01
(PID.TID 0000.0001) %MON land_Tsrf_max_N              =   8.6039326351990E+00
(PID.TID 0000.0001) %MON land_Tgr1_ave_G              =  -7.1345204833828E+00
(PID.TID 0000.0001) %MON land_Tgr1_ave_S              =  -7.1415126289776E+00
(PID.TID 0000.0001) %MON land_Tgr1_ave_T              =   1.0366220723308E+01
(PID.TID 0000.0001) %MON land_Tgr1_ave_N              =  -1.8818732563791E+01
(PID.TID 0000.0001) %MON land_Tgr1_min_S              =  -3.9263352350479E+01
(PID.TID 0000.0001) %MON land_Tgr1_min_T              =  -3.7037609698382E+00
(PID.TID 0000.0001) %MON land_Tgr1_min_N              =  -5.4707257361498E+01
(PID.TID 0000.0001) %MON land_Tgr1_max_S              =   2.0483537630310E+01
(PID.TID 0000.0001) %MON land_Tgr1_max_T              =   2.0754972390742E+01
(PID.TID 0000.0001) %MON land_Tgr1_max_N              =   8.6039326351990E+00
(PID.TID 0000.0001) %MON land_Tgr2_ave_G              =   4.2039128683125E+00
(PID.TID 0000.0001) %MON land_Tgr2_ave_S              =  -1.8726845109411E+01
(PID.TID 0000.0001) %MON land_Tgr2_ave_T              =   2.2009615052652E+01
(PID.TID 0000.0001) %MON land_Tgr2_ave_N              =  -2.4761322498363E-01
(PID.TID 0000.0001) %MON land_Tgr2_min_S              =  -6.4751925409619E+01
(PID.TID 0000.0001) %MON land_Tgr2_min_T              =  -9.7038292412080E+00
(PID.TID 0000.0001) %MON land_Tgr2_min_N              =  -4.0199344648104E+01
(PID.TID 0000.0001) %MON land_Tgr2_max_S              =   2.3360089830300E+01
(PID.TID 0000.0001) %MON land_Tgr2_max_T              =   3.1352206840332E+01
(PID.TID 0000.0001) %MON land_Tgr2_max_N              =   2.9822169397919E+01
(PID.TID 0000.0001) %MON land_grdW_ave_G              =   4.8676612775158E-01
(PID.TID 0000.0001) %MON land_grdW_ave_S              =   3.0853255949579E-01
(PID.TID 0000.0001) %MON land_grdW_ave_T              =   5.6420215009252E-01
(PID.TID 0000.0001) %MON land_grdW_ave_N              =   4.9287451293470E-01
(PID.TID 0000.0001) %MON land_grdW_min_S              =   2.7421235401525E-02
(PID.TID 0000.0001) %MON land_grdW_min_T              =   0.0000000000000E+00
(PID.TID 0000.0001) %MON land_grdW_min_N              =   0.0000000000000E+00
(PID.TID 0000.0001) // =======================================================
(PID.TID 0000.0001) // End MONITOR Land statistics
(PID.TID 0000.0001) // =======================================================
(PID.TID 0000.0001) // =======================================================
(PID.TID 0000.0001) // Begin MONITOR Therm.SeaIce statistics
(PID.TID 0000.0001) // =======================================================
(PID.TID 0000.0001) %MON thSI_time_sec                =   1.0800000000000E+04
(PID.TID 0000.0001) %MON thSI_Ice_Area_G              =   1.7301286637706E+11
(PID.TID 0000.0001) %MON thSI_Ice_Area_S              =   0.0000000000000E+00
(PID.TID 0000.0001) %MON thSI_Ice_Area_N              =   1.7301286637706E+11
(PID.TID 0000.0001) %MON thSI_IceH_ave_G              =   1.3906929440569E-01
(PID.TID 0000.0001) %MON thSI_IceH_ave_S              =   0.0000000000000E+00
(PID.TID 0000.0001) %MON thSI_IceH_ave_N              =   1.3906929440569E-01
(PID.TID 0000.0001) %MON thSI_IceH_max_S              =   0.0000000000000E+00
(PID.TID 0000.0001) %MON thSI_IceH_max_N              =   1.4842280951386E-01
(PID.TID 0000.0001) %MON thSI_SnwH_ave_G              =   0.0000000000000E+00
(PID.TID 0000.0001) %MON thSI_SnwH_ave_S              =   0.0000000000000E+00
(PID.TID 0000.0001) %MON thSI_SnwH_ave_N              =   0.0000000000000E+00
(PID.TID 0000.0001) %MON thSI_SnwH_max_S              =   0.0000000000000E+00
(PID.TID 0000.0001) %MON thSI_SnwH_max_N              =   0.0000000000000E+00
(PID.TID 0000.0001) %MON thSI_TotEnerg_G              =  -7.4241869978380E+18
(PID.TID 0000.0001) %MON thSI_Tsrf_ave_G              =  -8.9058208170808E+00
(PID.TID 0000.0001) %MON thSI_Tsrf_ave_S              =   0.0000000000000E+00
(PID.TID 0000.0001) %MON thSI_Tsrf_ave_N              =  -8.9058208170808E+00
(PID.TID 0000.0001) %MON thSI_Tsrf_min_S              =   0.0000000000000E+00
(PID.TID 0000.0001) %MON thSI_Tsrf_min_N              =  -9.0274394565879E+00
(PID.TID 0000.0001) %MON thSI_Tsrf_max_S              =   0.0000000000000E+00
(PID.TID 0000.0001) %MON thSI_Tsrf_max_N              =  -8.6660540614082E+00
(PID.TID 0000.0001) %MON thSI_Tic1_ave_G              =  -6.5523283385505E+00
(PID.TID 0000.0001) %MON thSI_Tic1_ave_S              =   0.0000000000000E+00
(PID.TID 0000.0001) %MON thSI_Tic1_ave_N              =  -6.5523283385505E+00
(PID.TID 0000.0001) %MON thSI_Tic1_min_S              =   0.0000000000000E+00
(PID.TID 0000.0001) %MON thSI_Tic1_min_N              =  -6.5943154179765E+00
(PID.TID 0000.0001) %MON thSI_Tic1_max_S              =   0.0000000000000E+00
(PID.TID 0000.0001) %MON thSI_Tic1_max_N              =  -6.5014372767169E+00
(PID.TID 0000.0001) %MON thSI_Tic2_ave_G              =  -3.1203305582115E+00
(PID.TID 0000.0001) %MON thSI_Tic2_ave_S              =   0.0000000000000E+00
(PID.TID 0000.0001) %MON thSI_Tic2_ave_N              =  -3.1203305582115E+00
(PID.TID 0000.0001) %MON thSI_Tic2_min_S              =   0.0000000000000E+00
(PID.TID 0000.0001) %MON thSI_Tic2_min_N              =  -3.1900301192251E+00
(PID.TID 0000.0001) %MON thSI_Tic2_max_S              =   0.0000000000000E+00
(PID.TID 0000.0001) %MON thSI_Tic2_max_N              =  -3.0543953421049E+00
(PID.TID 0000.0001) // =======================================================
(PID.TID 0000.0001) // End MONITOR Therm.SeaIce statistics
(PID.TID 0000.0001) // =======================================================
 cg2d: Sum(rhs),rhsMax =   1.62981450557709E-09  2.32859665470572E+04
(PID.TID 0000.0001)                    cg2d_init_res =    1.15928212475679E+04
(PID.TID 0000.0001)                       cg2d_iters =    16
(PID.TID 0000.0001)                         cg2d_res =    6.91494449346652E-11
(PID.TID 0000.0001) // =======================================================
(PID.TID 0000.0001) // Begin MONITOR dynamic field statistics
(PID.TID 0000.0001) // =======================================================
(PID.TID 0000.0001) %MON time_tsnumber                =                    25
(PID.TID 0000.0001) %MON time_secondsf                =   1.1250000000000E+04
(PID.TID 0000.0001) %MON dynstat_eta_max              =   3.9063772037127E+03
(PID.TID 0000.0001) %MON dynstat_eta_min              =  -8.2199549090607E+02
(PID.TID 0000.0001) %MON dynstat_eta_mean             =  -9.6394546686094E-15
(PID.TID 0000.0001) %MON dynstat_eta_sd               =   5.2466862031047E+02
(PID.TID 0000.0001) %MON dynstat_eta_del2             =   3.6526795431532E+01
(PID.TID 0000.0001) %MON dynstat_uvel_max             =   5.6844380977319E+00
(PID.TID 0000.0001) %MON dynstat_uvel_min             =  -5.9715126873076E+00
(PID.TID 0000.0001) %MON dynstat_uvel_mean            =   9.9140919488216E-03
(PID.TID 0000.0001) %MON dynstat_uvel_sd              =   8.3098283235129E-01
(PID.TID 0000.0001) %MON dynstat_uvel_del2            =   2.4565174359680E-02
(PID.TID 0000.0001) %MON dynstat_vvel_max             =   5.0656635475613E+00
(PID.TID 0000.0001) %MON dynstat_vvel_min             =  -6.1821818421347E+00
(PID.TID 0000.0001) %MON dynstat_vvel_mean            =   2.7590199857433E-02
(PID.TID 0000.0001) %MON dynstat_vvel_sd              =   8.1266949457811E-01
(PID.TID 0000.0001) %MON dynstat_vvel_del2            =   2.3612595014821E-02
(PID.TID 0000.0001) %MON dynstat_wvel_max             =   2.5848540279371E-01
(PID.TID 0000.0001) %MON dynstat_wvel_min             =  -1.4007579186796E-01
(PID.TID 0000.0001) %MON dynstat_wvel_mean            =   4.9230736021072E-04
(PID.TID 0000.0001) %MON dynstat_wvel_sd              =   1.0571482091305E-02
(PID.TID 0000.0001) %MON dynstat_wvel_del2            =   1.8050216183268E-03
(PID.TID 0000.0001) %MON dynstat_theta_max            =   4.3803682169578E+02
(PID.TID 0000.0001) %MON dynstat_theta_min            =   2.8366087090473E+02
(PID.TID 0000.0001) %MON dynstat_theta_mean           =   3.3168542657857E+02
(PID.TID 0000.0001) %MON dynstat_theta_sd             =   4.7453093460874E+01
(PID.TID 0000.0001) %MON dynstat_theta_del2           =   2.5570379165399E-02
(PID.TID 0000.0001) %MON dynstat_salt_max             =   4.5095341815765E+00
(PID.TID 0000.0001) %MON dynstat_salt_min             =  -1.1828175892342E-02
(PID.TID 0000.0001) %MON dynstat_salt_mean            =   9.0528703951835E-02
(PID.TID 0000.0001) %MON dynstat_salt_sd              =   3.5837467642237E-01
(PID.TID 0000.0001) %MON dynstat_salt_del2            =   1.0966542258860E-02
(PID.TID 0000.0001) %MON advcfl_uvel_max              =   8.3318575090221E-03
(PID.TID 0000.0001) %MON advcfl_vvel_max              =   8.8123763271394E-03
(PID.TID 0000.0001) %MON advcfl_wvel_max              =   4.2297611366244E-03
(PID.TID 0000.0001) %MON advcfl_W_hf_max              =   1.6908741545951E-02
(PID.TID 0000.0001) %MON pe_b_mean                    =  -1.2108916477578E+00
(PID.TID 0000.0001) %MON ke_max                       =   1.8785892472185E+01
(PID.TID 0000.0001) %MON ke_mean                      =   6.7190147869399E-01
(PID.TID 0000.0001) %MON ke_vol                       =   4.9523908919847E+19
(PID.TID 0000.0001) %MON vort_r_min                   =  -2.2509098869239E-05
(PID.TID 0000.0001) %MON vort_r_max                   =   9.1613863132273E-06
(PID.TID 0000.0001) %MON vort_a_mean                  =   6.7059142261939E-08
(PID.TID 0000.0001) %MON vort_a_sd                    =   8.3762172833714E-05
(PID.TID 0000.0001) %MON vort_p_mean                  =   6.8751160655692E-08
(PID.TID 0000.0001) %MON vort_p_sd                    =   9.1554087701418E-05
(PID.TID 0000.0001) %MON surfExpan_theta_mean         =  -5.0536378731299E-02
(PID.TID 0000.0001) %MON surfExpan_salt_mean          =  -9.6769909872029E-04
(PID.TID 0000.0001) %MON surfExpan_Heat_mean          =   3.8916682130771E+00
(PID.TID 0000.0001) %MON En_Budget_T2PE_mean          =  -7.6085277403406E+00
(PID.TID 0000.0001) // =======================================================
(PID.TID 0000.0001) // End MONITOR dynamic field statistics
(PID.TID 0000.0001) // =======================================================
(PID.TID 0000.0001) // =======================================================
(PID.TID 0000.0001) // Begin MONITOR Land statistics
(PID.TID 0000.0001) // =======================================================
(PID.TID 0000.0001) %MON land_time_sec                =   1.1250000000000E+04
(PID.TID 0000.0001) %MON land_SnwH_ave_G              =   1.5322366070531E-01
(PID.TID 0000.0001) %MON land_SnwH_ave_S              =   5.5904119520190E-01
(PID.TID 0000.0001) %MON land_SnwH_ave_T              =   0.0000000000000E+00
(PID.TID 0000.0001) %MON land_SnwH_ave_N              =   1.2389717958807E-01
(PID.TID 0000.0001) %MON land_SnwH_max_S              =   9.9998641490352E-01
(PID.TID 0000.0001) %MON land_SnwH_max_T              =   0.0000000000000E+00
(PID.TID 0000.0001) %MON land_SnwH_max_N              =   9.9999833987727E-01
(PID.TID 0000.0001) %MON land_TotEnerg_G              =  -6.3516232825211E+21
(PID.TID 0000.0001) %MON land_TotEnerg_S              =  -5.0022390066266E+21
(PID.TID 0000.0001) %MON land_TotEnerg_T              =   7.2775653753885E+21
(PID.TID 0000.0001) %MON land_TotEnerg_N              =  -8.6269496512830E+21
(PID.TID 0000.0001) %MON land_Tsrf_ave_G              =  -8.4035085480455E+00
(PID.TID 0000.0001) %MON land_Tsrf_ave_S              =  -7.3481487172704E+00
(PID.TID 0000.0001) %MON land_Tsrf_ave_T              =   1.0278019576114E+01
(PID.TID 0000.0001) %MON land_Tsrf_ave_N              =  -2.1220835913712E+01
(PID.TID 0000.0001) %MON land_Tsrf_min_S              =  -3.3743548571442E+01
(PID.TID 0000.0001) %MON land_Tsrf_min_T              =  -3.5862364535363E+00
(PID.TID 0000.0001) %MON land_Tsrf_min_N              =  -5.2052440079774E+01
(PID.TID 0000.0001) %MON land_Tsrf_max_S              =   2.0392524715414E+01
(PID.TID 0000.0001) %MON land_Tsrf_max_T              =   2.0603114733344E+01
(PID.TID 0000.0001) %MON land_Tsrf_max_N              =   8.4789482312828E+00
(PID.TID 0000.0001) %MON land_Tgr1_ave_G              =  -7.1803978237362E+00
(PID.TID 0000.0001) %MON land_Tgr1_ave_S              =  -7.1678053477543E+00
(PID.TID 0000.0001) %MON land_Tgr1_ave_T              =   1.0278019576114E+01
(PID.TID 0000.0001) %MON land_Tgr1_ave_N              =  -1.8842700442566E+01
(PID.TID 0000.0001) %MON land_Tgr1_min_S              =  -3.9274350116099E+01
(PID.TID 0000.0001) %MON land_Tgr1_min_T              =  -3.5862364535363E+00
(PID.TID 0000.0001) %MON land_Tgr1_min_N              =  -5.4694776835279E+01
(PID.TID 0000.0001) %MON land_Tgr1_max_S              =   2.0392524715414E+01
(PID.TID 0000.0001) %MON land_Tgr1_max_T              =   2.0603114733344E+01
(PID.TID 0000.0001) %MON land_Tgr1_max_N              =   8.4789482312828E+00
(PID.TID 0000.0001) %MON land_Tgr2_ave_G              =   4.2037383190244E+00
(PID.TID 0000.0001) %MON land_Tgr2_ave_S              =  -1.8726651362671E+01
(PID.TID 0000.0001) %MON land_Tgr2_ave_T              =   2.2009425371233E+01
(PID.TID 0000.0001) %MON land_Tgr2_ave_N              =  -2.4789714246721E-01
(PID.TID 0000.0001) %MON land_Tgr2_min_S              =  -6.4751495949545E+01
(PID.TID 0000.0001) %MON land_Tgr2_min_T              =  -9.7037519452977E+00
(PID.TID 0000.0001) %MON land_Tgr2_min_N              =  -4.0199580171225E+01
(PID.TID 0000.0001) %MON land_Tgr2_max_S              =   2.3360026045744E+01
(PID.TID 0000.0001) %MON land_Tgr2_max_T              =   3.1351776516830E+01
(PID.TID 0000.0001) %MON land_Tgr2_max_N              =   2.9821642727110E+01
(PID.TID 0000.0001) %MON land_grdW_ave_G              =   4.8675832585892E-01
(PID.TID 0000.0001) %MON land_grdW_ave_S              =   3.0852480660866E-01
(PID.TID 0000.0001) %MON land_grdW_ave_T              =   5.6418308037512E-01
(PID.TID 0000.0001) %MON land_grdW_ave_N              =   4.9287421946691E-01
(PID.TID 0000.0001) %MON land_grdW_min_S              =   2.7508270785319E-02
(PID.TID 0000.0001) %MON land_grdW_min_T              =   0.0000000000000E+00
(PID.TID 0000.0001) %MON land_grdW_min_N              =   0.0000000000000E+00
(PID.TID 0000.0001) // =======================================================
(PID.TID 0000.0001) // End MONITOR Land statistics
(PID.TID 0000.0001) // =======================================================
(PID.TID 0000.0001) // =======================================================
(PID.TID 0000.0001) // Begin MONITOR Therm.SeaIce statistics
(PID.TID 0000.0001) // =======================================================
(PID.TID 0000.0001) %MON thSI_time_sec                =   1.1250000000000E+04
(PID.TID 0000.0001) %MON thSI_Ice_Area_G              =   1.7301286637706E+11
(PID.TID 0000.0001) %MON thSI_Ice_Area_S              =   0.0000000000000E+00
(PID.TID 0000.0001) %MON thSI_Ice_Area_N              =   1.7301286637706E+11
(PID.TID 0000.0001) %MON thSI_IceH_ave_G              =   1.3919388112580E-01
(PID.TID 0000.0001) %MON thSI_IceH_ave_S              =   0.0000000000000E+00
(PID.TID 0000.0001) %MON thSI_IceH_ave_N              =   1.3919388112580E-01
(PID.TID 0000.0001) %MON thSI_IceH_max_S              =   0.0000000000000E+00
(PID.TID 0000.0001) %MON thSI_IceH_max_N              =   1.4853497593512E-01
(PID.TID 0000.0001) %MON thSI_SnwH_ave_G              =   0.0000000000000E+00
(PID.TID 0000.0001) %MON thSI_SnwH_ave_S              =   0.0000000000000E+00
(PID.TID 0000.0001) %MON thSI_SnwH_ave_N              =   0.0000000000000E+00
(PID.TID 0000.0001) %MON thSI_SnwH_max_S              =   0.0000000000000E+00
(PID.TID 0000.0001) %MON thSI_SnwH_max_N              =   0.0000000000000E+00
(PID.TID 0000.0001) %MON thSI_TotEnerg_G              =  -7.4345366808823E+18
(PID.TID 0000.0001) %MON thSI_Tsrf_ave_G              =  -8.9824659914216E+00
(PID.TID 0000.0001) %MON thSI_Tsrf_ave_S              =   0.0000000000000E+00
(PID.TID 0000.0001) %MON thSI_Tsrf_ave_N              =  -8.9824659914216E+00
(PID.TID 0000.0001) %MON thSI_Tsrf_min_S              =   0.0000000000000E+00
(PID.TID 0000.0001) %MON thSI_Tsrf_min_N              =  -9.1100830241401E+00
(PID.TID 0000.0001) %MON thSI_Tsrf_max_S              =   0.0000000000000E+00
(PID.TID 0000.0001) %MON thSI_Tsrf_max_N              =  -8.7316206508863E+00
(PID.TID 0000.0001) %MON thSI_Tic1_ave_G              =  -6.6455675745466E+00
(PID.TID 0000.0001) %MON thSI_Tic1_ave_S              =   0.0000000000000E+00
(PID.TID 0000.0001) %MON thSI_Tic1_ave_N              =  -6.6455675745466E+00
(PID.TID 0000.0001) %MON thSI_Tic1_min_S              =   0.0000000000000E+00
(PID.TID 0000.0001) %MON thSI_Tic1_min_N              =  -6.6891064982994E+00
(PID.TID 0000.0001) %MON thSI_Tic1_max_S              =   0.0000000000000E+00
(PID.TID 0000.0001) %MON thSI_Tic1_max_N              =  -6.5941810125030E+00
(PID.TID 0000.0001) %MON thSI_Tic2_ave_G              =  -3.1604679836550E+00
(PID.TID 0000.0001) %MON thSI_Tic2_ave_S              =   0.0000000000000E+00
(PID.TID 0000.0001) %MON thSI_Tic2_ave_N              =  -3.1604679836550E+00
(PID.TID 0000.0001) %MON thSI_Tic2_min_S              =   0.0000000000000E+00
(PID.TID 0000.0001) %MON thSI_Tic2_min_N              =  -3.2254755154927E+00
(PID.TID 0000.0001) %MON thSI_Tic2_max_S              =   0.0000000000000E+00
(PID.TID 0000.0001) %MON thSI_Tic2_max_N              =  -3.0984330845205E+00
(PID.TID 0000.0001) // =======================================================
(PID.TID 0000.0001) // End MONITOR Therm.SeaIce statistics
(PID.TID 0000.0001) // =======================================================
 cg2d: Sum(rhs),rhsMax =   1.80443748831749E-09  2.23376281113519E+04
(PID.TID 0000.0001)                    cg2d_init_res =    1.14842857868970E+04
(PID.TID 0000.0001)                       cg2d_iters =    16
(PID.TID 0000.0001)                         cg2d_res =    6.95077857858515E-11
(PID.TID 0000.0001) // =======================================================
(PID.TID 0000.0001) // Begin MONITOR dynamic field statistics
(PID.TID 0000.0001) // =======================================================
(PID.TID 0000.0001) %MON time_tsnumber                =                    26
(PID.TID 0000.0001) %MON time_secondsf                =   1.1700000000000E+04
(PID.TID 0000.0001) %MON dynstat_eta_max              =   3.7362157974219E+03
(PID.TID 0000.0001) %MON dynstat_eta_min              =  -7.8903923557075E+02
(PID.TID 0000.0001) %MON dynstat_eta_mean             =  -3.2131515562031E-15
(PID.TID 0000.0001) %MON dynstat_eta_sd               =   5.1416376720264E+02
(PID.TID 0000.0001) %MON dynstat_eta_del2             =   3.6430713304443E+01
(PID.TID 0000.0001) %MON dynstat_uvel_max             =   5.5741363732589E+00
(PID.TID 0000.0001) %MON dynstat_uvel_min             =  -5.8036281031460E+00
(PID.TID 0000.0001) %MON dynstat_uvel_mean            =   1.4863162069626E-02
(PID.TID 0000.0001) %MON dynstat_uvel_sd              =   8.2685854015086E-01
(PID.TID 0000.0001) %MON dynstat_uvel_del2            =   2.5071111254186E-02
(PID.TID 0000.0001) %MON dynstat_vvel_max             =   5.1471585776853E+00
(PID.TID 0000.0001) %MON dynstat_vvel_min             =  -6.1438759686749E+00
(PID.TID 0000.0001) %MON dynstat_vvel_mean            =   2.6895119592456E-02
(PID.TID 0000.0001) %MON dynstat_vvel_sd              =   8.1563229020513E-01
(PID.TID 0000.0001) %MON dynstat_vvel_del2            =   2.4230066358444E-02
(PID.TID 0000.0001) %MON dynstat_wvel_max             =   2.4535869038195E-01
(PID.TID 0000.0001) %MON dynstat_wvel_min             =  -1.3842914723614E-01
(PID.TID 0000.0001) %MON dynstat_wvel_mean            =   5.4038340270562E-04
(PID.TID 0000.0001) %MON dynstat_wvel_sd              =   1.0620604904715E-02
(PID.TID 0000.0001) %MON dynstat_wvel_del2            =   1.8581781842359E-03
(PID.TID 0000.0001) %MON dynstat_theta_max            =   4.3804294971533E+02
(PID.TID 0000.0001) %MON dynstat_theta_min            =   2.8344110704687E+02
(PID.TID 0000.0001) %MON dynstat_theta_mean           =   3.3168336104796E+02
(PID.TID 0000.0001) %MON dynstat_theta_sd             =   4.7455135393172E+01
(PID.TID 0000.0001) %MON dynstat_theta_del2           =   2.6462557028486E-02
(PID.TID 0000.0001) %MON dynstat_salt_max             =   4.5617891415131E+00
(PID.TID 0000.0001) %MON dynstat_salt_min             =  -1.3765083835984E-02
(PID.TID 0000.0001) %MON dynstat_salt_mean            =   9.3899180324480E-02
(PID.TID 0000.0001) %MON dynstat_salt_sd              =   3.7030369491670E-01
(PID.TID 0000.0001) %MON dynstat_salt_del2            =   1.1291065504521E-02
(PID.TID 0000.0001) %MON advcfl_uvel_max              =   8.1276003125977E-03
(PID.TID 0000.0001) %MON advcfl_vvel_max              =   8.7577733113940E-03
(PID.TID 0000.0001) %MON advcfl_wvel_max              =   4.0149603880683E-03
(PID.TID 0000.0001) %MON advcfl_W_hf_max              =   1.6926281279400E-02
(PID.TID 0000.0001) %MON pe_b_mean                    =  -1.2175558696519E+00
(PID.TID 0000.0001) %MON ke_max                       =   1.8546603675143E+01
(PID.TID 0000.0001) %MON ke_mean                      =   6.7094036042643E-01
(PID.TID 0000.0001) %MON ke_vol                       =   4.9523908919847E+19
(PID.TID 0000.0001) %MON vort_r_min                   =  -2.1987817442013E-05
(PID.TID 0000.0001) %MON vort_r_max                   =   9.6447017036987E-06
(PID.TID 0000.0001) %MON vort_a_mean                  =   6.7059142261994E-08
(PID.TID 0000.0001) %MON vort_a_sd                    =   8.3764695676949E-05
(PID.TID 0000.0001) %MON vort_p_mean                  =   6.8751161783665E-08
(PID.TID 0000.0001) %MON vort_p_sd                    =   9.1535050403510E-05
(PID.TID 0000.0001) %MON surfExpan_theta_mean         =  -5.4905600787917E-02
(PID.TID 0000.0001) %MON surfExpan_salt_mean          =  -1.0665910988960E-03
(PID.TID 0000.0001) %MON surfExpan_Heat_mean          =   4.2719380753032E+00
(PID.TID 0000.0001) %MON En_Budget_T2PE_mean          =  -8.3149241126548E+00
(PID.TID 0000.0001) // =======================================================
(PID.TID 0000.0001) // End MONITOR dynamic field statistics
(PID.TID 0000.0001) // =======================================================
(PID.TID 0000.0001) // =======================================================
(PID.TID 0000.0001) // Begin MONITOR Land statistics
(PID.TID 0000.0001) // =======================================================
(PID.TID 0000.0001) %MON land_time_sec                =   1.1700000000000E+04
(PID.TID 0000.0001) %MON land_SnwH_ave_G              =   1.5322270586693E-01
(PID.TID 0000.0001) %MON land_SnwH_ave_S              =   5.5904031749283E-01
(PID.TID 0000.0001) %MON land_SnwH_ave_T              =   0.0000000000000E+00
(PID.TID 0000.0001) %MON land_SnwH_ave_N              =   1.2389556211642E-01
(PID.TID 0000.0001) %MON land_SnwH_max_S              =   9.9998585662782E-01
(PID.TID 0000.0001) %MON land_SnwH_max_T              =   0.0000000000000E+00
(PID.TID 0000.0001) %MON land_SnwH_max_N              =   9.9999827629517E-01
(PID.TID 0000.0001) %MON land_TotEnerg_G              =  -6.3529959534333E+21
(PID.TID 0000.0001) %MON land_TotEnerg_S              =  -5.0022966617928E+21
(PID.TID 0000.0001) %MON land_TotEnerg_T              =   7.2768434785548E+21
(PID.TID 0000.0001) %MON land_TotEnerg_N              =  -8.6275427701953E+21
(PID.TID 0000.0001) %MON land_Tsrf_ave_G              =  -8.4392640382908E+00
(PID.TID 0000.0001) %MON land_Tsrf_ave_S              =  -7.3514902418609E+00
(PID.TID 0000.0001) %MON land_Tsrf_ave_T              =   1.0197236658372E+01
(PID.TID 0000.0001) %MON land_Tsrf_ave_N              =  -2.1237038305065E+01
(PID.TID 0000.0001) %MON land_Tsrf_min_S              =  -3.3729556939976E+01
(PID.TID 0000.0001) %MON land_Tsrf_min_T              =  -3.4723426783596E+00
(PID.TID 0000.0001) %MON land_Tsrf_min_N              =  -5.2048525885673E+01
(PID.TID 0000.0001) %MON land_Tsrf_max_S              =   2.0313012713060E+01
(PID.TID 0000.0001) %MON land_Tsrf_max_T              =   2.0467232390105E+01
(PID.TID 0000.0001) %MON land_Tsrf_max_N              =   8.3615639446515E+00
(PID.TID 0000.0001) %MON land_Tgr1_ave_G              =  -7.2224789445341E+00
(PID.TID 0000.0001) %MON land_Tgr1_ave_S              =  -7.1908705706071E+00
(PID.TID 0000.0001) %MON land_Tgr1_ave_T              =   1.0197236658372E+01
(PID.TID 0000.0001) %MON land_Tgr1_ave_N              =  -1.8865106282993E+01
(PID.TID 0000.0001) %MON land_Tgr1_min_S              =  -3.9285307674623E+01
(PID.TID 0000.0001) %MON land_Tgr1_min_T              =  -3.4723426783596E+00
(PID.TID 0000.0001) %MON land_Tgr1_min_N              =  -5.4682313113347E+01
(PID.TID 0000.0001) %MON land_Tgr1_max_S              =   2.0313012713060E+01
(PID.TID 0000.0001) %MON land_Tgr1_max_T              =   2.0467232390105E+01
(PID.TID 0000.0001) %MON land_Tgr1_max_N              =   8.3615639446515E+00
(PID.TID 0000.0001) %MON land_Tgr2_ave_G              =   4.2035631501279E+00
(PID.TID 0000.0001) %MON land_Tgr2_ave_S              =  -1.8726457984107E+01
(PID.TID 0000.0001) %MON land_Tgr2_ave_T              =   2.2009234527690E+01
(PID.TID 0000.0001) %MON land_Tgr2_ave_N              =  -2.4818139884660E-01
(PID.TID 0000.0001) %MON land_Tgr2_min_S              =  -6.4751066697325E+01
(PID.TID 0000.0001) %MON land_Tgr2_min_T              =  -9.7036732115684E+00
(PID.TID 0000.0001) %MON land_Tgr2_min_N              =  -4.0199815459078E+01
(PID.TID 0000.0001) %MON land_Tgr2_max_S              =   2.3359960548438E+01
(PID.TID 0000.0001) %MON land_Tgr2_max_T              =   3.1351343585339E+01
(PID.TID 0000.0001) %MON land_Tgr2_max_N              =   2.9821111227897E+01
(PID.TID 0000.0001) %MON land_grdW_ave_G              =   4.8675063188910E-01
(PID.TID 0000.0001) %MON land_grdW_ave_S              =   3.0851712241250E-01
(PID.TID 0000.0001) %MON land_grdW_ave_T              =   5.6416429712017E-01
(PID.TID 0000.0001) %MON land_grdW_ave_N              =   4.9287392742505E-01
(PID.TID 0000.0001) %MON land_grdW_min_S              =   2.7595309636531E-02
(PID.TID 0000.0001) %MON land_grdW_min_T              =   0.0000000000000E+00
(PID.TID 0000.0001) %MON land_grdW_min_N              =   0.0000000000000E+00
(PID.TID 0000.0001) // =======================================================
(PID.TID 0000.0001) // End MONITOR Land statistics
(PID.TID 0000.0001) // =======================================================
(PID.TID 0000.0001) // =======================================================
(PID.TID 0000.0001) // Begin MONITOR Therm.SeaIce statistics
(PID.TID 0000.0001) // =======================================================
(PID.TID 0000.0001) %MON thSI_time_sec                =   1.1700000000000E+04
(PID.TID 0000.0001) %MON thSI_Ice_Area_G              =   1.7301286637706E+11
(PID.TID 0000.0001) %MON thSI_Ice_Area_S              =   0.0000000000000E+00
(PID.TID 0000.0001) %MON thSI_Ice_Area_N              =   1.7301286637706E+11
(PID.TID 0000.0001) %MON thSI_IceH_ave_G              =   1.3932199713861E-01
(PID.TID 0000.0001) %MON thSI_IceH_ave_S              =   0.0000000000000E+00
(PID.TID 0000.0001) %MON thSI_IceH_ave_N              =   1.3932199713861E-01
(PID.TID 0000.0001) %MON thSI_IceH_max_S              =   0.0000000000000E+00
(PID.TID 0000.0001) %MON thSI_IceH_max_N              =   1.4865077102523E-01
(PID.TID 0000.0001) %MON thSI_SnwH_ave_G              =   0.0000000000000E+00
(PID.TID 0000.0001) %MON thSI_SnwH_ave_S              =   0.0000000000000E+00
(PID.TID 0000.0001) %MON thSI_SnwH_ave_N              =   0.0000000000000E+00
(PID.TID 0000.0001) %MON thSI_SnwH_max_S              =   0.0000000000000E+00
(PID.TID 0000.0001) %MON thSI_SnwH_max_N              =   0.0000000000000E+00
(PID.TID 0000.0001) %MON thSI_TotEnerg_G              =  -7.4447866527798E+18
(PID.TID 0000.0001) %MON thSI_Tsrf_ave_G              =  -9.0519593151083E+00
(PID.TID 0000.0001) %MON thSI_Tsrf_ave_S              =   0.0000000000000E+00
(PID.TID 0000.0001) %MON thSI_Tsrf_ave_N              =  -9.0519593151083E+00
(PID.TID 0000.0001) %MON thSI_Tsrf_min_S              =   0.0000000000000E+00
(PID.TID 0000.0001) %MON thSI_Tsrf_min_N              =  -9.1857767781254E+00
(PID.TID 0000.0001) %MON thSI_Tsrf_max_S              =   0.0000000000000E+00
(PID.TID 0000.0001) %MON thSI_Tsrf_max_N              =  -8.7897762274542E+00
(PID.TID 0000.0001) %MON thSI_Tic1_ave_G              =  -6.7354864568230E+00
(PID.TID 0000.0001) %MON thSI_Tic1_ave_S              =   0.0000000000000E+00
(PID.TID 0000.0001) %MON thSI_Tic1_ave_N              =  -6.7354864568230E+00
(PID.TID 0000.0001) %MON thSI_Tic1_min_S              =   0.0000000000000E+00
(PID.TID 0000.0001) %MON thSI_Tic1_min_N              =  -6.7807806124134E+00
(PID.TID 0000.0001) %MON thSI_Tic1_max_S              =   0.0000000000000E+00
(PID.TID 0000.0001) %MON thSI_Tic1_max_N              =  -6.6830043077428E+00
(PID.TID 0000.0001) %MON thSI_Tic2_ave_G              =  -3.2027599829378E+00
(PID.TID 0000.0001) %MON thSI_Tic2_ave_S              =   0.0000000000000E+00
(PID.TID 0000.0001) %MON thSI_Tic2_ave_N              =  -3.2027599829378E+00
(PID.TID 0000.0001) %MON thSI_Tic2_min_S              =   0.0000000000000E+00
(PID.TID 0000.0001) %MON thSI_Tic2_min_N              =  -3.2635771755395E+00
(PID.TID 0000.0001) %MON thSI_Tic2_max_S              =   0.0000000000000E+00
(PID.TID 0000.0001) %MON thSI_Tic2_max_N              =  -3.1442017449802E+00
(PID.TID 0000.0001) // =======================================================
(PID.TID 0000.0001) // End MONITOR Therm.SeaIce statistics
(PID.TID 0000.0001) // =======================================================
 cg2d: Sum(rhs),rhsMax =  -1.74622982740402E-10  2.14353328698910E+04
(PID.TID 0000.0001)                    cg2d_init_res =    1.13769994437352E+04
(PID.TID 0000.0001)                       cg2d_iters =    16
(PID.TID 0000.0001)                         cg2d_res =    6.97166151015922E-11
(PID.TID 0000.0001) // =======================================================
(PID.TID 0000.0001) // Begin MONITOR dynamic field statistics
(PID.TID 0000.0001) // =======================================================
(PID.TID 0000.0001) %MON time_tsnumber                =                    27
(PID.TID 0000.0001) %MON time_secondsf                =   1.2150000000000E+04
(PID.TID 0000.0001) %MON dynstat_eta_max              =   3.5645596867896E+03
(PID.TID 0000.0001) %MON dynstat_eta_min              =  -7.6400587251223E+02
(PID.TID 0000.0001) %MON dynstat_eta_mean             =  -1.6065757781016E-14
(PID.TID 0000.0001) %MON dynstat_eta_sd               =   5.0332026058720E+02
(PID.TID 0000.0001) %MON dynstat_eta_del2             =   3.6341119857510E+01
(PID.TID 0000.0001) %MON dynstat_uvel_max             =   5.4460568516156E+00
(PID.TID 0000.0001) %MON dynstat_uvel_min             =  -5.7509362448185E+00
(PID.TID 0000.0001) %MON dynstat_uvel_mean            =   2.0334102000732E-02
(PID.TID 0000.0001) %MON dynstat_uvel_sd              =   8.2128327800778E-01
(PID.TID 0000.0001) %MON dynstat_uvel_del2            =   2.5577420512071E-02
(PID.TID 0000.0001) %MON dynstat_vvel_max             =   5.1962270832369E+00
(PID.TID 0000.0001) %MON dynstat_vvel_min             =  -6.0462804114215E+00
(PID.TID 0000.0001) %MON dynstat_vvel_mean            =   2.6078197620575E-02
(PID.TID 0000.0001) %MON dynstat_vvel_sd              =   8.1778377267992E-01
(PID.TID 0000.0001) %MON dynstat_vvel_del2            =   2.4918387425132E-02
(PID.TID 0000.0001) %MON dynstat_wvel_max             =   2.4779544482105E-01
(PID.TID 0000.0001) %MON dynstat_wvel_min             =  -1.3357611063471E-01
(PID.TID 0000.0001) %MON dynstat_wvel_mean            =   5.6970442160271E-04
(PID.TID 0000.0001) %MON dynstat_wvel_sd              =   1.0604406837260E-02
(PID.TID 0000.0001) %MON dynstat_wvel_del2            =   1.9083672007683E-03
(PID.TID 0000.0001) %MON dynstat_theta_max            =   4.3807737960819E+02
(PID.TID 0000.0001) %MON dynstat_theta_min            =   2.8322266859127E+02
(PID.TID 0000.0001) %MON dynstat_theta_mean           =   3.3168125847859E+02
(PID.TID 0000.0001) %MON dynstat_theta_sd             =   4.7457184552787E+01
(PID.TID 0000.0001) %MON dynstat_theta_del2           =   2.7379115805794E-02
(PID.TID 0000.0001) %MON dynstat_salt_max             =   4.6112124692491E+00
(PID.TID 0000.0001) %MON dynstat_salt_min             =  -1.5765292710989E-02
(PID.TID 0000.0001) %MON dynstat_salt_mean            =   9.7258270143235E-02
(PID.TID 0000.0001) %MON dynstat_salt_sd              =   3.8212383608093E-01
(PID.TID 0000.0001) %MON dynstat_salt_del2            =   1.1614386216859E-02
(PID.TID 0000.0001) %MON advcfl_uvel_max              =   8.0296794627282E-03
(PID.TID 0000.0001) %MON advcfl_vvel_max              =   8.6186559576287E-03
(PID.TID 0000.0001) %MON advcfl_wvel_max              =   4.0548345516172E-03
(PID.TID 0000.0001) %MON advcfl_W_hf_max              =   1.6990689695969E-02
(PID.TID 0000.0001) %MON pe_b_mean                    =  -1.2222317140519E+00
(PID.TID 0000.0001) %MON ke_max                       =   1.8250829122585E+01
(PID.TID 0000.0001) %MON ke_mean                      =   6.6819099210660E-01
(PID.TID 0000.0001) %MON ke_vol                       =   4.9523908919847E+19
(PID.TID 0000.0001) %MON vort_r_min                   =  -2.1180106182191E-05
(PID.TID 0000.0001) %MON vort_r_max                   =   1.0135735436106E-05
(PID.TID 0000.0001) %MON vort_a_mean                  =   6.7059142261976E-08
(PID.TID 0000.0001) %MON vort_a_sd                    =   8.3767168549305E-05
(PID.TID 0000.0001) %MON vort_p_mean                  =   6.8751163068865E-08
(PID.TID 0000.0001) %MON vort_p_sd                    =   9.1516142785384E-05
(PID.TID 0000.0001) %MON surfExpan_theta_mean         =  -5.7422823990532E-02
(PID.TID 0000.0001) %MON surfExpan_salt_mean          =  -1.1663197051745E-03
(PID.TID 0000.0001) %MON surfExpan_Heat_mean          =   4.4987109312232E+00
(PID.TID 0000.0001) %MON En_Budget_T2PE_mean          =  -8.7320448795313E+00
(PID.TID 0000.0001) // =======================================================
(PID.TID 0000.0001) // End MONITOR dynamic field statistics
(PID.TID 0000.0001) // =======================================================
(PID.TID 0000.0001) // =======================================================
(PID.TID 0000.0001) // Begin MONITOR Land statistics
(PID.TID 0000.0001) // =======================================================
(PID.TID 0000.0001) %MON land_time_sec                =   1.2150000000000E+04
(PID.TID 0000.0001) %MON land_SnwH_ave_G              =   1.5322175306151E-01
(PID.TID 0000.0001) %MON land_SnwH_ave_S              =   5.5903944102861E-01
(PID.TID 0000.0001) %MON land_SnwH_ave_T              =   0.0000000000000E+00
(PID.TID 0000.0001) %MON land_SnwH_ave_N              =   1.2389394829093E-01
(PID.TID 0000.0001) %MON land_SnwH_max_S              =   9.9998529798983E-01
(PID.TID 0000.0001) %MON land_SnwH_max_T              =   0.0000000000000E+00
(PID.TID 0000.0001) %MON land_SnwH_max_N              =   9.9999821265736E-01
(PID.TID 0000.0001) %MON land_TotEnerg_G              =  -6.3542921171809E+21
(PID.TID 0000.0001) %MON land_TotEnerg_S              =  -5.0023444361155E+21
(PID.TID 0000.0001) %MON land_TotEnerg_T              =   7.2761773600534E+21
(PID.TID 0000.0001) %MON land_TotEnerg_N              =  -8.6281250411188E+21
(PID.TID 0000.0001) %MON land_Tsrf_ave_G              =  -8.4722007139432E+00
(PID.TID 0000.0001) %MON land_Tsrf_ave_S              =  -7.3564897171245E+00
(PID.TID 0000.0001) %MON land_Tsrf_ave_T              =   1.0123562711081E+01
(PID.TID 0000.0001) %MON land_Tsrf_ave_N              =  -2.1251834486362E+01
(PID.TID 0000.0001) %MON land_Tsrf_min_S              =  -3.3712349905130E+01
(PID.TID 0000.0001) %MON land_Tsrf_min_T              =  -3.3620198992941E+00
(PID.TID 0000.0001) %MON land_Tsrf_min_N              =  -5.2044232288273E+01
(PID.TID 0000.0001) %MON land_Tsrf_max_S              =   2.0243899769165E+01
(PID.TID 0000.0001) %MON land_Tsrf_max_T              =   2.0345889062865E+01
(PID.TID 0000.0001) %MON land_Tsrf_max_N              =   8.2514598226111E+00
(PID.TID 0000.0001) %MON land_Tgr1_ave_G              =  -7.2609644838003E+00
(PID.TID 0000.0001) %MON land_Tgr1_ave_S              =  -7.2110663259899E+00
(PID.TID 0000.0001) %MON land_Tgr1_ave_T              =   1.0123562711081E+01
(PID.TID 0000.0001) %MON land_Tgr1_ave_N              =  -1.8886027132704E+01
(PID.TID 0000.0001) %MON land_Tgr1_min_S              =  -3.9296226415485E+01
(PID.TID 0000.0001) %MON land_Tgr1_min_T              =  -3.3620198992941E+00
(PID.TID 0000.0001) %MON land_Tgr1_min_N              =  -5.4669865798604E+01
(PID.TID 0000.0001) %MON land_Tgr1_max_S              =   2.0243899769165E+01
(PID.TID 0000.0001) %MON land_Tgr1_max_T              =   2.0345889062865E+01
(PID.TID 0000.0001) %MON land_Tgr1_max_N              =   8.2514598226111E+00
(PID.TID 0000.0001) %MON land_Tgr2_ave_G              =   4.2033874243348E+00
(PID.TID 0000.0001) %MON land_Tgr2_ave_S              =  -1.8726264928159E+01
(PID.TID 0000.0001) %MON land_Tgr2_ave_T              =   2.2009042642187E+01
(PID.TID 0000.0001) %MON land_Tgr2_ave_N              =  -2.4846596421013E-01
(PID.TID 0000.0001) %MON land_Tgr2_min_S              =  -6.4750637652343E+01
(PID.TID 0000.0001) %MON land_Tgr2_min_T              =  -9.7035930851674E+00
(PID.TID 0000.0001) %MON land_Tgr2_min_N              =  -4.0200050512309E+01
(PID.TID 0000.0001) %MON land_Tgr2_max_S              =   2.3359893513252E+01
(PID.TID 0000.0001) %MON land_Tgr2_max_T              =   3.1350908207685E+01
(PID.TID 0000.0001) %MON land_Tgr2_max_N              =   2.9820575085547E+01
(PID.TID 0000.0001) %MON land_grdW_ave_G              =   4.8674303461426E-01
(PID.TID 0000.0001) %MON land_grdW_ave_S              =   3.0850950017487E-01
(PID.TID 0000.0001) %MON land_grdW_ave_T              =   5.6414577049509E-01
(PID.TID 0000.0001) %MON land_grdW_ave_N              =   4.9287363654667E-01
(PID.TID 0000.0001) %MON land_grdW_min_S              =   2.7682268039954E-02
(PID.TID 0000.0001) %MON land_grdW_min_T              =   0.0000000000000E+00
(PID.TID 0000.0001) %MON land_grdW_min_N              =   0.0000000000000E+00
(PID.TID 0000.0001) // =======================================================
(PID.TID 0000.0001) // End MONITOR Land statistics
(PID.TID 0000.0001) // =======================================================
(PID.TID 0000.0001) // =======================================================
(PID.TID 0000.0001) // Begin MONITOR Therm.SeaIce statistics
(PID.TID 0000.0001) // =======================================================
(PID.TID 0000.0001) %MON thSI_time_sec                =   1.2150000000000E+04
(PID.TID 0000.0001) %MON thSI_Ice_Area_G              =   1.7301286637706E+11
(PID.TID 0000.0001) %MON thSI_Ice_Area_S              =   0.0000000000000E+00
(PID.TID 0000.0001) %MON thSI_Ice_Area_N              =   1.7301286637706E+11
(PID.TID 0000.0001) %MON thSI_IceH_ave_G              =   1.3945332573169E-01
(PID.TID 0000.0001) %MON thSI_IceH_ave_S              =   0.0000000000000E+00
(PID.TID 0000.0001) %MON thSI_IceH_ave_N              =   1.3945332573169E-01
(PID.TID 0000.0001) %MON thSI_IceH_max_S              =   0.0000000000000E+00
(PID.TID 0000.0001) %MON thSI_IceH_max_N              =   1.4876991645567E-01
(PID.TID 0000.0001) %MON thSI_SnwH_ave_G              =   0.0000000000000E+00
(PID.TID 0000.0001) %MON thSI_SnwH_ave_S              =   0.0000000000000E+00
(PID.TID 0000.0001) %MON thSI_SnwH_ave_N              =   0.0000000000000E+00
(PID.TID 0000.0001) %MON thSI_SnwH_max_S              =   0.0000000000000E+00
(PID.TID 0000.0001) %MON thSI_SnwH_max_N              =   0.0000000000000E+00
(PID.TID 0000.0001) %MON thSI_TotEnerg_G              =  -7.4549409117410E+18
(PID.TID 0000.0001) %MON thSI_Tsrf_ave_G              =  -9.1155826963158E+00
(PID.TID 0000.0001) %MON thSI_Tsrf_ave_S              =   0.0000000000000E+00
(PID.TID 0000.0001) %MON thSI_Tsrf_ave_N              =  -9.1155826963158E+00
(PID.TID 0000.0001) %MON thSI_Tsrf_min_S              =   0.0000000000000E+00
(PID.TID 0000.0001) %MON thSI_Tsrf_min_N              =  -9.2559371734033E+00
(PID.TID 0000.0001) %MON thSI_Tsrf_max_S              =   0.0000000000000E+00
(PID.TID 0000.0001) %MON thSI_Tsrf_max_N              =  -8.8417770524017E+00
(PID.TID 0000.0001) %MON thSI_Tic1_ave_G              =  -6.8186339936802E+00
(PID.TID 0000.0001) %MON thSI_Tic1_ave_S              =   0.0000000000000E+00
(PID.TID 0000.0001) %MON thSI_Tic1_ave_N              =  -6.8186339936802E+00
(PID.TID 0000.0001) %MON thSI_Tic1_min_S              =   0.0000000000000E+00
(PID.TID 0000.0001) %MON thSI_Tic1_min_N              =  -6.8658111155280E+00
(PID.TID 0000.0001) %MON thSI_Tic1_max_S              =   0.0000000000000E+00
(PID.TID 0000.0001) %MON thSI_Tic1_max_N              =  -6.7515950451491E+00
(PID.TID 0000.0001) %MON thSI_Tic2_ave_G              =  -3.2415378036622E+00
(PID.TID 0000.0001) %MON thSI_Tic2_ave_S              =   0.0000000000000E+00
(PID.TID 0000.0001) %MON thSI_Tic2_ave_N              =  -3.2415378036622E+00
(PID.TID 0000.0001) %MON thSI_Tic2_min_S              =   0.0000000000000E+00
(PID.TID 0000.0001) %MON thSI_Tic2_min_N              =  -3.2979801561479E+00
(PID.TID 0000.0001) %MON thSI_Tic2_max_S              =   0.0000000000000E+00
(PID.TID 0000.0001) %MON thSI_Tic2_max_N              =  -3.1866464512798E+00
(PID.TID 0000.0001) // =======================================================
(PID.TID 0000.0001) // End MONITOR Therm.SeaIce statistics
(PID.TID 0000.0001) // =======================================================
 cg2d: Sum(rhs),rhsMax =  -4.65661287307739E-10  2.06098803106648E+04
(PID.TID 0000.0001)                    cg2d_init_res =    1.12649736275613E+04
(PID.TID 0000.0001)                       cg2d_iters =    16
(PID.TID 0000.0001)                         cg2d_res =    6.87030927855906E-11
(PID.TID 0000.0001) // =======================================================
(PID.TID 0000.0001) // Begin MONITOR dynamic field statistics
(PID.TID 0000.0001) // =======================================================
(PID.TID 0000.0001) %MON time_tsnumber                =                    28
(PID.TID 0000.0001) %MON time_secondsf                =   1.2600000000000E+04
(PID.TID 0000.0001) %MON dynstat_eta_max              =   3.4001030715435E+03
(PID.TID 0000.0001) %MON dynstat_eta_min              =  -7.6196280569127E+02
(PID.TID 0000.0001) %MON dynstat_eta_mean             =  -3.2131515562031E-14
(PID.TID 0000.0001) %MON dynstat_eta_sd               =   4.9245320508310E+02
(PID.TID 0000.0001) %MON dynstat_eta_del2             =   3.6264160454170E+01
(PID.TID 0000.0001) %MON dynstat_uvel_max             =   5.3034653108863E+00
(PID.TID 0000.0001) %MON dynstat_uvel_min             =  -5.6742341997494E+00
(PID.TID 0000.0001) %MON dynstat_uvel_mean            =   2.6270513902206E-02
(PID.TID 0000.0001) %MON dynstat_uvel_sd              =   8.1457094655946E-01
(PID.TID 0000.0001) %MON dynstat_uvel_del2            =   2.6101698414074E-02
(PID.TID 0000.0001) %MON dynstat_vvel_max             =   5.2086754572954E+00
(PID.TID 0000.0001) %MON dynstat_vvel_min             =  -5.9286306301328E+00
(PID.TID 0000.0001) %MON dynstat_vvel_mean            =   2.5200574705430E-02
(PID.TID 0000.0001) %MON dynstat_vvel_sd              =   8.1877306527290E-01
(PID.TID 0000.0001) %MON dynstat_vvel_del2            =   2.5609279741077E-02
(PID.TID 0000.0001) %MON dynstat_wvel_max             =   2.4455129312976E-01
(PID.TID 0000.0001) %MON dynstat_wvel_min             =  -1.2589308142639E-01
(PID.TID 0000.0001) %MON dynstat_wvel_mean            =   5.8172255397125E-04
(PID.TID 0000.0001) %MON dynstat_wvel_sd              =   1.0535392285527E-02
(PID.TID 0000.0001) %MON dynstat_wvel_del2            =   1.9538781242561E-03
(PID.TID 0000.0001) %MON dynstat_theta_max            =   4.3811861459449E+02
(PID.TID 0000.0001) %MON dynstat_theta_min            =   2.8300551650517E+02
(PID.TID 0000.0001) %MON dynstat_theta_mean           =   3.3167912104748E+02
(PID.TID 0000.0001) %MON dynstat_theta_sd             =   4.7459240636914E+01
(PID.TID 0000.0001) %MON dynstat_theta_del2           =   2.8290488341359E-02
(PID.TID 0000.0001) %MON dynstat_salt_max             =   4.6578267185460E+00
(PID.TID 0000.0001) %MON dynstat_salt_min             =  -1.7828566708093E-02
(PID.TID 0000.0001) %MON dynstat_salt_mean            =   1.0060630517914E-01
(PID.TID 0000.0001) %MON dynstat_salt_sd              =   3.9383827381172E-01
(PID.TID 0000.0001) %MON dynstat_salt_del2            =   1.1935116693120E-02
(PID.TID 0000.0001) %MON advcfl_uvel_max              =   7.9225851028149E-03
(PID.TID 0000.0001) %MON advcfl_vvel_max              =   8.4759024507332E-03
(PID.TID 0000.0001) %MON advcfl_wvel_max              =   4.0017484330324E-03
(PID.TID 0000.0001) %MON advcfl_W_hf_max              =   1.7824502621423E-02
(PID.TID 0000.0001) %MON pe_b_mean                    =  -1.2249056120072E+00
(PID.TID 0000.0001) %MON ke_max                       =   1.7634745300086E+01
(PID.TID 0000.0001) %MON ke_mean                      =   6.6364965957187E-01
(PID.TID 0000.0001) %MON ke_vol                       =   4.9523908919847E+19
(PID.TID 0000.0001) %MON vort_r_min                   =  -2.0607704910103E-05
(PID.TID 0000.0001) %MON vort_r_max                   =   1.0638320228346E-05
(PID.TID 0000.0001) %MON vort_a_mean                  =   6.7059142262085E-08
(PID.TID 0000.0001) %MON vort_a_sd                    =   8.3769588973271E-05
(PID.TID 0000.0001) %MON vort_p_mean                  =   6.8751164497110E-08
(PID.TID 0000.0001) %MON vort_p_sd                    =   9.1497718030115E-05
(PID.TID 0000.0001) %MON surfExpan_theta_mean         =  -5.8242477258107E-02
(PID.TID 0000.0001) %MON surfExpan_salt_mean          =  -1.2651295570971E-03
(PID.TID 0000.0001) %MON surfExpan_Heat_mean          =   4.5842182432068E+00
(PID.TID 0000.0001) %MON En_Budget_T2PE_mean          =  -8.8833204337158E+00
(PID.TID 0000.0001) // =======================================================
(PID.TID 0000.0001) // End MONITOR dynamic field statistics
(PID.TID 0000.0001) // =======================================================
(PID.TID 0000.0001) // =======================================================
(PID.TID 0000.0001) // Begin MONITOR Land statistics
(PID.TID 0000.0001) // =======================================================
(PID.TID 0000.0001) %MON land_time_sec                =   1.2600000000000E+04
(PID.TID 0000.0001) %MON land_SnwH_ave_G              =   1.5322080243342E-01
(PID.TID 0000.0001) %MON land_SnwH_ave_S              =   5.5903856708905E-01
(PID.TID 0000.0001) %MON land_SnwH_ave_T              =   0.0000000000000E+00
(PID.TID 0000.0001) %MON land_SnwH_ave_N              =   1.2389233798408E-01
(PID.TID 0000.0001) %MON land_SnwH_max_S              =   9.9998473869010E-01
(PID.TID 0000.0001) %MON land_SnwH_max_T              =   0.0000000000000E+00
(PID.TID 0000.0001) %MON land_SnwH_max_N              =   9.9999814896633E-01
(PID.TID 0000.0001) %MON land_TotEnerg_G              =  -6.3555189457273E+21
(PID.TID 0000.0001) %MON land_TotEnerg_S              =  -5.0023834523917E+21
(PID.TID 0000.0001) %MON land_TotEnerg_T              =   7.2755614364757E+21
(PID.TID 0000.0001) %MON land_TotEnerg_N              =  -8.6286969298113E+21
(PID.TID 0000.0001) %MON land_Tsrf_ave_G              =  -8.5028584158893E+00
(PID.TID 0000.0001) %MON land_Tsrf_ave_S              =  -7.3628629615455E+00
(PID.TID 0000.0001) %MON land_Tsrf_ave_T              =   1.0055670780853E+01
(PID.TID 0000.0001) %MON land_Tsrf_ave_N              =  -2.1265505995756E+01
(PID.TID 0000.0001) %MON land_Tsrf_min_S              =  -3.3692092475126E+01
(PID.TID 0000.0001) %MON land_Tsrf_min_T              =  -3.2552165869640E+00
(PID.TID 0000.0001) %MON land_Tsrf_min_N              =  -5.2039917156849E+01
(PID.TID 0000.0001) %MON land_Tsrf_max_S              =   2.0184179519262E+01
(PID.TID 0000.0001) %MON land_Tsrf_max_T              =   2.0237768716301E+01
(PID.TID 0000.0001) %MON land_Tsrf_max_N              =   8.1483250038825E+00
(PID.TID 0000.0001) %MON land_Tgr1_ave_G              =  -7.2964208049394E+00
(PID.TID 0000.0001) %MON land_Tgr1_ave_S              =  -7.2287146950001E+00
(PID.TID 0000.0001) %MON land_Tgr1_ave_T              =   1.0055670780853E+01
(PID.TID 0000.0001) %MON land_Tgr1_ave_N              =  -1.8905600699174E+01
(PID.TID 0000.0001) %MON land_Tgr1_min_S              =  -3.9307106442814E+01
(PID.TID 0000.0001) %MON land_Tgr1_min_T              =  -3.2552165869640E+00
(PID.TID 0000.0001) %MON land_Tgr1_min_N              =  -5.4657434843057E+01
(PID.TID 0000.0001) %MON land_Tgr1_max_S              =   2.0184179519262E+01
(PID.TID 0000.0001) %MON land_Tgr1_max_T              =   2.0237768716301E+01
(PID.TID 0000.0001) %MON land_Tgr1_max_N              =   8.1483250038825E+00
(PID.TID 0000.0001) %MON land_Tgr2_ave_G              =   4.2032112048937E+00
(PID.TID 0000.0001) %MON land_Tgr2_ave_S              =  -1.8726072154292E+01
(PID.TID 0000.0001) %MON land_Tgr2_ave_T              =   2.2008849843871E+01
(PID.TID 0000.0001) %MON land_Tgr2_ave_N              =  -2.4875081194727E-01
(PID.TID 0000.0001) %MON land_Tgr2_min_S              =  -6.4750208813934E+01
(PID.TID 0000.0001) %MON land_Tgr2_min_T              =  -9.7035116105892E+00
(PID.TID 0000.0001) %MON land_Tgr2_min_N              =  -4.0200285331653E+01
(PID.TID 0000.0001) %MON land_Tgr2_max_S              =   2.3359825098272E+01
(PID.TID 0000.0001) %MON land_Tgr2_max_T              =   3.1350470536260E+01
(PID.TID 0000.0001) %MON land_Tgr2_max_N              =   2.9820034479031E+01
(PID.TID 0000.0001) %MON land_grdW_ave_G              =   4.8673552397364E-01
(PID.TID 0000.0001) %MON land_grdW_ave_S              =   3.0850193345208E-01
(PID.TID 0000.0001) %MON land_grdW_ave_T              =   5.6412747393050E-01
(PID.TID 0000.0001) %MON land_grdW_ave_N              =   4.9287334662157E-01
(PID.TID 0000.0001) %MON land_grdW_min_S              =   2.7769074710514E-02
(PID.TID 0000.0001) %MON land_grdW_min_T              =   0.0000000000000E+00
(PID.TID 0000.0001) %MON land_grdW_min_N              =   0.0000000000000E+00
(PID.TID 0000.0001) // =======================================================
(PID.TID 0000.0001) // End MONITOR Land statistics
(PID.TID 0000.0001) // =======================================================
(PID.TID 0000.0001) // =======================================================
(PID.TID 0000.0001) // Begin MONITOR Therm.SeaIce statistics
(PID.TID 0000.0001) // =======================================================
(PID.TID 0000.0001) %MON thSI_time_sec                =   1.2600000000000E+04
(PID.TID 0000.0001) %MON thSI_Ice_Area_G              =   1.7301286637706E+11
(PID.TID 0000.0001) %MON thSI_Ice_Area_S              =   0.0000000000000E+00
(PID.TID 0000.0001) %MON thSI_Ice_Area_N              =   1.7301286637706E+11
(PID.TID 0000.0001) %MON thSI_IceH_ave_G              =   1.3958758055012E-01
(PID.TID 0000.0001) %MON thSI_IceH_ave_S              =   0.0000000000000E+00
(PID.TID 0000.0001) %MON thSI_IceH_ave_N              =   1.3958758055012E-01
(PID.TID 0000.0001) %MON thSI_IceH_max_S              =   0.0000000000000E+00
(PID.TID 0000.0001) %MON thSI_IceH_max_N              =   1.4889215613590E-01
(PID.TID 0000.0001) %MON thSI_SnwH_ave_G              =   0.0000000000000E+00
(PID.TID 0000.0001) %MON thSI_SnwH_ave_S              =   0.0000000000000E+00
(PID.TID 0000.0001) %MON thSI_SnwH_ave_N              =   0.0000000000000E+00
(PID.TID 0000.0001) %MON thSI_SnwH_max_S              =   0.0000000000000E+00
(PID.TID 0000.0001) %MON thSI_SnwH_max_N              =   0.0000000000000E+00
(PID.TID 0000.0001) %MON thSI_TotEnerg_G              =  -7.4650031300362E+18
(PID.TID 0000.0001) %MON thSI_Tsrf_ave_G              =  -9.1736141401040E+00
(PID.TID 0000.0001) %MON thSI_Tsrf_ave_S              =   0.0000000000000E+00
(PID.TID 0000.0001) %MON thSI_Tsrf_ave_N              =  -9.1736141401040E+00
(PID.TID 0000.0001) %MON thSI_Tsrf_min_S              =   0.0000000000000E+00
(PID.TID 0000.0001) %MON thSI_Tsrf_min_N              =  -9.3208135115309E+00
(PID.TID 0000.0001) %MON thSI_Tsrf_max_S              =   0.0000000000000E+00
(PID.TID 0000.0001) %MON thSI_Tsrf_max_N              =  -8.8880457417708E+00
(PID.TID 0000.0001) %MON thSI_Tic1_ave_G              =  -6.8953607694916E+00
(PID.TID 0000.0001) %MON thSI_Tic1_ave_S              =   0.0000000000000E+00
(PID.TID 0000.0001) %MON thSI_Tic1_ave_N              =  -6.8953607694916E+00
(PID.TID 0000.0001) %MON thSI_Tic1_min_S              =   0.0000000000000E+00
(PID.TID 0000.0001) %MON thSI_Tic1_min_N              =  -6.9446070096259E+00
(PID.TID 0000.0001) %MON thSI_Tic1_max_S              =   0.0000000000000E+00
(PID.TID 0000.0001) %MON thSI_Tic1_max_N              =  -6.8135541286238E+00
(PID.TID 0000.0001) %MON thSI_Tic2_ave_G              =  -3.2771345519686E+00
(PID.TID 0000.0001) %MON thSI_Tic2_ave_S              =   0.0000000000000E+00
(PID.TID 0000.0001) %MON thSI_Tic2_ave_N              =  -3.2771345519686E+00
(PID.TID 0000.0001) %MON thSI_Tic2_min_S              =   0.0000000000000E+00
(PID.TID 0000.0001) %MON thSI_Tic2_min_N              =  -3.3290948362793E+00
(PID.TID 0000.0001) %MON thSI_Tic2_max_S              =   0.0000000000000E+00
(PID.TID 0000.0001) %MON thSI_Tic2_max_N              =  -3.2260336774519E+00
(PID.TID 0000.0001) // =======================================================
(PID.TID 0000.0001) // End MONITOR Therm.SeaIce statistics
(PID.TID 0000.0001) // =======================================================
 cg2d: Sum(rhs),rhsMax =  -4.65661287307739E-10  1.98790830426316E+04
(PID.TID 0000.0001)                    cg2d_init_res =    1.11418317738241E+04
(PID.TID 0000.0001)                       cg2d_iters =    16
(PID.TID 0000.0001)                         cg2d_res =    6.67796887792335E-11
(PID.TID 0000.0001) // =======================================================
(PID.TID 0000.0001) // Begin MONITOR dynamic field statistics
(PID.TID 0000.0001) // =======================================================
(PID.TID 0000.0001) %MON time_tsnumber                =                    29
(PID.TID 0000.0001) %MON time_secondsf                =   1.3050000000000E+04
(PID.TID 0000.0001) %MON dynstat_eta_max              =   3.3093724254578E+03
(PID.TID 0000.0001) %MON dynstat_eta_min              =  -7.6031039370274E+02
(PID.TID 0000.0001) %MON dynstat_eta_mean             =   3.2131515562031E-14
(PID.TID 0000.0001) %MON dynstat_eta_sd               =   4.8185606694457E+02
(PID.TID 0000.0001) %MON dynstat_eta_del2             =   3.6198245312118E+01
(PID.TID 0000.0001) %MON dynstat_uvel_max             =   5.1506737597889E+00
(PID.TID 0000.0001) %MON dynstat_uvel_min             =  -5.5312255899291E+00
(PID.TID 0000.0001) %MON dynstat_uvel_mean            =   3.2602516990881E-02
(PID.TID 0000.0001) %MON dynstat_uvel_sd              =   8.0702515635199E-01
(PID.TID 0000.0001) %MON dynstat_uvel_del2            =   2.6636937760482E-02
(PID.TID 0000.0001) %MON dynstat_vvel_max             =   5.1825924444455E+00
(PID.TID 0000.0001) %MON dynstat_vvel_min             =  -5.8001547767223E+00
(PID.TID 0000.0001) %MON dynstat_vvel_mean            =   2.4328150232402E-02
(PID.TID 0000.0001) %MON dynstat_vvel_sd              =   8.1834098297104E-01
(PID.TID 0000.0001) %MON dynstat_vvel_del2            =   2.6299889014968E-02
(PID.TID 0000.0001) %MON dynstat_wvel_max             =   2.3586881759088E-01
(PID.TID 0000.0001) %MON dynstat_wvel_min             =  -1.1589966187718E-01
(PID.TID 0000.0001) %MON dynstat_wvel_mean            =   5.7841773133850E-04
(PID.TID 0000.0001) %MON dynstat_wvel_sd              =   1.0423594575014E-02
(PID.TID 0000.0001) %MON dynstat_wvel_del2            =   1.9930010370441E-03
(PID.TID 0000.0001) %MON dynstat_theta_max            =   4.3813616586288E+02
(PID.TID 0000.0001) %MON dynstat_theta_min            =   2.8278955928657E+02
(PID.TID 0000.0001) %MON dynstat_theta_mean           =   3.3167695119678E+02
(PID.TID 0000.0001) %MON dynstat_theta_sd             =   4.7461303623290E+01
(PID.TID 0000.0001) %MON dynstat_theta_del2           =   2.9208253778620E-02
(PID.TID 0000.0001) %MON dynstat_salt_max             =   4.7006741414366E+00
(PID.TID 0000.0001) %MON dynstat_salt_min             =  -1.9954441548693E-02
(PID.TID 0000.0001) %MON dynstat_salt_mean            =   1.0394357817069E-01
(PID.TID 0000.0001) %MON dynstat_salt_sd              =   4.0544880006081E-01
(PID.TID 0000.0001) %MON dynstat_salt_del2            =   1.2252302138712E-02
(PID.TID 0000.0001) %MON advcfl_uvel_max              =   7.7229109544010E-03
(PID.TID 0000.0001) %MON advcfl_vvel_max              =   8.2922261739134E-03
(PID.TID 0000.0001) %MON advcfl_wvel_max              =   3.8596715605781E-03
(PID.TID 0000.0001) %MON advcfl_W_hf_max              =   1.8451332724723E-02
(PID.TID 0000.0001) %MON pe_b_mean                    =  -1.2256254066451E+00
(PID.TID 0000.0001) %MON ke_max                       =   1.6765709945122E+01
(PID.TID 0000.0001) %MON ke_mean                      =   6.5737614505171E-01
(PID.TID 0000.0001) %MON ke_vol                       =   4.9523908919847E+19
(PID.TID 0000.0001) %MON vort_r_min                   =  -2.0408758537671E-05
(PID.TID 0000.0001) %MON vort_r_max                   =   1.1156533256274E-05
(PID.TID 0000.0001) %MON vort_a_mean                  =   6.7059142262016E-08
(PID.TID 0000.0001) %MON vort_a_sd                    =   8.3771954260460E-05
(PID.TID 0000.0001) %MON vort_p_mean                  =   6.8751166033888E-08
(PID.TID 0000.0001) %MON vort_p_sd                    =   9.1480052381629E-05
(PID.TID 0000.0001) %MON surfExpan_theta_mean         =  -5.7571936555203E-02
(PID.TID 0000.0001) %MON surfExpan_salt_mean          =  -1.3612116138804E-03
(PID.TID 0000.0001) %MON surfExpan_Heat_mean          =   4.5449582966600E+00
(PID.TID 0000.0001) %MON En_Budget_T2PE_mean          =  -8.8003119936089E+00
(PID.TID 0000.0001) // =======================================================
(PID.TID 0000.0001) // End MONITOR dynamic field statistics
(PID.TID 0000.0001) // =======================================================
(PID.TID 0000.0001) // =======================================================
(PID.TID 0000.0001) // Begin MONITOR Land statistics
(PID.TID 0000.0001) // =======================================================
(PID.TID 0000.0001) %MON land_time_sec                =   1.3050000000000E+04
(PID.TID 0000.0001) %MON land_SnwH_ave_G              =   1.5321985410815E-01
(PID.TID 0000.0001) %MON land_SnwH_ave_S              =   5.5903769679802E-01
(PID.TID 0000.0001) %MON land_SnwH_ave_T              =   0.0000000000000E+00
(PID.TID 0000.0001) %MON land_SnwH_ave_N              =   1.2389073108124E-01
(PID.TID 0000.0001) %MON land_SnwH_max_S              =   9.9998417846940E-01
(PID.TID 0000.0001) %MON land_SnwH_max_T              =   0.0000000000000E+00
(PID.TID 0000.0001) %MON land_SnwH_max_N              =   9.9999808522652E-01
(PID.TID 0000.0001) %MON land_TotEnerg_G              =  -6.3566827318267E+21
(PID.TID 0000.0001) %MON land_TotEnerg_S              =  -5.0024147657514E+21
(PID.TID 0000.0001) %MON land_TotEnerg_T              =   7.2749908368225E+21
(PID.TID 0000.0001) %MON land_TotEnerg_N              =  -8.6292588028979E+21
(PID.TID 0000.0001) %MON land_Tsrf_ave_G              =  -8.5314761886860E+00
(PID.TID 0000.0001) %MON land_Tsrf_ave_S              =  -7.3701840462674E+00
(PID.TID 0000.0001) %MON land_Tsrf_ave_T              =   9.9934535098202E+00
(PID.TID 0000.0001) %MON land_Tsrf_ave_N              =  -2.1278595527623E+01
(PID.TID 0000.0001) %MON land_Tsrf_min_S              =  -3.3669127795534E+01
(PID.TID 0000.0001) %MON land_Tsrf_min_T              =  -3.1518850381976E+00
(PID.TID 0000.0001) %MON land_Tsrf_min_N              =  -5.2035687158365E+01
(PID.TID 0000.0001) %MON land_Tsrf_max_S              =   2.0132934631240E+01
(PID.TID 0000.0001) %MON land_Tsrf_max_T              =   2.0141670154191E+01
(PID.TID 0000.0001) %MON land_Tsrf_max_N              =   8.0518553892330E+00
(PID.TID 0000.0001) %MON land_Tgr1_ave_G              =  -7.3291768324084E+00
(PID.TID 0000.0001) %MON land_Tgr1_ave_S              =  -7.2441184878586E+00
(PID.TID 0000.0001) %MON land_Tgr1_ave_T              =   9.9934535098202E+00
(PID.TID 0000.0001) %MON land_Tgr1_ave_N              =  -1.8924312333810E+01
(PID.TID 0000.0001) %MON land_Tgr1_min_S              =  -3.9317946782707E+01
(PID.TID 0000.0001) %MON land_Tgr1_min_T              =  -3.1518850381976E+00
(PID.TID 0000.0001) %MON land_Tgr1_min_N              =  -5.4645020302652E+01
(PID.TID 0000.0001) %MON land_Tgr1_max_S              =   2.0132934631240E+01
(PID.TID 0000.0001) %MON land_Tgr1_max_T              =   2.0141670154191E+01
(PID.TID 0000.0001) %MON land_Tgr1_max_N              =   8.0518553892330E+00
(PID.TID 0000.0001) %MON land_Tgr2_ave_G              =   4.2030345211914E+00
(PID.TID 0000.0001) %MON land_Tgr2_ave_S              =  -1.8725879626793E+01
(PID.TID 0000.0001) %MON land_Tgr2_ave_T              =   2.2008656179817E+01
(PID.TID 0000.0001) %MON land_Tgr2_ave_N              =  -2.4903592653444E-01
(PID.TID 0000.0001) %MON land_Tgr2_min_S              =  -6.4749780181391E+01
(PID.TID 0000.0001) %MON land_Tgr2_min_T              =  -9.7034288317237E+00
(PID.TID 0000.0001) %MON land_Tgr2_min_N              =  -4.0200519917930E+01
(PID.TID 0000.0001) %MON land_Tgr2_max_S              =   2.3359755442097E+01
(PID.TID 0000.0001) %MON land_Tgr2_max_T              =   3.1350030714922E+01
(PID.TID 0000.0001) %MON land_Tgr2_max_N              =   2.9819489580942E+01
(PID.TID 0000.0001) %MON land_grdW_ave_G              =   4.8672809106459E-01
(PID.TID 0000.0001) %MON land_grdW_ave_S              =   3.0849441582244E-01
(PID.TID 0000.0001) %MON land_grdW_ave_T              =   5.6410938422485E-01
(PID.TID 0000.0001) %MON land_grdW_ave_N              =   4.9287305749073E-01
(PID.TID 0000.0001) %MON land_grdW_min_S              =   2.7855669452145E-02
(PID.TID 0000.0001) %MON land_grdW_min_T              =   0.0000000000000E+00
(PID.TID 0000.0001) %MON land_grdW_min_N              =   0.0000000000000E+00
(PID.TID 0000.0001) // =======================================================
(PID.TID 0000.0001) // End MONITOR Land statistics
(PID.TID 0000.0001) // =======================================================
(PID.TID 0000.0001) // =======================================================
(PID.TID 0000.0001) // Begin MONITOR Therm.SeaIce statistics
(PID.TID 0000.0001) // =======================================================
(PID.TID 0000.0001) %MON thSI_time_sec                =   1.3050000000000E+04
(PID.TID 0000.0001) %MON thSI_Ice_Area_G              =   1.7301286637706E+11
(PID.TID 0000.0001) %MON thSI_Ice_Area_S              =   0.0000000000000E+00
(PID.TID 0000.0001) %MON thSI_Ice_Area_N              =   1.7301286637706E+11
(PID.TID 0000.0001) %MON thSI_IceH_ave_G              =   1.3972450094869E-01
(PID.TID 0000.0001) %MON thSI_IceH_ave_S              =   0.0000000000000E+00
(PID.TID 0000.0001) %MON thSI_IceH_ave_N              =   1.3972450094869E-01
(PID.TID 0000.0001) %MON thSI_IceH_max_S              =   0.0000000000000E+00
(PID.TID 0000.0001) %MON thSI_IceH_max_N              =   1.4901725340403E-01
(PID.TID 0000.0001) %MON thSI_SnwH_ave_G              =   0.0000000000000E+00
(PID.TID 0000.0001) %MON thSI_SnwH_ave_S              =   0.0000000000000E+00
(PID.TID 0000.0001) %MON thSI_SnwH_ave_N              =   0.0000000000000E+00
(PID.TID 0000.0001) %MON thSI_SnwH_max_S              =   0.0000000000000E+00
(PID.TID 0000.0001) %MON thSI_SnwH_max_N              =   0.0000000000000E+00
(PID.TID 0000.0001) %MON thSI_TotEnerg_G              =  -7.4749767239202E+18
(PID.TID 0000.0001) %MON thSI_Tsrf_ave_G              =  -9.2263458802438E+00
(PID.TID 0000.0001) %MON thSI_Tsrf_ave_S              =   0.0000000000000E+00
(PID.TID 0000.0001) %MON thSI_Tsrf_ave_N              =  -9.2263458802438E+00
(PID.TID 0000.0001) %MON thSI_Tsrf_min_S              =   0.0000000000000E+00
(PID.TID 0000.0001) %MON thSI_Tsrf_min_N              =  -9.3806510396469E+00
(PID.TID 0000.0001) %MON thSI_Tsrf_max_S              =   0.0000000000000E+00
(PID.TID 0000.0001) %MON thSI_Tsrf_max_N              =  -8.9289924695231E+00
(PID.TID 0000.0001) %MON thSI_Tic1_ave_G              =  -6.9660165327637E+00
(PID.TID 0000.0001) %MON thSI_Tic1_ave_S              =   0.0000000000000E+00
(PID.TID 0000.0001) %MON thSI_Tic1_ave_N              =  -6.9660165327637E+00
(PID.TID 0000.0001) %MON thSI_Tic1_min_S              =   0.0000000000000E+00
(PID.TID 0000.0001) %MON thSI_Tic1_min_N              =  -7.0197407787049E+00
(PID.TID 0000.0001) %MON thSI_Tic1_max_S              =   0.0000000000000E+00
(PID.TID 0000.0001) %MON thSI_Tic1_max_N              =  -6.8693540262658E+00
(PID.TID 0000.0001) %MON thSI_Tic2_ave_G              =  -3.3098316461928E+00
(PID.TID 0000.0001) %MON thSI_Tic2_ave_S              =   0.0000000000000E+00
(PID.TID 0000.0001) %MON thSI_Tic2_ave_N              =  -3.3098316461928E+00
(PID.TID 0000.0001) %MON thSI_Tic2_min_S              =   0.0000000000000E+00
(PID.TID 0000.0001) %MON thSI_Tic2_min_N              =  -3.3572580239877E+00
(PID.TID 0000.0001) %MON thSI_Tic2_max_S              =   0.0000000000000E+00
(PID.TID 0000.0001) %MON thSI_Tic2_max_N              =  -3.2625954748152E+00
(PID.TID 0000.0001) // =======================================================
(PID.TID 0000.0001) // End MONITOR Therm.SeaIce statistics
(PID.TID 0000.0001) // =======================================================
 cg2d: Sum(rhs),rhsMax =   5.82076609134674E-10  1.92497799182437E+04
(PID.TID 0000.0001)                    cg2d_init_res =    1.10028054068604E+04
(PID.TID 0000.0001)                       cg2d_iters =    16
(PID.TID 0000.0001)                         cg2d_res =    6.48139035803308E-11
(PID.TID 0000.0001) // =======================================================
(PID.TID 0000.0001) // Begin MONITOR dynamic field statistics
(PID.TID 0000.0001) // =======================================================
(PID.TID 0000.0001) %MON time_tsnumber                =                    30
(PID.TID 0000.0001) %MON time_secondsf                =   1.3500000000000E+04
(PID.TID 0000.0001) %MON dynstat_eta_max              =   3.2319994325533E+03
(PID.TID 0000.0001) %MON dynstat_eta_min              =  -7.5920110437337E+02
(PID.TID 0000.0001) %MON dynstat_eta_mean             =   6.4263031124062E-15
(PID.TID 0000.0001) %MON dynstat_eta_sd               =   4.7178842811426E+02
(PID.TID 0000.0001) %MON dynstat_eta_del2             =   3.6155643381987E+01
(PID.TID 0000.0001) %MON dynstat_uvel_max             =   4.9970090625888E+00
(PID.TID 0000.0001) %MON dynstat_uvel_min             =  -5.3375577766254E+00
(PID.TID 0000.0001) %MON dynstat_uvel_mean            =   3.9248383111938E-02
(PID.TID 0000.0001) %MON dynstat_uvel_sd              =   7.9891919653720E-01
(PID.TID 0000.0001) %MON dynstat_uvel_del2            =   2.7210983142343E-02
(PID.TID 0000.0001) %MON dynstat_vvel_max             =   5.1187565316195E+00
(PID.TID 0000.0001) %MON dynstat_vvel_min             =  -5.6320149119112E+00
(PID.TID 0000.0001) %MON dynstat_vvel_mean            =   2.3529039647934E-02
(PID.TID 0000.0001) %MON dynstat_vvel_sd              =   8.1633902368622E-01
(PID.TID 0000.0001) %MON dynstat_vvel_del2            =   2.6988885821789E-02
(PID.TID 0000.0001) %MON dynstat_wvel_max             =   2.2224326655283E-01
(PID.TID 0000.0001) %MON dynstat_wvel_min             =  -1.0421835212667E-01
(PID.TID 0000.0001) %MON dynstat_wvel_mean            =   5.6212032863873E-04
(PID.TID 0000.0001) %MON dynstat_wvel_sd              =   1.0277299362777E-02
(PID.TID 0000.0001) %MON dynstat_wvel_del2            =   2.0239315951654E-03
(PID.TID 0000.0001) %MON dynstat_theta_max            =   4.3813110562338E+02
(PID.TID 0000.0001) %MON dynstat_theta_min            =   2.8257466699642E+02
(PID.TID 0000.0001) %MON dynstat_theta_mean           =   3.3167475140181E+02
(PID.TID 0000.0001) %MON dynstat_theta_sd             =   4.7463373755459E+01
(PID.TID 0000.0001) %MON dynstat_theta_del2           =   3.0134401706264E-02
(PID.TID 0000.0001) %MON dynstat_salt_max             =   4.7403876574582E+00
(PID.TID 0000.0001) %MON dynstat_salt_min             =  -2.2142201962282E-02
(PID.TID 0000.0001) %MON dynstat_salt_mean            =   1.0727034065198E-01
(PID.TID 0000.0001) %MON dynstat_salt_sd              =   4.1695873312738E-01
(PID.TID 0000.0001) %MON dynstat_salt_del2            =   1.2568239592449E-02
(PID.TID 0000.0001) %MON advcfl_uvel_max              =   7.4843196655582E-03
(PID.TID 0000.0001) %MON advcfl_vvel_max              =   8.0518440045513E-03
(PID.TID 0000.0001) %MON advcfl_wvel_max              =   3.6567559177892E-03
(PID.TID 0000.0001) %MON advcfl_W_hf_max              =   1.8885911126229E-02
(PID.TID 0000.0001) %MON pe_b_mean                    =  -1.2245014077414E+00
(PID.TID 0000.0001) %MON ke_max                       =   1.5780521655640E+01
(PID.TID 0000.0001) %MON ke_mean                      =   6.4949351337834E-01
(PID.TID 0000.0001) %MON ke_vol                       =   4.9523908919847E+19
(PID.TID 0000.0001) %MON vort_r_min                   =  -2.0065586637003E-05
(PID.TID 0000.0001) %MON vort_r_max                   =   1.1694271489422E-05
(PID.TID 0000.0001) %MON vort_a_mean                  =   6.7059142262063E-08
(PID.TID 0000.0001) %MON vort_a_sd                    =   8.3774261105712E-05
(PID.TID 0000.0001) %MON vort_p_mean                  =   6.8751167629609E-08
(PID.TID 0000.0001) %MON vort_p_sd                    =   9.1463347333509E-05
(PID.TID 0000.0001) %MON surfExpan_theta_mean         =  -5.5652385388945E-02
(PID.TID 0000.0001) %MON surfExpan_salt_mean          =  -1.4527638124259E-03
(PID.TID 0000.0001) %MON surfExpan_Heat_mean          =   4.4002854686088E+00
(PID.TID 0000.0001) %MON En_Budget_T2PE_mean          =  -8.5199098514755E+00
(PID.TID 0000.0001) // =======================================================
(PID.TID 0000.0001) // End MONITOR dynamic field statistics
(PID.TID 0000.0001) // =======================================================
(PID.TID 0000.0001) // =======================================================
(PID.TID 0000.0001) // Begin MONITOR Land statistics
(PID.TID 0000.0001) // =======================================================
(PID.TID 0000.0001) %MON land_time_sec                =   1.3500000000000E+04
(PID.TID 0000.0001) %MON land_SnwH_ave_G              =   1.5321890816952E-01
(PID.TID 0000.0001) %MON land_SnwH_ave_S              =   5.5903683102189E-01
(PID.TID 0000.0001) %MON land_SnwH_ave_T              =   0.0000000000000E+00
(PID.TID 0000.0001) %MON land_SnwH_ave_N              =   1.2388912746839E-01
(PID.TID 0000.0001) %MON land_SnwH_max_S              =   9.9998361712131E-01
(PID.TID 0000.0001) %MON land_SnwH_max_T              =   0.0000000000000E+00
(PID.TID 0000.0001) %MON land_SnwH_max_N              =   9.9999802144164E-01
(PID.TID 0000.0001) %MON land_TotEnerg_G              =  -6.3577889829590E+21
(PID.TID 0000.0001) %MON land_TotEnerg_S              =  -5.0024391810635E+21
(PID.TID 0000.0001) %MON land_TotEnerg_T              =   7.2744612578592E+21
(PID.TID 0000.0001) %MON land_TotEnerg_N              =  -8.6298110597547E+21
(PID.TID 0000.0001) %MON land_Tsrf_ave_G              =  -8.5580033972411E+00
(PID.TID 0000.0001) %MON land_Tsrf_ave_S              =  -7.3776995818900E+00
(PID.TID 0000.0001) %MON land_Tsrf_ave_T              =   9.9364521607486E+00
(PID.TID 0000.0001) %MON land_Tsrf_ave_N              =  -2.1290940272230E+01
(PID.TID 0000.0001) %MON land_Tsrf_min_S              =  -3.3643929408860E+01
(PID.TID 0000.0001) %MON land_Tsrf_min_T              =  -3.0519814397581E+00
(PID.TID 0000.0001) %MON land_Tsrf_min_N              =  -5.2031435506269E+01
(PID.TID 0000.0001) %MON land_Tsrf_max_S              =   2.0089322350465E+01
(PID.TID 0000.0001) %MON land_Tsrf_max_T              =   2.0056484304095E+01
(PID.TID 0000.0001) %MON land_Tsrf_max_N              =   7.9617582903821E+00
(PID.TID 0000.0001) %MON land_Tgr1_ave_G              =  -7.3593488446806E+00
(PID.TID 0000.0001) %MON land_Tgr1_ave_S              =  -7.2575158144187E+00
(PID.TID 0000.0001) %MON land_Tgr1_ave_T              =   9.9364521607486E+00
(PID.TID 0000.0001) %MON land_Tgr1_ave_N              =  -1.8942010109840E+01
(PID.TID 0000.0001) %MON land_Tgr1_min_S              =  -3.9328745828670E+01
(PID.TID 0000.0001) %MON land_Tgr1_min_T              =  -3.0519814397581E+00
(PID.TID 0000.0001) %MON land_Tgr1_min_N              =  -5.4632622129268E+01
(PID.TID 0000.0001) %MON land_Tgr1_max_S              =   2.0089322350465E+01
(PID.TID 0000.0001) %MON land_Tgr1_max_T              =   2.0056484304095E+01
(PID.TID 0000.0001) %MON land_Tgr1_max_N              =   7.9617582903821E+00
(PID.TID 0000.0001) %MON land_Tgr2_ave_G              =   4.2028574173038E+00
(PID.TID 0000.0001) %MON land_Tgr2_ave_S              =  -1.8725687313807E+01
(PID.TID 0000.0001) %MON land_Tgr2_ave_T              =   2.2008461737735E+01
(PID.TID 0000.0001) %MON land_Tgr2_ave_N              =  -2.4932128906869E-01
(PID.TID 0000.0001) %MON land_Tgr2_min_S              =  -6.4749351753971E+01
(PID.TID 0000.0001) %MON land_Tgr2_min_T              =  -9.7033447919059E+00
(PID.TID 0000.0001) %MON land_Tgr2_min_N              =  -4.0200754272014E+01
(PID.TID 0000.0001) %MON land_Tgr2_max_S              =   2.3359684671949E+01
(PID.TID 0000.0001) %MON land_Tgr2_max_T              =   3.1349588879840E+01
(PID.TID 0000.0001) %MON land_Tgr2_max_N              =   2.9818940557502E+01
(PID.TID 0000.0001) %MON land_grdW_ave_G              =   4.8672072837858E-01
(PID.TID 0000.0001) %MON land_grdW_ave_S              =   3.0848694322495E-01
(PID.TID 0000.0001) %MON land_grdW_ave_T              =   5.6409148122151E-01
(PID.TID 0000.0001) %MON land_grdW_ave_N              =   4.9287276897325E-01
(PID.TID 0000.0001) %MON land_grdW_min_S              =   2.7942000980010E-02
(PID.TID 0000.0001) %MON land_grdW_min_T              =   0.0000000000000E+00
(PID.TID 0000.0001) %MON land_grdW_min_N              =   0.0000000000000E+00
(PID.TID 0000.0001) // =======================================================
(PID.TID 0000.0001) // End MONITOR Land statistics
(PID.TID 0000.0001) // =======================================================
(PID.TID 0000.0001) // =======================================================
(PID.TID 0000.0001) // Begin MONITOR Therm.SeaIce statistics
(PID.TID 0000.0001) // =======================================================
(PID.TID 0000.0001) %MON thSI_time_sec                =   1.3500000000000E+04
(PID.TID 0000.0001) %MON thSI_Ice_Area_G              =   1.7301286637706E+11
(PID.TID 0000.0001) %MON thSI_Ice_Area_S              =   0.0000000000000E+00
(PID.TID 0000.0001) %MON thSI_Ice_Area_N              =   1.7301286637706E+11
(PID.TID 0000.0001) %MON thSI_IceH_ave_G              =   1.3986384842654E-01
(PID.TID 0000.0001) %MON thSI_IceH_ave_S              =   0.0000000000000E+00
(PID.TID 0000.0001) %MON thSI_IceH_ave_N              =   1.3986384842654E-01
(PID.TID 0000.0001) %MON thSI_IceH_max_S              =   0.0000000000000E+00
(PID.TID 0000.0001) %MON thSI_IceH_max_N              =   1.4914498877239E-01
(PID.TID 0000.0001) %MON thSI_SnwH_ave_G              =   0.0000000000000E+00
(PID.TID 0000.0001) %MON thSI_SnwH_ave_S              =   0.0000000000000E+00
(PID.TID 0000.0001) %MON thSI_SnwH_ave_N              =   0.0000000000000E+00
(PID.TID 0000.0001) %MON thSI_SnwH_max_S              =   0.0000000000000E+00
(PID.TID 0000.0001) %MON thSI_SnwH_max_N              =   0.0000000000000E+00
(PID.TID 0000.0001) %MON thSI_TotEnerg_G              =  -7.4848649114985E+18
(PID.TID 0000.0001) %MON thSI_Tsrf_ave_G              =  -9.2740781650608E+00
(PID.TID 0000.0001) %MON thSI_Tsrf_ave_S              =   0.0000000000000E+00
(PID.TID 0000.0001) %MON thSI_Tsrf_ave_N              =  -9.2740781650608E+00
(PID.TID 0000.0001) %MON thSI_Tsrf_min_S              =   0.0000000000000E+00
(PID.TID 0000.0001) %MON thSI_Tsrf_min_N              =  -9.4356876660633E+00
(PID.TID 0000.0001) %MON thSI_Tsrf_max_S              =   0.0000000000000E+00
(PID.TID 0000.0001) %MON thSI_Tsrf_max_N              =  -8.9650073580401E+00
(PID.TID 0000.0001) %MON thSI_Tic1_ave_G              =  -7.0309464543449E+00
(PID.TID 0000.0001) %MON thSI_Tic1_ave_S              =   0.0000000000000E+00
(PID.TID 0000.0001) %MON thSI_Tic1_ave_N              =  -7.0309464543449E+00
(PID.TID 0000.0001) %MON thSI_Tic1_min_S              =   0.0000000000000E+00
(PID.TID 0000.0001) %MON thSI_Tic1_min_N              =  -7.0891799181988E+00
(PID.TID 0000.0001) %MON thSI_Tic1_max_S              =   0.0000000000000E+00
(PID.TID 0000.0001) %MON thSI_Tic1_max_N              =  -6.9194494483404E+00
(PID.TID 0000.0001) %MON thSI_Tic2_ave_G              =  -3.3398707858213E+00
(PID.TID 0000.0001) %MON thSI_Tic2_ave_S              =   0.0000000000000E+00
(PID.TID 0000.0001) %MON thSI_Tic2_ave_N              =  -3.3398707858213E+00
(PID.TID 0000.0001) %MON thSI_Tic2_min_S              =   0.0000000000000E+00
(PID.TID 0000.0001) %MON thSI_Tic2_min_N              =  -3.3827518925936E+00
(PID.TID 0000.0001) %MON thSI_Tic2_max_S              =   0.0000000000000E+00
(PID.TID 0000.0001) %MON thSI_Tic2_max_N              =  -3.2959887865038E+00
(PID.TID 0000.0001) // =======================================================
(PID.TID 0000.0001) // End MONITOR Therm.SeaIce statistics
(PID.TID 0000.0001) // =======================================================
 cg2d: Sum(rhs),rhsMax =   3.49245965480804E-10  1.87204401565898E+04
(PID.TID 0000.0001)                    cg2d_init_res =    1.08462812858001E+04
(PID.TID 0000.0001)                       cg2d_iters =    16
(PID.TID 0000.0001)                         cg2d_res =    6.31936868544252E-11
(PID.TID 0000.0001) // =======================================================
(PID.TID 0000.0001) // Begin MONITOR dynamic field statistics
(PID.TID 0000.0001) // =======================================================
(PID.TID 0000.0001) %MON time_tsnumber                =                    31
(PID.TID 0000.0001) %MON time_secondsf                =   1.3950000000000E+04
(PID.TID 0000.0001) %MON dynstat_eta_max              =   3.1557595141235E+03
(PID.TID 0000.0001) %MON dynstat_eta_min              =  -7.5872418820447E+02
(PID.TID 0000.0001) %MON dynstat_eta_mean             =  -1.1567345602331E-13
(PID.TID 0000.0001) %MON dynstat_eta_sd               =   4.6246585764430E+02
(PID.TID 0000.0001) %MON dynstat_eta_del2             =   3.6145860443904E+01
(PID.TID 0000.0001) %MON dynstat_uvel_max             =   4.8455333592607E+00
(PID.TID 0000.0001) %MON dynstat_uvel_min             =  -5.1752726664313E+00
(PID.TID 0000.0001) %MON dynstat_uvel_mean            =   4.6116424071276E-02
(PID.TID 0000.0001) %MON dynstat_uvel_sd              =   7.9048252953863E-01
(PID.TID 0000.0001) %MON dynstat_uvel_del2            =   2.7822845302508E-02
(PID.TID 0000.0001) %MON dynstat_vvel_max             =   5.0204467682087E+00
(PID.TID 0000.0001) %MON dynstat_vvel_min             =  -5.4372899885202E+00
(PID.TID 0000.0001) %MON dynstat_vvel_mean            =   2.2871282908952E-02
(PID.TID 0000.0001) %MON dynstat_vvel_sd              =   8.1273822526082E-01
(PID.TID 0000.0001) %MON dynstat_vvel_del2            =   2.7650971847844E-02
(PID.TID 0000.0001) %MON dynstat_wvel_max             =   2.1536949581765E-01
(PID.TID 0000.0001) %MON dynstat_wvel_min             =  -9.1524579876286E-02
(PID.TID 0000.0001) %MON dynstat_wvel_mean            =   5.3533328245963E-04
(PID.TID 0000.0001) %MON dynstat_wvel_sd              =   1.0104571557934E-02
(PID.TID 0000.0001) %MON dynstat_wvel_del2            =   2.0499280068526E-03
(PID.TID 0000.0001) %MON dynstat_theta_max            =   4.3810568585308E+02
(PID.TID 0000.0001) %MON dynstat_theta_min            =   2.8236066406686E+02
(PID.TID 0000.0001) %MON dynstat_theta_mean           =   3.3167252435144E+02
(PID.TID 0000.0001) %MON dynstat_theta_sd             =   4.7465451234457E+01
(PID.TID 0000.0001) %MON dynstat_theta_del2           =   3.1061389010258E-02
(PID.TID 0000.0001) %MON dynstat_salt_max             =   4.7774906266741E+00
(PID.TID 0000.0001) %MON dynstat_salt_min             =  -2.4390747421586E-02
(PID.TID 0000.0001) %MON dynstat_salt_mean            =   1.1058681943064E-01
(PID.TID 0000.0001) %MON dynstat_salt_sd              =   4.2837019944111E-01
(PID.TID 0000.0001) %MON dynstat_salt_del2            =   1.2884962505866E-02
(PID.TID 0000.0001) %MON advcfl_uvel_max              =   7.2653628571642E-03
(PID.TID 0000.0001) %MON advcfl_vvel_max              =   7.7734543462379E-03
(PID.TID 0000.0001) %MON advcfl_wvel_max              =   3.5242281133797E-03
(PID.TID 0000.0001) %MON advcfl_W_hf_max              =   1.9143847763777E-02
(PID.TID 0000.0001) %MON pe_b_mean                    =  -1.2217048678772E+00
(PID.TID 0000.0001) %MON ke_max                       =   1.5091123028410E+01
(PID.TID 0000.0001) %MON ke_mean                      =   6.4018512684927E-01
(PID.TID 0000.0001) %MON ke_vol                       =   4.9523908919847E+19
(PID.TID 0000.0001) %MON vort_r_min                   =  -1.9616100415103E-05
(PID.TID 0000.0001) %MON vort_r_max                   =   1.2254777618054E-05
(PID.TID 0000.0001) %MON vort_a_mean                  =   6.7059142261986E-08
(PID.TID 0000.0001) %MON vort_a_sd                    =   8.3776505409845E-05
(PID.TID 0000.0001) %MON vort_p_mean                  =   6.8751169223134E-08
(PID.TID 0000.0001) %MON vort_p_sd                    =   9.1447737448566E-05
(PID.TID 0000.0001) %MON surfExpan_theta_mean         =  -5.2739716819531E-02
(PID.TID 0000.0001) %MON surfExpan_salt_mean          =  -1.5380504725684E-03
(PID.TID 0000.0001) %MON surfExpan_Heat_mean          =   4.1709981849251E+00
(PID.TID 0000.0001) %MON En_Budget_T2PE_mean          =  -8.0815346636090E+00
(PID.TID 0000.0001) // =======================================================
(PID.TID 0000.0001) // End MONITOR dynamic field statistics
(PID.TID 0000.0001) // =======================================================
(PID.TID 0000.0001) // =======================================================
(PID.TID 0000.0001) // Begin MONITOR Land statistics
(PID.TID 0000.0001) // =======================================================
(PID.TID 0000.0001) %MON land_time_sec                =   1.3950000000000E+04
(PID.TID 0000.0001) %MON land_SnwH_ave_G              =   1.5321796466799E-01
(PID.TID 0000.0001) %MON land_SnwH_ave_S              =   5.5903597033099E-01
(PID.TID 0000.0001) %MON land_SnwH_ave_T              =   0.0000000000000E+00
(PID.TID 0000.0001) %MON land_SnwH_ave_N              =   1.2388752706103E-01
(PID.TID 0000.0001) %MON land_SnwH_max_S              =   9.9998305449128E-01
(PID.TID 0000.0001) %MON land_SnwH_max_T              =   0.0000000000000E+00
(PID.TID 0000.0001) %MON land_SnwH_max_N              =   9.9999795761303E-01
(PID.TID 0000.0001) %MON land_TotEnerg_G              =  -6.3588428329900E+21
(PID.TID 0000.0001) %MON land_TotEnerg_S              =  -5.0024575415541E+21
(PID.TID 0000.0001) %MON land_TotEnerg_T              =   7.2739687722830E+21
(PID.TID 0000.0001) %MON land_TotEnerg_N              =  -8.6303540637190E+21
(PID.TID 0000.0001) %MON land_Tsrf_ave_G              =  -8.5826717685437E+00
(PID.TID 0000.0001) %MON land_Tsrf_ave_S              =  -7.3846258821623E+00
(PID.TID 0000.0001) %MON land_Tsrf_ave_T              =   9.8839579441791E+00
(PID.TID 0000.0001) %MON land_Tsrf_ave_N              =  -2.1302782782145E+01
(PID.TID 0000.0001) %MON land_Tsrf_min_S              =  -3.3616977860649E+01
(PID.TID 0000.0001) %MON land_Tsrf_min_T              =  -2.9554643646624E+00
(PID.TID 0000.0001) %MON land_Tsrf_min_N              =  -5.2026935382918E+01
(PID.TID 0000.0001) %MON land_Tsrf_max_S              =   2.0052571616423E+01
(PID.TID 0000.0001) %MON land_Tsrf_max_T              =   1.9981193627130E+01
(PID.TID 0000.0001) %MON land_Tsrf_max_N              =   7.8777543791274E+00
(PID.TID 0000.0001) %MON land_Tgr1_ave_G              =  -7.3873221457558E+00
(PID.TID 0000.0001) %MON land_Tgr1_ave_S              =  -7.2691495102454E+00
(PID.TID 0000.0001) %MON land_Tgr1_ave_T              =   9.8839579441791E+00
(PID.TID 0000.0001) %MON land_Tgr1_ave_N              =  -1.8958909533079E+01
(PID.TID 0000.0001) %MON land_Tgr1_min_S              =  -3.9339501764541E+01
(PID.TID 0000.0001) %MON land_Tgr1_min_T              =  -2.9554643646624E+00
(PID.TID 0000.0001) %MON land_Tgr1_min_N              =  -5.4620240054011E+01
(PID.TID 0000.0001) %MON land_Tgr1_max_S              =   2.0052571616423E+01
(PID.TID 0000.0001) %MON land_Tgr1_max_T              =   1.9981193627130E+01
(PID.TID 0000.0001) %MON land_Tgr1_max_N              =   7.8777543791274E+00
(PID.TID 0000.0001) %MON land_Tgr2_ave_G              =   4.2026799297067E+00
(PID.TID 0000.0001) %MON land_Tgr2_ave_S              =  -1.8725495187340E+01
(PID.TID 0000.0001) %MON land_Tgr2_ave_T              =   2.2008266591747E+01
(PID.TID 0000.0001) %MON land_Tgr2_ave_N              =  -2.4960688546180E-01
(PID.TID 0000.0001) %MON land_Tgr2_min_S              =  -6.4748923530905E+01
(PID.TID 0000.0001) %MON land_Tgr2_min_T              =  -9.7032595339455E+00
(PID.TID 0000.0001) %MON land_Tgr2_min_N              =  -4.0200988394807E+01
(PID.TID 0000.0001) %MON land_Tgr2_max_S              =   2.3359612904652E+01
(PID.TID 0000.0001) %MON land_Tgr2_max_T              =   3.1349145160246E+01
(PID.TID 0000.0001) %MON land_Tgr2_max_N              =   2.9818387568671E+01
(PID.TID 0000.0001) %MON land_grdW_ave_G              =   4.8671342880639E-01
(PID.TID 0000.0001) %MON land_grdW_ave_S              =   3.0847951047020E-01
(PID.TID 0000.0001) %MON land_grdW_ave_T              =   5.6407374644875E-01
(PID.TID 0000.0001) %MON land_grdW_ave_N              =   4.9287248092471E-01
(PID.TID 0000.0001) %MON land_grdW_min_S              =   2.8028024129553E-02
(PID.TID 0000.0001) %MON land_grdW_min_T              =   0.0000000000000E+00
(PID.TID 0000.0001) %MON land_grdW_min_N              =   0.0000000000000E+00
(PID.TID 0000.0001) // =======================================================
(PID.TID 0000.0001) // End MONITOR Land statistics
(PID.TID 0000.0001) // =======================================================
(PID.TID 0000.0001) // =======================================================
(PID.TID 0000.0001) // Begin MONITOR Therm.SeaIce statistics
(PID.TID 0000.0001) // =======================================================
(PID.TID 0000.0001) %MON thSI_time_sec                =   1.3950000000000E+04
(PID.TID 0000.0001) %MON thSI_Ice_Area_G              =   1.7301286637706E+11
(PID.TID 0000.0001) %MON thSI_Ice_Area_S              =   0.0000000000000E+00
(PID.TID 0000.0001) %MON thSI_Ice_Area_N              =   1.7301286637706E+11
(PID.TID 0000.0001) %MON thSI_IceH_ave_G              =   1.4000540385241E-01
(PID.TID 0000.0001) %MON thSI_IceH_ave_S              =   0.0000000000000E+00
(PID.TID 0000.0001) %MON thSI_IceH_ave_N              =   1.4000540385241E-01
(PID.TID 0000.0001) %MON thSI_IceH_max_S              =   0.0000000000000E+00
(PID.TID 0000.0001) %MON thSI_IceH_max_N              =   1.4927515809568E-01
(PID.TID 0000.0001) %MON thSI_SnwH_ave_G              =   0.0000000000000E+00
(PID.TID 0000.0001) %MON thSI_SnwH_ave_S              =   0.0000000000000E+00
(PID.TID 0000.0001) %MON thSI_SnwH_ave_N              =   0.0000000000000E+00
(PID.TID 0000.0001) %MON thSI_SnwH_max_S              =   0.0000000000000E+00
(PID.TID 0000.0001) %MON thSI_SnwH_max_N              =   0.0000000000000E+00
(PID.TID 0000.0001) %MON thSI_TotEnerg_G              =  -7.4946707645012E+18
(PID.TID 0000.0001) %MON thSI_Tsrf_ave_G              =  -9.3171155121853E+00
(PID.TID 0000.0001) %MON thSI_Tsrf_ave_S              =   0.0000000000000E+00
(PID.TID 0000.0001) %MON thSI_Tsrf_ave_N              =  -9.3171155121853E+00
(PID.TID 0000.0001) %MON thSI_Tsrf_min_S              =   0.0000000000000E+00
(PID.TID 0000.0001) %MON thSI_Tsrf_min_N              =  -9.4861556163504E+00
(PID.TID 0000.0001) %MON thSI_Tsrf_max_S              =   0.0000000000000E+00
(PID.TID 0000.0001) %MON thSI_Tsrf_max_N              =  -8.9964559775246E+00
(PID.TID 0000.0001) %MON thSI_Tic1_ave_G              =  -7.0904886562147E+00
(PID.TID 0000.0001) %MON thSI_Tic1_ave_S              =   0.0000000000000E+00
(PID.TID 0000.0001) %MON thSI_Tic1_ave_N              =  -7.0904886562147E+00
(PID.TID 0000.0001) %MON thSI_Tic1_min_S              =   0.0000000000000E+00
(PID.TID 0000.0001) %MON thSI_Tic1_min_N              =  -7.1532242424548E+00
(PID.TID 0000.0001) %MON thSI_Tic1_max_S              =   0.0000000000000E+00
(PID.TID 0000.0001) %MON thSI_Tic1_max_N              =  -6.9642720856795E+00
(PID.TID 0000.0001) %MON thSI_Tic2_ave_G              =  -3.3674628332762E+00
(PID.TID 0000.0001) %MON thSI_Tic2_ave_S              =   0.0000000000000E+00
(PID.TID 0000.0001) %MON thSI_Tic2_ave_N              =  -3.3674628332762E+00
(PID.TID 0000.0001) %MON thSI_Tic2_min_S              =   0.0000000000000E+00
(PID.TID 0000.0001) %MON thSI_Tic2_min_N              =  -3.4058178456312E+00
(PID.TID 0000.0001) %MON thSI_Tic2_max_S              =   0.0000000000000E+00
(PID.TID 0000.0001) %MON thSI_Tic2_max_N              =  -3.3227327391385E+00
(PID.TID 0000.0001) // =======================================================
(PID.TID 0000.0001) // End MONITOR Therm.SeaIce statistics
(PID.TID 0000.0001) // =======================================================
 cg2d: Sum(rhs),rhsMax =  -3.14321368932724E-09  1.82838945179340E+04
(PID.TID 0000.0001)                    cg2d_init_res =    1.06743973463137E+04
(PID.TID 0000.0001)                       cg2d_iters =    16
(PID.TID 0000.0001)                         cg2d_res =    6.17882289475408E-11
(PID.TID 0000.0001) // =======================================================
(PID.TID 0000.0001) // Begin MONITOR dynamic field statistics
(PID.TID 0000.0001) // =======================================================
(PID.TID 0000.0001) %MON time_tsnumber                =                    32
(PID.TID 0000.0001) %MON time_secondsf                =   1.4400000000000E+04
(PID.TID 0000.0001) %MON dynstat_eta_max              =   3.0831044256741E+03
(PID.TID 0000.0001) %MON dynstat_eta_min              =  -7.5891969896941E+02
(PID.TID 0000.0001) %MON dynstat_eta_mean             =  -1.0282084979850E-13
(PID.TID 0000.0001) %MON dynstat_eta_sd               =   4.5405362531196E+02
(PID.TID 0000.0001) %MON dynstat_eta_del2             =   3.6149675837818E+01
(PID.TID 0000.0001) %MON dynstat_uvel_max             =   4.6902736431430E+00
(PID.TID 0000.0001) %MON dynstat_uvel_min             =  -4.9497720276625E+00
(PID.TID 0000.0001) %MON dynstat_uvel_mean            =   5.3107199639482E-02
(PID.TID 0000.0001) %MON dynstat_uvel_sd              =   7.8189266861360E-01
(PID.TID 0000.0001) %MON dynstat_uvel_del2            =   2.8469822508567E-02
(PID.TID 0000.0001) %MON dynstat_vvel_max             =   4.8928640103603E+00
(PID.TID 0000.0001) %MON dynstat_vvel_min             =  -5.2278466769835E+00
(PID.TID 0000.0001) %MON dynstat_vvel_mean            =   2.2420829677279E-02
(PID.TID 0000.0001) %MON dynstat_vvel_sd              =   8.0762448512955E-01
(PID.TID 0000.0001) %MON dynstat_vvel_del2            =   2.8304270906085E-02
(PID.TID 0000.0001) %MON dynstat_wvel_max             =   2.0866220763796E-01
(PID.TID 0000.0001) %MON dynstat_wvel_min             =  -9.1381808104334E-02
(PID.TID 0000.0001) %MON dynstat_wvel_mean            =   5.0056921546498E-04
(PID.TID 0000.0001) %MON dynstat_wvel_sd              =   9.9146266510850E-03
(PID.TID 0000.0001) %MON dynstat_wvel_del2            =   2.0752650156605E-03
(PID.TID 0000.0001) %MON dynstat_theta_max            =   4.3806311611153E+02
(PID.TID 0000.0001) %MON dynstat_theta_min            =   2.8214738145333E+02
(PID.TID 0000.0001) %MON dynstat_theta_mean           =   3.3167027250391E+02
(PID.TID 0000.0001) %MON dynstat_theta_sd             =   4.7467536482724E+01
(PID.TID 0000.0001) %MON dynstat_theta_del2           =   3.1988841685307E-02
(PID.TID 0000.0001) %MON dynstat_salt_max             =   4.8124189264603E+00
(PID.TID 0000.0001) %MON dynstat_salt_min             =  -2.6698550556672E-02
(PID.TID 0000.0001) %MON dynstat_salt_mean            =   1.1389320818851E-01
(PID.TID 0000.0001) %MON dynstat_salt_sd              =   4.3968510380675E-01
(PID.TID 0000.0001) %MON dynstat_salt_del2            =   1.3200152393978E-02
(PID.TID 0000.0001) %MON advcfl_uvel_max              =   6.9807484938579E-03
(PID.TID 0000.0001) %MON advcfl_vvel_max              =   7.4740224557570E-03
(PID.TID 0000.0001) %MON advcfl_wvel_max              =   3.4144724886211E-03
(PID.TID 0000.0001) %MON advcfl_W_hf_max              =   1.9242060982896E-02
(PID.TID 0000.0001) %MON pe_b_mean                    =  -1.2174590823028E+00
(PID.TID 0000.0001) %MON ke_max                       =   1.4247494542199E+01
(PID.TID 0000.0001) %MON ke_mean                      =   6.2968407709288E-01
(PID.TID 0000.0001) %MON ke_vol                       =   4.9523908919847E+19
(PID.TID 0000.0001) %MON vort_r_min                   =  -1.9093615753250E-05
(PID.TID 0000.0001) %MON vort_r_max                   =   1.2840143694192E-05
(PID.TID 0000.0001) %MON vort_a_mean                  =   6.7059142262105E-08
(PID.TID 0000.0001) %MON vort_a_sd                    =   8.3778682282677E-05
(PID.TID 0000.0001) %MON vort_p_mean                  =   6.8751170747395E-08
(PID.TID 0000.0001) %MON vort_p_sd                    =   9.1433300840371E-05
(PID.TID 0000.0001) %MON surfExpan_theta_mean         =  -4.9087541562776E-02
(PID.TID 0000.0001) %MON surfExpan_salt_mean          =  -1.6154440367608E-03
(PID.TID 0000.0001) %MON surfExpan_Heat_mean          =   3.8780276969354E+00
(PID.TID 0000.0001) %MON En_Budget_T2PE_mean          =  -7.5245898330578E+00
(PID.TID 0000.0001) // =======================================================
(PID.TID 0000.0001) // End MONITOR dynamic field statistics
(PID.TID 0000.0001) // =======================================================
(PID.TID 0000.0001) // =======================================================
(PID.TID 0000.0001) // Begin MONITOR Land statistics
(PID.TID 0000.0001) // =======================================================
(PID.TID 0000.0001) %MON land_time_sec                =   1.4400000000000E+04
(PID.TID 0000.0001) %MON land_SnwH_ave_G              =   1.5321702359842E-01
(PID.TID 0000.0001) %MON land_SnwH_ave_S              =   5.5903511497087E-01
(PID.TID 0000.0001) %MON land_SnwH_ave_T              =   0.0000000000000E+00
(PID.TID 0000.0001) %MON land_SnwH_ave_N              =   1.2388592976925E-01
(PID.TID 0000.0001) %MON land_SnwH_max_S              =   9.9998249046544E-01
(PID.TID 0000.0001) %MON land_SnwH_max_T              =   0.0000000000000E+00
(PID.TID 0000.0001) %MON land_SnwH_max_N              =   9.9999789373909E-01
(PID.TID 0000.0001) %MON land_TotEnerg_G              =  -6.3598487556156E+21
(PID.TID 0000.0001) %MON land_TotEnerg_S              =  -5.0024705731825E+21
(PID.TID 0000.0001) %MON land_TotEnerg_T              =   7.2735099841982E+21
(PID.TID 0000.0001) %MON land_TotEnerg_N              =  -8.6308881666314E+21
(PID.TID 0000.0001) %MON land_Tsrf_ave_G              =  -8.6054496234240E+00
(PID.TID 0000.0001) %MON land_Tsrf_ave_S              =  -7.3901619368658E+00
(PID.TID 0000.0001) %MON land_Tsrf_ave_T              =   9.8355077275934E+00
(PID.TID 0000.0001) %MON land_Tsrf_ave_N              =  -2.1314010523811E+01
(PID.TID 0000.0001) %MON land_Tsrf_min_S              =  -3.3588674561239E+01
(PID.TID 0000.0001) %MON land_Tsrf_min_T              =  -2.8622935736125E+00
(PID.TID 0000.0001) %MON land_Tsrf_min_N              =  -5.2021940811882E+01
(PID.TID 0000.0001) %MON land_Tsrf_max_S              =   2.0021978077681E+01
(PID.TID 0000.0001) %MON land_Tsrf_max_T              =   1.9914864841637E+01
(PID.TID 0000.0001) %MON land_Tsrf_max_N              =   7.7995785419519E+00
(PID.TID 0000.0001) %MON land_Tgr1_ave_G              =  -7.4132539846077E+00
(PID.TID 0000.0001) %MON land_Tgr1_ave_S              =  -7.2792295590940E+00
(PID.TID 0000.0001) %MON land_Tgr1_ave_T              =   9.8355077275934E+00
(PID.TID 0000.0001) %MON land_Tgr1_ave_N              =  -1.8974946485625E+01
(PID.TID 0000.0001) %MON land_Tgr1_min_S              =  -3.9350212865172E+01
(PID.TID 0000.0001) %MON land_Tgr1_min_T              =  -2.8622935736125E+00
(PID.TID 0000.0001) %MON land_Tgr1_min_N              =  -5.4607873568920E+01
(PID.TID 0000.0001) %MON land_Tgr1_max_S              =   2.0021978077681E+01
(PID.TID 0000.0001) %MON land_Tgr1_max_T              =   1.9914864841637E+01
(PID.TID 0000.0001) %MON land_Tgr1_max_N              =   7.7995785419519E+00
(PID.TID 0000.0001) %MON land_Tgr2_ave_G              =   4.2025021114058E+00
(PID.TID 0000.0001) %MON land_Tgr2_ave_S              =  -1.8725303222737E+01
(PID.TID 0000.0001) %MON land_Tgr2_ave_T              =   2.2008070865123E+01
(PID.TID 0000.0001) %MON land_Tgr2_ave_N              =  -2.4989270043204E-01
(PID.TID 0000.0001) %MON land_Tgr2_min_S              =  -6.4748495511401E+01
(PID.TID 0000.0001) %MON land_Tgr2_min_T              =  -9.7031731001420E+00
(PID.TID 0000.0001) %MON land_Tgr2_min_N              =  -4.0201222287202E+01
(PID.TID 0000.0001) %MON land_Tgr2_max_S              =   2.3359540247786E+01
(PID.TID 0000.0001) %MON land_Tgr2_max_T              =   3.1348699679097E+01
(PID.TID 0000.0001) %MON land_Tgr2_max_N              =   2.9817830768325E+01
(PID.TID 0000.0001) %MON land_grdW_ave_G              =   4.8670618612730E-01
(PID.TID 0000.0001) %MON land_grdW_ave_S              =   3.0847211311174E-01
(PID.TID 0000.0001) %MON land_grdW_ave_T              =   5.6405616373181E-01
(PID.TID 0000.0001) %MON land_grdW_ave_N              =   4.9287219319586E-01
(PID.TID 0000.0001) %MON land_grdW_min_S              =   2.8113696619718E-02
(PID.TID 0000.0001) %MON land_grdW_min_T              =   0.0000000000000E+00
(PID.TID 0000.0001) %MON land_grdW_min_N              =   0.0000000000000E+00
(PID.TID 0000.0001) // =======================================================
(PID.TID 0000.0001) // End MONITOR Land statistics
(PID.TID 0000.0001) // =======================================================
(PID.TID 0000.0001) // =======================================================
(PID.TID 0000.0001) // Begin MONITOR Therm.SeaIce statistics
(PID.TID 0000.0001) // =======================================================
(PID.TID 0000.0001) %MON thSI_time_sec                =   1.4400000000000E+04
(PID.TID 0000.0001) %MON thSI_Ice_Area_G              =   1.7301286637706E+11
(PID.TID 0000.0001) %MON thSI_Ice_Area_S              =   0.0000000000000E+00
(PID.TID 0000.0001) %MON thSI_Ice_Area_N              =   1.7301286637706E+11
(PID.TID 0000.0001) %MON thSI_IceH_ave_G              =   1.4014896504616E-01
(PID.TID 0000.0001) %MON thSI_IceH_ave_S              =   0.0000000000000E+00
(PID.TID 0000.0001) %MON thSI_IceH_ave_N              =   1.4014896504616E-01
(PID.TID 0000.0001) %MON thSI_IceH_max_S              =   0.0000000000000E+00
(PID.TID 0000.0001) %MON thSI_IceH_max_N              =   1.4940757105487E-01
(PID.TID 0000.0001) %MON thSI_SnwH_ave_G              =   0.0000000000000E+00
(PID.TID 0000.0001) %MON thSI_SnwH_ave_S              =   0.0000000000000E+00
(PID.TID 0000.0001) %MON thSI_SnwH_ave_N              =   0.0000000000000E+00
(PID.TID 0000.0001) %MON thSI_SnwH_max_S              =   0.0000000000000E+00
(PID.TID 0000.0001) %MON thSI_SnwH_max_N              =   0.0000000000000E+00
(PID.TID 0000.0001) %MON thSI_TotEnerg_G              =  -7.5043965285877E+18
(PID.TID 0000.0001) %MON thSI_Tsrf_ave_G              =  -9.3555871821286E+00
(PID.TID 0000.0001) %MON thSI_Tsrf_ave_S              =   0.0000000000000E+00
(PID.TID 0000.0001) %MON thSI_Tsrf_ave_N              =  -9.3555871821286E+00
(PID.TID 0000.0001) %MON thSI_Tsrf_min_S              =   0.0000000000000E+00
(PID.TID 0000.0001) %MON thSI_Tsrf_min_N              =  -9.5322709283790E+00
(PID.TID 0000.0001) %MON thSI_Tsrf_max_S              =   0.0000000000000E+00
(PID.TID 0000.0001) %MON thSI_Tsrf_max_N              =  -9.0236783154184E+00
(PID.TID 0000.0001) %MON thSI_Tic1_ave_G              =  -7.1449478659536E+00
(PID.TID 0000.0001) %MON thSI_Tic1_ave_S              =   0.0000000000000E+00
(PID.TID 0000.0001) %MON thSI_Tic1_ave_N              =  -7.1449478659536E+00
(PID.TID 0000.0001) %MON thSI_Tic1_min_S              =   0.0000000000000E+00
(PID.TID 0000.0001) %MON thSI_Tic1_min_N              =  -7.2121726765169E+00
(PID.TID 0000.0001) %MON thSI_Tic1_max_S              =   0.0000000000000E+00
(PID.TID 0000.0001) %MON thSI_Tic1_max_N              =  -7.0042276417269E+00
(PID.TID 0000.0001) %MON thSI_Tic2_ave_G              =  -3.3927923557227E+00
(PID.TID 0000.0001) %MON thSI_Tic2_ave_S              =   0.0000000000000E+00
(PID.TID 0000.0001) %MON thSI_Tic2_ave_N              =  -3.3927923557227E+00
(PID.TID 0000.0001) %MON thSI_Tic2_min_S              =   0.0000000000000E+00
(PID.TID 0000.0001) %MON thSI_Tic2_min_N              =  -3.4294906597072E+00
(PID.TID 0000.0001) %MON thSI_Tic2_max_S              =   0.0000000000000E+00
(PID.TID 0000.0001) %MON thSI_Tic2_max_N              =  -3.3471835454462E+00
(PID.TID 0000.0001) // =======================================================
(PID.TID 0000.0001) // End MONITOR Therm.SeaIce statistics
(PID.TID 0000.0001) // =======================================================
 cg2d: Sum(rhs),rhsMax =   5.82076609134674E-10  1.79298508325550E+04
(PID.TID 0000.0001)                    cg2d_init_res =    1.04924905437169E+04
(PID.TID 0000.0001)                       cg2d_iters =    16
(PID.TID 0000.0001)                         cg2d_res =    6.03825325717879E-11
(PID.TID 0000.0001) // =======================================================
(PID.TID 0000.0001) // Begin MONITOR dynamic field statistics
(PID.TID 0000.0001) // =======================================================
(PID.TID 0000.0001) %MON time_tsnumber                =                    33
(PID.TID 0000.0001) %MON time_secondsf                =   1.4850000000000E+04
(PID.TID 0000.0001) %MON dynstat_eta_max              =   3.0294386078160E+03
(PID.TID 0000.0001) %MON dynstat_eta_min              =  -7.5979211558497E+02
(PID.TID 0000.0001) %MON dynstat_eta_mean             =  -8.9968243573687E-14
(PID.TID 0000.0001) %MON dynstat_eta_sd               =   4.4666516897290E+02
(PID.TID 0000.0001) %MON dynstat_eta_del2             =   3.6178828947736E+01
(PID.TID 0000.0001) %MON dynstat_uvel_max             =   4.5361069889177E+00
(PID.TID 0000.0001) %MON dynstat_uvel_min             =  -4.8384542740136E+00
(PID.TID 0000.0001) %MON dynstat_uvel_mean            =   6.0116060601810E-02
(PID.TID 0000.0001) %MON dynstat_uvel_sd              =   7.7327165953828E-01
(PID.TID 0000.0001) %MON dynstat_uvel_del2            =   2.9169560069527E-02
(PID.TID 0000.0001) %MON dynstat_vvel_max             =   4.7423543603477E+00
(PID.TID 0000.0001) %MON dynstat_vvel_min             =  -5.0137905066284E+00
(PID.TID 0000.0001) %MON dynstat_vvel_mean            =   2.2239762702453E-02
(PID.TID 0000.0001) %MON dynstat_vvel_sd              =   8.0118066285873E-01
(PID.TID 0000.0001) %MON dynstat_vvel_del2            =   2.8949400753400E-02
(PID.TID 0000.0001) %MON dynstat_wvel_max             =   1.9745164330082E-01
(PID.TID 0000.0001) %MON dynstat_wvel_min             =  -9.3213144382955E-02
(PID.TID 0000.0001) %MON dynstat_wvel_mean            =   4.6021185208486E-04
(PID.TID 0000.0001) %MON dynstat_wvel_sd              =   9.7184420904610E-03
(PID.TID 0000.0001) %MON dynstat_wvel_del2            =   2.0983844271491E-03
(PID.TID 0000.0001) %MON dynstat_theta_max            =   4.3805764877524E+02
(PID.TID 0000.0001) %MON dynstat_theta_min            =   2.8193462918363E+02
(PID.TID 0000.0001) %MON dynstat_theta_mean           =   3.3166799662720E+02
(PID.TID 0000.0001) %MON dynstat_theta_sd             =   4.7469631108119E+01
(PID.TID 0000.0001) %MON dynstat_theta_del2           =   3.2931291161823E-02
(PID.TID 0000.0001) %MON dynstat_salt_max             =   4.8455372628856E+00
(PID.TID 0000.0001) %MON dynstat_salt_min             =  -2.9063624213884E-02
(PID.TID 0000.0001) %MON dynstat_salt_mean            =   1.1718843576510E-01
(PID.TID 0000.0001) %MON dynstat_salt_sd              =   4.5090049159500E-01
(PID.TID 0000.0001) %MON dynstat_salt_del2            =   1.3512740293772E-02
(PID.TID 0000.0001) %MON advcfl_uvel_max              =   6.8237551542088E-03
(PID.TID 0000.0001) %MON advcfl_vvel_max              =   7.2536607652422E-03
(PID.TID 0000.0001) %MON advcfl_wvel_max              =   3.2310268903770E-03
(PID.TID 0000.0001) %MON advcfl_W_hf_max              =   1.9199598924867E-02
(PID.TID 0000.0001) %MON pe_b_mean                    =  -1.2120221034540E+00
(PID.TID 0000.0001) %MON ke_max                       =   1.3298772022669E+01
(PID.TID 0000.0001) %MON ke_mean                      =   6.1825437364520E-01
(PID.TID 0000.0001) %MON ke_vol                       =   4.9523908919847E+19
(PID.TID 0000.0001) %MON vort_r_min                   =  -1.8526281481186E-05
(PID.TID 0000.0001) %MON vort_r_max                   =   1.3450833491074E-05
(PID.TID 0000.0001) %MON vort_a_mean                  =   6.7059142262013E-08
(PID.TID 0000.0001) %MON vort_a_sd                    =   8.3780786157913E-05
(PID.TID 0000.0001) %MON vort_p_mean                  =   6.8751172132132E-08
(PID.TID 0000.0001) %MON vort_p_sd                    =   9.1420070423098E-05
(PID.TID 0000.0001) %MON surfExpan_theta_mean         =  -4.4933424880130E-02
(PID.TID 0000.0001) %MON surfExpan_salt_mean          =  -1.6834352667713E-03
(PID.TID 0000.0001) %MON surfExpan_Heat_mean          =   3.5412952577338E+00
(PID.TID 0000.0001) %MON En_Budget_T2PE_mean          =  -6.8863116891367E+00
(PID.TID 0000.0001) // =======================================================
(PID.TID 0000.0001) // End MONITOR dynamic field statistics
(PID.TID 0000.0001) // =======================================================
(PID.TID 0000.0001) // =======================================================
(PID.TID 0000.0001) // Begin MONITOR Land statistics
(PID.TID 0000.0001) // =======================================================
(PID.TID 0000.0001) %MON land_time_sec                =   1.4850000000000E+04
(PID.TID 0000.0001) %MON land_SnwH_ave_G              =   1.5321608513803E-01
(PID.TID 0000.0001) %MON land_SnwH_ave_S              =   5.5903426486052E-01
(PID.TID 0000.0001) %MON land_SnwH_ave_T              =   0.0000000000000E+00
(PID.TID 0000.0001) %MON land_SnwH_ave_N              =   1.2388433597239E-01
(PID.TID 0000.0001) %MON land_SnwH_max_S              =   9.9998192495670E-01
(PID.TID 0000.0001) %MON land_SnwH_max_T              =   0.0000000000000E+00
(PID.TID 0000.0001) %MON land_SnwH_max_N              =   9.9999782981569E-01
(PID.TID 0000.0001) %MON land_TotEnerg_G              =  -6.3608107302703E+21
(PID.TID 0000.0001) %MON land_TotEnerg_S              =  -5.0024789151319E+21
(PID.TID 0000.0001) %MON land_TotEnerg_T              =   7.2730818874773E+21
(PID.TID 0000.0001) %MON land_TotEnerg_N              =  -8.6314137026157E+21
(PID.TID 0000.0001) %MON land_Tsrf_ave_G              =  -8.6264239655242E+00
(PID.TID 0000.0001) %MON land_Tsrf_ave_S              =  -7.3935567013553E+00
(PID.TID 0000.0001) %MON land_Tsrf_ave_T              =   9.7904803774765E+00
(PID.TID 0000.0001) %MON land_Tsrf_ave_N              =  -2.1324625682408E+01
(PID.TID 0000.0001) %MON land_Tsrf_min_S              =  -3.3559310695108E+01
(PID.TID 0000.0001) %MON land_Tsrf_min_T              =  -2.7724288887332E+00
(PID.TID 0000.0001) %MON land_Tsrf_min_N              =  -5.2016259186179E+01
(PID.TID 0000.0001) %MON land_Tsrf_max_S              =   1.9996901152593E+01
(PID.TID 0000.0001) %MON land_Tsrf_max_T              =   1.9856642204755E+01
(PID.TID 0000.0001) %MON land_Tsrf_max_N              =   7.7269809827048E+00
(PID.TID 0000.0001) %MON land_Tgr1_ave_G              =  -7.4374204662237E+00
(PID.TID 0000.0001) %MON land_Tgr1_ave_S              =  -7.2879419729586E+00
(PID.TID 0000.0001) %MON land_Tgr1_ave_T              =   9.7904803774765E+00
(PID.TID 0000.0001) %MON land_Tgr1_ave_N              =  -1.8990195898180E+01
(PID.TID 0000.0001) %MON land_Tgr1_min_S              =  -3.9360877676936E+01
(PID.TID 0000.0001) %MON land_Tgr1_min_T              =  -2.7724288887332E+00
(PID.TID 0000.0001) %MON land_Tgr1_min_N              =  -5.4595521979329E+01
(PID.TID 0000.0001) %MON land_Tgr1_max_S              =   1.9996901152593E+01
(PID.TID 0000.0001) %MON land_Tgr1_max_T              =   1.9856642204755E+01
(PID.TID 0000.0001) %MON land_Tgr1_max_N              =   7.7269809827048E+00
(PID.TID 0000.0001) %MON land_Tgr2_ave_G              =   4.2023239699224E+00
(PID.TID 0000.0001) %MON land_Tgr2_ave_S              =  -1.8725111398478E+01
(PID.TID 0000.0001) %MON land_Tgr2_ave_T              =   2.2007874548131E+01
(PID.TID 0000.0001) %MON land_Tgr2_ave_N              =  -2.5017871947758E-01
(PID.TID 0000.0001) %MON land_Tgr2_min_S              =  -6.4748067694653E+01
(PID.TID 0000.0001) %MON land_Tgr2_min_T              =  -9.7030855322858E+00
(PID.TID 0000.0001) %MON land_Tgr2_min_N              =  -4.0201455950049E+01
(PID.TID 0000.0001) %MON land_Tgr2_max_S              =   2.3359466800844E+01
(PID.TID 0000.0001) %MON land_Tgr2_max_T              =   3.1348252553614E+01
(PID.TID 0000.0001) %MON land_Tgr2_max_N              =   2.9817270304455E+01
(PID.TID 0000.0001) %MON land_grdW_ave_G              =   4.8669899468602E-01
(PID.TID 0000.0001) %MON land_grdW_ave_S              =   3.0846474725673E-01
(PID.TID 0000.0001) %MON land_grdW_ave_T              =   5.6403871851117E-01
(PID.TID 0000.0001) %MON land_grdW_ave_N              =   4.9287190550563E-01
(PID.TID 0000.0001) %MON land_grdW_min_S              =   2.8198975730578E-02
(PID.TID 0000.0001) %MON land_grdW_min_T              =   0.0000000000000E+00
(PID.TID 0000.0001) %MON land_grdW_min_N              =   0.0000000000000E+00
(PID.TID 0000.0001) // =======================================================
(PID.TID 0000.0001) // End MONITOR Land statistics
(PID.TID 0000.0001) // =======================================================
(PID.TID 0000.0001) // =======================================================
(PID.TID 0000.0001) // Begin MONITOR Therm.SeaIce statistics
(PID.TID 0000.0001) // =======================================================
(PID.TID 0000.0001) %MON thSI_time_sec                =   1.4850000000000E+04
(PID.TID 0000.0001) %MON thSI_Ice_Area_G              =   1.7534053164420E+11
(PID.TID 0000.0001) %MON thSI_Ice_Area_S              =   0.0000000000000E+00
(PID.TID 0000.0001) %MON thSI_Ice_Area_N              =   1.7534053164420E+11
(PID.TID 0000.0001) %MON thSI_IceH_ave_G              =   1.3975925058995E-01
(PID.TID 0000.0001) %MON thSI_IceH_ave_S              =   0.0000000000000E+00
(PID.TID 0000.0001) %MON thSI_IceH_ave_N              =   1.3975925058995E-01
(PID.TID 0000.0001) %MON thSI_IceH_max_S              =   0.0000000000000E+00
(PID.TID 0000.0001) %MON thSI_IceH_max_N              =   1.4954185480867E-01
(PID.TID 0000.0001) %MON thSI_SnwH_ave_G              =   0.0000000000000E+00
(PID.TID 0000.0001) %MON thSI_SnwH_ave_S              =   0.0000000000000E+00
(PID.TID 0000.0001) %MON thSI_SnwH_ave_N              =   0.0000000000000E+00
(PID.TID 0000.0001) %MON thSI_SnwH_max_S              =   0.0000000000000E+00
(PID.TID 0000.0001) %MON thSI_SnwH_max_N              =   0.0000000000000E+00
(PID.TID 0000.0001) %MON thSI_TotEnerg_G              =  -7.5836370302624E+18
(PID.TID 0000.0001) %MON thSI_Tsrf_ave_G              =  -9.2877727540690E+00
(PID.TID 0000.0001) %MON thSI_Tsrf_ave_S              =   0.0000000000000E+00
(PID.TID 0000.0001) %MON thSI_Tsrf_ave_N              =  -9.2877727540690E+00
(PID.TID 0000.0001) %MON thSI_Tsrf_min_S              =   0.0000000000000E+00
(PID.TID 0000.0001) %MON thSI_Tsrf_min_N              =  -9.5742486960012E+00
(PID.TID 0000.0001) %MON thSI_Tsrf_max_S              =   0.0000000000000E+00
(PID.TID 0000.0001) %MON thSI_Tsrf_max_N              =  -1.6817785249263E+00
(PID.TID 0000.0001) %MON thSI_Tic1_ave_G              =  -7.1423167075093E+00
(PID.TID 0000.0001) %MON thSI_Tic1_ave_S              =   0.0000000000000E+00
(PID.TID 0000.0001) %MON thSI_Tic1_ave_N              =  -7.1423167075093E+00
(PID.TID 0000.0001) %MON thSI_Tic1_min_S              =   0.0000000000000E+00
(PID.TID 0000.0001) %MON thSI_Tic1_min_N              =  -7.2663203792234E+00
(PID.TID 0000.0001) %MON thSI_Tic1_max_S              =   0.0000000000000E+00
(PID.TID 0000.0001) %MON thSI_Tic1_max_N              =  -1.6817785249263E+00
(PID.TID 0000.0001) %MON thSI_Tic2_ave_G              =  -3.3995804294515E+00
(PID.TID 0000.0001) %MON thSI_Tic2_ave_S              =   0.0000000000000E+00
(PID.TID 0000.0001) %MON thSI_Tic2_ave_N              =  -3.3995804294515E+00
(PID.TID 0000.0001) %MON thSI_Tic2_min_S              =   0.0000000000000E+00
(PID.TID 0000.0001) %MON thSI_Tic2_min_N              =  -3.4536094692190E+00
(PID.TID 0000.0001) %MON thSI_Tic2_max_S              =   0.0000000000000E+00
(PID.TID 0000.0001) %MON thSI_Tic2_max_N              =  -1.6817785249263E+00
(PID.TID 0000.0001) // =======================================================
(PID.TID 0000.0001) // End MONITOR Therm.SeaIce statistics
(PID.TID 0000.0001) // =======================================================
 cg2d: Sum(rhs),rhsMax =  -1.16415321826935E-09  1.76469719152024E+04
(PID.TID 0000.0001)                    cg2d_init_res =    1.03076161447970E+04
(PID.TID 0000.0001)                       cg2d_iters =    16
(PID.TID 0000.0001)                         cg2d_res =    5.85928795234207E-11
(PID.TID 0000.0001) // =======================================================
(PID.TID 0000.0001) // Begin MONITOR dynamic field statistics
(PID.TID 0000.0001) // =======================================================
(PID.TID 0000.0001) %MON time_tsnumber                =                    34
(PID.TID 0000.0001) %MON time_secondsf                =   1.5300000000000E+04
(PID.TID 0000.0001) %MON dynstat_eta_max              =   2.9784198195859E+03
(PID.TID 0000.0001) %MON dynstat_eta_min              =  -7.6132030957353E+02
(PID.TID 0000.0001) %MON dynstat_eta_mean             =  -8.3541940461281E-14
(PID.TID 0000.0001) %MON dynstat_eta_sd               =   4.4036512491928E+02
(PID.TID 0000.0001) %MON dynstat_eta_del2             =   3.6223761854282E+01
(PID.TID 0000.0001) %MON dynstat_uvel_max             =   4.3968238268025E+00
(PID.TID 0000.0001) %MON dynstat_uvel_min             =  -4.6535857093277E+00
(PID.TID 0000.0001) %MON dynstat_uvel_mean            =   6.7036014699888E-02
(PID.TID 0000.0001) %MON dynstat_uvel_sd              =   7.6468699491463E-01
(PID.TID 0000.0001) %MON dynstat_uvel_del2            =   2.9900493468523E-02
(PID.TID 0000.0001) %MON dynstat_vvel_max             =   4.5756821456315E+00
(PID.TID 0000.0001) %MON dynstat_vvel_min             =  -4.8032072340974E+00
(PID.TID 0000.0001) %MON dynstat_vvel_mean            =   2.2384698506565E-02
(PID.TID 0000.0001) %MON dynstat_vvel_sd              =   7.9365864950434E-01
(PID.TID 0000.0001) %MON dynstat_vvel_del2            =   2.9593920412230E-02
(PID.TID 0000.0001) %MON dynstat_wvel_max             =   1.8238443829254E-01
(PID.TID 0000.0001) %MON dynstat_wvel_min             =  -9.3830195632221E-02
(PID.TID 0000.0001) %MON dynstat_wvel_mean            =   4.1641048755728E-04
(PID.TID 0000.0001) %MON dynstat_wvel_sd              =   9.5284437424167E-03
(PID.TID 0000.0001) %MON dynstat_wvel_del2            =   2.1192360686720E-03
(PID.TID 0000.0001) %MON dynstat_theta_max            =   4.3807167363403E+02
(PID.TID 0000.0001) %MON dynstat_theta_min            =   2.8172222428081E+02
(PID.TID 0000.0001) %MON dynstat_theta_mean           =   3.3166570034367E+02
(PID.TID 0000.0001) %MON dynstat_theta_sd             =   4.7471734244721E+01
(PID.TID 0000.0001) %MON dynstat_theta_del2           =   3.3872514809649E-02
(PID.TID 0000.0001) %MON dynstat_salt_max             =   4.8771519563671E+00
(PID.TID 0000.0001) %MON dynstat_salt_min             =  -3.1483660775096E-02
(PID.TID 0000.0001) %MON dynstat_salt_mean            =   1.2047389655307E-01
(PID.TID 0000.0001) %MON dynstat_salt_sd              =   4.6202387041914E-01
(PID.TID 0000.0001) %MON dynstat_salt_del2            =   1.3824228219324E-02
(PID.TID 0000.0001) %MON advcfl_uvel_max              =   6.5630318426543E-03
(PID.TID 0000.0001) %MON advcfl_vvel_max              =   7.5579860860199E-03
(PID.TID 0000.0001) %MON advcfl_wvel_max              =   2.9844726266052E-03
(PID.TID 0000.0001) %MON advcfl_W_hf_max              =   1.9038307102552E-02
(PID.TID 0000.0001) %MON pe_b_mean                    =  -1.2056637851623E+00
(PID.TID 0000.0001) %MON ke_max                       =   1.2303702229903E+01
(PID.TID 0000.0001) %MON ke_mean                      =   6.0616690053928E-01
(PID.TID 0000.0001) %MON ke_vol                       =   4.9523908919847E+19
(PID.TID 0000.0001) %MON vort_r_min                   =  -1.7937489318899E-05
(PID.TID 0000.0001) %MON vort_r_max                   =   1.4085273335332E-05
(PID.TID 0000.0001) %MON vort_a_mean                  =   6.7059142262008E-08
(PID.TID 0000.0001) %MON vort_a_sd                    =   8.3782810959576E-05
(PID.TID 0000.0001) %MON vort_p_mean                  =   6.8751173308786E-08
(PID.TID 0000.0001) %MON vort_p_sd                    =   9.1408044415237E-05
(PID.TID 0000.0001) %MON surfExpan_theta_mean         =  -4.0489171620146E-02
(PID.TID 0000.0001) %MON surfExpan_salt_mean          =  -1.7406892157252E-03
(PID.TID 0000.0001) %MON surfExpan_Heat_mean          =   3.1787989432953E+00
(PID.TID 0000.0001) %MON En_Budget_T2PE_mean          =  -6.2001432051026E+00
(PID.TID 0000.0001) // =======================================================
(PID.TID 0000.0001) // End MONITOR dynamic field statistics
(PID.TID 0000.0001) // =======================================================
(PID.TID 0000.0001) // =======================================================
(PID.TID 0000.0001) // Begin MONITOR Land statistics
(PID.TID 0000.0001) // =======================================================
(PID.TID 0000.0001) %MON land_time_sec                =   1.5300000000000E+04
(PID.TID 0000.0001) %MON land_SnwH_ave_G              =   1.5321514949490E-01
(PID.TID 0000.0001) %MON land_SnwH_ave_S              =   5.5903341965095E-01
(PID.TID 0000.0001) %MON land_SnwH_ave_T              =   0.0000000000000E+00
(PID.TID 0000.0001) %MON land_SnwH_ave_N              =   1.2388274619820E-01
(PID.TID 0000.0001) %MON land_SnwH_max_S              =   9.9998135789401E-01
(PID.TID 0000.0001) %MON land_SnwH_max_T              =   0.0000000000000E+00
(PID.TID 0000.0001) %MON land_SnwH_max_N              =   9.9999776583690E-01
(PID.TID 0000.0001) %MON land_TotEnerg_G              =  -6.3617324041824E+21
(PID.TID 0000.0001) %MON land_TotEnerg_S              =  -5.0024830995407E+21
(PID.TID 0000.0001) %MON land_TotEnerg_T              =   7.2726816734210E+21
(PID.TID 0000.0001) %MON land_TotEnerg_N              =  -8.6319309780627E+21
(PID.TID 0000.0001) %MON land_Tsrf_ave_G              =  -8.6455528084172E+00
(PID.TID 0000.0001) %MON land_Tsrf_ave_S              =  -7.3942985361652E+00
(PID.TID 0000.0001) %MON land_Tsrf_ave_T              =   9.7488862308569E+00
(PID.TID 0000.0001) %MON land_Tsrf_ave_N              =  -2.1334717489554E+01
(PID.TID 0000.0001) %MON land_Tsrf_min_S              =  -3.3529089270148E+01
(PID.TID 0000.0001) %MON land_Tsrf_min_T              =  -2.7128413620883E+00
(PID.TID 0000.0001) %MON land_Tsrf_min_N              =  -5.2009785626338E+01
(PID.TID 0000.0001) %MON land_Tsrf_max_S              =   1.9976759799948E+01
(PID.TID 0000.0001) %MON land_Tsrf_max_T              =   1.9805741150808E+01
(PID.TID 0000.0001) %MON land_Tsrf_max_N              =   7.6597443731014E+00
(PID.TID 0000.0001) %MON land_Tgr1_ave_G              =  -7.4599157760537E+00
(PID.TID 0000.0001) %MON land_Tgr1_ave_S              =  -7.2954427049893E+00
(PID.TID 0000.0001) %MON land_Tgr1_ave_T              =   9.7488862308569E+00
(PID.TID 0000.0001) %MON land_Tgr1_ave_N              =  -1.9004801716163E+01
(PID.TID 0000.0001) %MON land_Tgr1_min_S              =  -3.9371495105102E+01
(PID.TID 0000.0001) %MON land_Tgr1_min_T              =  -2.7128413620883E+00
(PID.TID 0000.0001) %MON land_Tgr1_min_N              =  -5.4583184489586E+01
(PID.TID 0000.0001) %MON land_Tgr1_max_S              =   1.9976759799948E+01
(PID.TID 0000.0001) %MON land_Tgr1_max_T              =   1.9805741150808E+01
(PID.TID 0000.0001) %MON land_Tgr1_max_N              =   7.6597443731014E+00
(PID.TID 0000.0001) %MON land_Tgr2_ave_G              =   4.2021455567440E+00
(PID.TID 0000.0001) %MON land_Tgr2_ave_S              =  -1.8724919695617E+01
(PID.TID 0000.0001) %MON land_Tgr2_ave_T              =   2.2007677696067E+01
(PID.TID 0000.0001) %MON land_Tgr2_ave_N              =  -2.5046488309864E-01
(PID.TID 0000.0001) %MON land_Tgr2_min_S              =  -6.4747640079843E+01
(PID.TID 0000.0001) %MON land_Tgr2_min_T              =  -9.7029968716455E+00
(PID.TID 0000.0001) %MON land_Tgr2_min_N              =  -4.0201689384132E+01
(PID.TID 0000.0001) %MON land_Tgr2_max_S              =   2.3359392656328E+01
(PID.TID 0000.0001) %MON land_Tgr2_max_T              =   3.1347803895710E+01
(PID.TID 0000.0001) %MON land_Tgr2_max_N              =   2.9816706319451E+01
(PID.TID 0000.0001) %MON land_grdW_ave_G              =   4.8669184945335E-01
(PID.TID 0000.0001) %MON land_grdW_ave_S              =   3.0845740982821E-01
(PID.TID 0000.0001) %MON land_grdW_ave_T              =   5.6402139775286E-01
(PID.TID 0000.0001) %MON land_grdW_ave_N              =   4.9287161753689E-01
(PID.TID 0000.0001) %MON land_grdW_min_S              =   2.8283815413180E-02
(PID.TID 0000.0001) %MON land_grdW_min_T              =   0.0000000000000E+00
(PID.TID 0000.0001) %MON land_grdW_min_N              =   0.0000000000000E+00
(PID.TID 0000.0001) // =======================================================
(PID.TID 0000.0001) // End MONITOR Land statistics
(PID.TID 0000.0001) // =======================================================
(PID.TID 0000.0001) // =======================================================
(PID.TID 0000.0001) // Begin MONITOR Therm.SeaIce statistics
(PID.TID 0000.0001) // =======================================================
(PID.TID 0000.0001) %MON thSI_time_sec                =   1.5300000000000E+04
(PID.TID 0000.0001) %MON thSI_Ice_Area_G              =   1.7761129161457E+11
(PID.TID 0000.0001) %MON thSI_Ice_Area_S              =   0.0000000000000E+00
(PID.TID 0000.0001) %MON thSI_Ice_Area_N              =   1.7761129161457E+11
(PID.TID 0000.0001) %MON thSI_IceH_ave_G              =   1.3942251313380E-01
(PID.TID 0000.0001) %MON thSI_IceH_ave_S              =   0.0000000000000E+00
(PID.TID 0000.0001) %MON thSI_IceH_ave_N              =   1.3942251313380E-01
(PID.TID 0000.0001) %MON thSI_IceH_max_S              =   0.0000000000000E+00
(PID.TID 0000.0001) %MON thSI_IceH_max_N              =   1.4967803930685E-01
(PID.TID 0000.0001) %MON thSI_SnwH_ave_G              =   0.0000000000000E+00
(PID.TID 0000.0001) %MON thSI_SnwH_ave_S              =   0.0000000000000E+00
(PID.TID 0000.0001) %MON thSI_SnwH_ave_N              =   0.0000000000000E+00
(PID.TID 0000.0001) %MON thSI_SnwH_max_S              =   0.0000000000000E+00
(PID.TID 0000.0001) %MON thSI_SnwH_max_N              =   0.0000000000000E+00
(PID.TID 0000.0001) %MON thSI_TotEnerg_G              =  -7.6629682625750E+18
(PID.TID 0000.0001) %MON thSI_Tsrf_ave_G              =  -9.2761805183421E+00
(PID.TID 0000.0001) %MON thSI_Tsrf_ave_S              =   0.0000000000000E+00
(PID.TID 0000.0001) %MON thSI_Tsrf_ave_N              =  -9.2761805183421E+00
(PID.TID 0000.0001) %MON thSI_Tsrf_min_S              =   0.0000000000000E+00
(PID.TID 0000.0001) %MON thSI_Tsrf_min_N              =  -9.6123078266297E+00
(PID.TID 0000.0001) %MON thSI_Tsrf_max_S              =   0.0000000000000E+00
(PID.TID 0000.0001) %MON thSI_Tsrf_max_N              =  -3.8537007379912E+00
(PID.TID 0000.0001) %MON thSI_Tic1_ave_G              =  -7.1392530454180E+00
(PID.TID 0000.0001) %MON thSI_Tic1_ave_S              =   0.0000000000000E+00
(PID.TID 0000.0001) %MON thSI_Tic1_ave_N              =  -7.1392530454180E+00
(PID.TID 0000.0001) %MON thSI_Tic1_min_S              =   0.0000000000000E+00
(PID.TID 0000.0001) %MON thSI_Tic1_min_N              =  -7.3157907536165E+00
(PID.TID 0000.0001) %MON thSI_Tic1_max_S              =   0.0000000000000E+00
(PID.TID 0000.0001) %MON thSI_Tic1_max_N              =  -1.8780672486887E+00
(PID.TID 0000.0001) %MON thSI_Tic2_ave_G              =  -3.4048587384198E+00
(PID.TID 0000.0001) %MON thSI_Tic2_ave_S              =   0.0000000000000E+00
(PID.TID 0000.0001) %MON thSI_Tic2_ave_N              =  -3.4048587384198E+00
(PID.TID 0000.0001) %MON thSI_Tic2_min_S              =   0.0000000000000E+00
(PID.TID 0000.0001) %MON thSI_Tic2_min_N              =  -3.4757553337017E+00
(PID.TID 0000.0001) %MON thSI_Tic2_max_S              =   0.0000000000000E+00
(PID.TID 0000.0001) %MON thSI_Tic2_max_N              =  -1.7057536217516E+00
(PID.TID 0000.0001) // =======================================================
(PID.TID 0000.0001) // End MONITOR Therm.SeaIce statistics
(PID.TID 0000.0001) // =======================================================
 cg2d: Sum(rhs),rhsMax =  -1.86264514923096E-09  1.74243954420171E+04
(PID.TID 0000.0001)                    cg2d_init_res =    1.01267128226084E+04
(PID.TID 0000.0001)                       cg2d_iters =    16
(PID.TID 0000.0001)                         cg2d_res =    5.66820327155078E-11
(PID.TID 0000.0001) // =======================================================
(PID.TID 0000.0001) // Begin MONITOR dynamic field statistics
(PID.TID 0000.0001) // =======================================================
(PID.TID 0000.0001) %MON time_tsnumber                =                    35
(PID.TID 0000.0001) %MON time_secondsf                =   1.5750000000000E+04
(PID.TID 0000.0001) %MON dynstat_eta_max              =   2.9766700303578E+03
(PID.TID 0000.0001) %MON dynstat_eta_min              =  -7.6346475545212E+02
(PID.TID 0000.0001) %MON dynstat_eta_mean             =   6.4263031124062E-15
(PID.TID 0000.0001) %MON dynstat_eta_sd               =   4.3517574140138E+02
(PID.TID 0000.0001) %MON dynstat_eta_del2             =   3.6270401324090E+01
(PID.TID 0000.0001) %MON dynstat_uvel_max             =   4.2732103095609E+00
(PID.TID 0000.0001) %MON dynstat_uvel_min             =  -4.4132053166373E+00
(PID.TID 0000.0001) %MON dynstat_uvel_mean            =   7.3760849053842E-02
(PID.TID 0000.0001) %MON dynstat_uvel_sd              =   7.5615749598034E-01
(PID.TID 0000.0001) %MON dynstat_uvel_del2            =   3.0666521239848E-02
(PID.TID 0000.0001) %MON dynstat_vvel_max             =   4.4209781413114E+00
(PID.TID 0000.0001) %MON dynstat_vvel_min             =  -4.6021440083970E+00
(PID.TID 0000.0001) %MON dynstat_vvel_mean            =   2.2905282284748E-02
(PID.TID 0000.0001) %MON dynstat_vvel_sd              =   7.8534625020103E-01
(PID.TID 0000.0001) %MON dynstat_vvel_del2            =   3.0270508246777E-02
(PID.TID 0000.0001) %MON dynstat_wvel_max             =   1.6423882662689E-01
(PID.TID 0000.0001) %MON dynstat_wvel_min             =  -9.3066986437738E-02
(PID.TID 0000.0001) %MON dynstat_wvel_mean            =   3.7100663436985E-04
(PID.TID 0000.0001) %MON dynstat_wvel_sd              =   9.3574765758938E-03
(PID.TID 0000.0001) %MON dynstat_wvel_del2            =   2.1395515901176E-03
(PID.TID 0000.0001) %MON dynstat_theta_max            =   4.3807751417021E+02
(PID.TID 0000.0001) %MON dynstat_theta_min            =   2.8151000440590E+02
(PID.TID 0000.0001) %MON dynstat_theta_mean           =   3.3166338539402E+02
(PID.TID 0000.0001) %MON dynstat_theta_sd             =   4.7473846290884E+01
(PID.TID 0000.0001) %MON dynstat_theta_del2           =   3.4805166240650E-02
(PID.TID 0000.0001) %MON dynstat_salt_max             =   4.9075211697107E+00
(PID.TID 0000.0001) %MON dynstat_salt_min             =  -3.3956077015135E-02
(PID.TID 0000.0001) %MON dynstat_salt_mean            =   1.2374972095118E-01
(PID.TID 0000.0001) %MON dynstat_salt_sd              =   4.7305710950842E-01
(PID.TID 0000.0001) %MON dynstat_salt_del2            =   1.4132373510414E-02
(PID.TID 0000.0001) %MON advcfl_uvel_max              =   6.2240192467511E-03
(PID.TID 0000.0001) %MON advcfl_vvel_max              =   7.7260460654201E-03
(PID.TID 0000.0001) %MON advcfl_wvel_max              =   2.6875444357127E-03
(PID.TID 0000.0001) %MON advcfl_W_hf_max              =   1.8904852350540E-02
(PID.TID 0000.0001) %MON pe_b_mean                    =  -1.1986420128431E+00
(PID.TID 0000.0001) %MON ke_max                       =   1.1320231998528E+01
(PID.TID 0000.0001) %MON ke_mean                      =   5.9367546940191E-01
(PID.TID 0000.0001) %MON ke_vol                       =   4.9523908919847E+19
(PID.TID 0000.0001) %MON vort_r_min                   =  -1.7346701235048E-05
(PID.TID 0000.0001) %MON vort_r_max                   =   1.4739516580076E-05
(PID.TID 0000.0001) %MON vort_a_mean                  =   6.7059142262135E-08
(PID.TID 0000.0001) %MON vort_a_sd                    =   8.3784750282537E-05
(PID.TID 0000.0001) %MON vort_p_mean                  =   6.8751174212335E-08
(PID.TID 0000.0001) %MON vort_p_sd                    =   9.1397195292460E-05
(PID.TID 0000.0001) %MON surfExpan_theta_mean         =  -3.5934504854490E-02
(PID.TID 0000.0001) %MON surfExpan_salt_mean          =  -1.7860178388385E-03
(PID.TID 0000.0001) %MON surfExpan_Heat_mean          =   2.8059684516385E+00
(PID.TID 0000.0001) %MON En_Budget_T2PE_mean          =  -5.4946182054097E+00
(PID.TID 0000.0001) // =======================================================
(PID.TID 0000.0001) // End MONITOR dynamic field statistics
(PID.TID 0000.0001) // =======================================================
(PID.TID 0000.0001) // =======================================================
(PID.TID 0000.0001) // Begin MONITOR Land statistics
(PID.TID 0000.0001) // =======================================================
(PID.TID 0000.0001) %MON land_time_sec                =   1.5750000000000E+04
(PID.TID 0000.0001) %MON land_SnwH_ave_G              =   1.5321421595820E-01
(PID.TID 0000.0001) %MON land_SnwH_ave_S              =   5.5903257873965E-01
(PID.TID 0000.0001) %MON land_SnwH_ave_T              =   0.0000000000000E+00
(PID.TID 0000.0001) %MON land_SnwH_ave_N              =   1.2388115922603E-01
(PID.TID 0000.0001) %MON land_SnwH_max_S              =   9.9998078921538E-01
(PID.TID 0000.0001) %MON land_SnwH_max_T              =   0.0000000000000E+00
(PID.TID 0000.0001) %MON land_SnwH_max_N              =   9.9999770179600E-01
(PID.TID 0000.0001) %MON land_TotEnerg_G              =  -6.3626169037939E+21
(PID.TID 0000.0001) %MON land_TotEnerg_S              =  -5.0024835808247E+21
(PID.TID 0000.0001) %MON land_TotEnerg_T              =   7.2723068583402E+21
(PID.TID 0000.0001) %MON land_TotEnerg_N              =  -8.6324401813094E+21
(PID.TID 0000.0001) %MON land_Tsrf_ave_G              =  -8.6629197131424E+00
(PID.TID 0000.0001) %MON land_Tsrf_ave_S              =  -7.3918831241509E+00
(PID.TID 0000.0001) %MON land_Tsrf_ave_T              =   9.7104331677554E+00
(PID.TID 0000.0001) %MON land_Tsrf_ave_N              =  -2.1344420940863E+01
(PID.TID 0000.0001) %MON land_Tsrf_min_S              =  -3.3498152004102E+01
(PID.TID 0000.0001) %MON land_Tsrf_min_T              =  -2.8231654141377E+00
(PID.TID 0000.0001) %MON land_Tsrf_min_N              =  -5.2002512416248E+01
(PID.TID 0000.0001) %MON land_Tsrf_max_S              =   1.9961025294218E+01
(PID.TID 0000.0001) %MON land_Tsrf_max_T              =   1.9761442198170E+01
(PID.TID 0000.0001) %MON land_Tsrf_max_N              =   7.5976529815110E+00
(PID.TID 0000.0001) %MON land_Tgr1_ave_G              =  -7.4809780357315E+00
(PID.TID 0000.0001) %MON land_Tgr1_ave_S              =  -7.3018652191087E+00
(PID.TID 0000.0001) %MON land_Tgr1_ave_T              =   9.7104331677554E+00
(PID.TID 0000.0001) %MON land_Tgr1_ave_N              =  -1.9018999953027E+01
(PID.TID 0000.0001) %MON land_Tgr1_min_S              =  -3.9382064433684E+01
(PID.TID 0000.0001) %MON land_Tgr1_min_T              =  -2.8231654141377E+00
(PID.TID 0000.0001) %MON land_Tgr1_min_N              =  -5.4570860297831E+01
(PID.TID 0000.0001) %MON land_Tgr1_max_S              =   1.9961025294218E+01
(PID.TID 0000.0001) %MON land_Tgr1_max_T              =   1.9761442198170E+01
(PID.TID 0000.0001) %MON land_Tgr1_max_N              =   7.5976529815110E+00
(PID.TID 0000.0001) %MON land_Tgr2_ave_G              =   4.2019668974622E+00
(PID.TID 0000.0001) %MON land_Tgr2_ave_S              =  -1.8724728097118E+01
(PID.TID 0000.0001) %MON land_Tgr2_ave_T              =   2.2007480358749E+01
(PID.TID 0000.0001) %MON land_Tgr2_ave_N              =  -2.5075117910545E-01
(PID.TID 0000.0001) %MON land_Tgr2_min_S              =  -6.4747212666140E+01
(PID.TID 0000.0001) %MON land_Tgr2_min_T              =  -9.7029071589440E+00
(PID.TID 0000.0001) %MON land_Tgr2_min_N              =  -4.0201922590149E+01
(PID.TID 0000.0001) %MON land_Tgr2_max_S              =   2.3359317900723E+01
(PID.TID 0000.0001) %MON land_Tgr2_max_T              =   3.1347353812295E+01
(PID.TID 0000.0001) %MON land_Tgr2_max_N              =   2.9816138950438E+01
(PID.TID 0000.0001) %MON land_grdW_ave_G              =   4.8668474613765E-01
(PID.TID 0000.0001) %MON land_grdW_ave_S              =   3.0845009825916E-01
(PID.TID 0000.0001) %MON land_grdW_ave_T              =   5.6400418946279E-01
(PID.TID 0000.0001) %MON land_grdW_ave_N              =   4.9287132958201E-01
(PID.TID 0000.0001) %MON land_grdW_min_S              =   2.8368163805332E-02
(PID.TID 0000.0001) %MON land_grdW_min_T              =   0.0000000000000E+00
(PID.TID 0000.0001) %MON land_grdW_min_N              =   0.0000000000000E+00
(PID.TID 0000.0001) // =======================================================
(PID.TID 0000.0001) // End MONITOR Land statistics
(PID.TID 0000.0001) // =======================================================
(PID.TID 0000.0001) // =======================================================
(PID.TID 0000.0001) // Begin MONITOR Therm.SeaIce statistics
(PID.TID 0000.0001) // =======================================================
(PID.TID 0000.0001) %MON thSI_time_sec                =   1.5750000000000E+04
(PID.TID 0000.0001) %MON thSI_Ice_Area_G              =   1.7982735206539E+11
(PID.TID 0000.0001) %MON thSI_Ice_Area_S              =   0.0000000000000E+00
(PID.TID 0000.0001) %MON thSI_Ice_Area_N              =   1.7982735206539E+11
(PID.TID 0000.0001) %MON thSI_IceH_ave_G              =   1.3913495496604E-01
(PID.TID 0000.0001) %MON thSI_IceH_ave_S              =   0.0000000000000E+00
(PID.TID 0000.0001) %MON thSI_IceH_ave_N              =   1.3913495496604E-01
(PID.TID 0000.0001) %MON thSI_IceH_max_S              =   0.0000000000000E+00
(PID.TID 0000.0001) %MON thSI_IceH_max_N              =   1.4981596766229E-01
(PID.TID 0000.0001) %MON thSI_SnwH_ave_G              =   0.0000000000000E+00
(PID.TID 0000.0001) %MON thSI_SnwH_ave_S              =   0.0000000000000E+00
(PID.TID 0000.0001) %MON thSI_SnwH_ave_N              =   0.0000000000000E+00
(PID.TID 0000.0001) %MON thSI_SnwH_max_S              =   0.0000000000000E+00
(PID.TID 0000.0001) %MON thSI_SnwH_max_N              =   0.0000000000000E+00
(PID.TID 0000.0001) %MON thSI_TotEnerg_G              =  -7.7423836129299E+18
(PID.TID 0000.0001) %MON thSI_Tsrf_ave_G              =  -9.2432405676813E+00
(PID.TID 0000.0001) %MON thSI_Tsrf_ave_S              =   0.0000000000000E+00
(PID.TID 0000.0001) %MON thSI_Tsrf_ave_N              =  -9.2432405676813E+00
(PID.TID 0000.0001) %MON thSI_Tsrf_min_S              =   0.0000000000000E+00
(PID.TID 0000.0001) %MON thSI_Tsrf_min_N              =  -9.6453183576570E+00
(PID.TID 0000.0001) %MON thSI_Tsrf_max_S              =   0.0000000000000E+00
(PID.TID 0000.0001) %MON thSI_Tsrf_max_N              =  -4.0794400908815E+00
(PID.TID 0000.0001) %MON thSI_Tic1_ave_G              =  -7.1368861914902E+00
(PID.TID 0000.0001) %MON thSI_Tic1_ave_S              =   0.0000000000000E+00
(PID.TID 0000.0001) %MON thSI_Tic1_ave_N              =  -7.1368861914902E+00
(PID.TID 0000.0001) %MON thSI_Tic1_min_S              =   0.0000000000000E+00
(PID.TID 0000.0001) %MON thSI_Tic1_min_N              =  -7.3610318608019E+00
(PID.TID 0000.0001) %MON thSI_Tic1_max_S              =   0.0000000000000E+00
(PID.TID 0000.0001) %MON thSI_Tic1_max_N              =  -2.1074755337637E+00
(PID.TID 0000.0001) %MON thSI_Tic2_ave_G              =  -3.4092946519331E+00
(PID.TID 0000.0001) %MON thSI_Tic2_ave_S              =   0.0000000000000E+00
(PID.TID 0000.0001) %MON thSI_Tic2_ave_N              =  -3.4092946519331E+00
(PID.TID 0000.0001) %MON thSI_Tic2_min_S              =   0.0000000000000E+00
(PID.TID 0000.0001) %MON thSI_Tic2_min_N              =  -3.4960606051488E+00
(PID.TID 0000.0001) %MON thSI_Tic2_max_S              =   0.0000000000000E+00
(PID.TID 0000.0001) %MON thSI_Tic2_max_N              =  -1.7479661550282E+00
(PID.TID 0000.0001) // =======================================================
(PID.TID 0000.0001) // End MONITOR Therm.SeaIce statistics
(PID.TID 0000.0001) // =======================================================
 cg2d: Sum(rhs),rhsMax =   2.32830643653870E-10  1.72526657039508E+04
(PID.TID 0000.0001)                    cg2d_init_res =    9.95502680310300E+03
(PID.TID 0000.0001)                       cg2d_iters =    16
(PID.TID 0000.0001)                         cg2d_res =    5.55153754800790E-11
(PID.TID 0000.0001) // =======================================================
(PID.TID 0000.0001) // Begin MONITOR dynamic field statistics
(PID.TID 0000.0001) // =======================================================
(PID.TID 0000.0001) %MON time_tsnumber                =                    36
(PID.TID 0000.0001) %MON time_secondsf                =   1.6200000000000E+04
(PID.TID 0000.0001) %MON dynstat_eta_max              =   3.0026574291631E+03
(PID.TID 0000.0001) %MON dynstat_eta_min              =  -7.8127221128311E+02
(PID.TID 0000.0001) %MON dynstat_eta_mean             =  -1.9278909337219E-14
(PID.TID 0000.0001) %MON dynstat_eta_sd               =   4.3108499049032E+02
(PID.TID 0000.0001) %MON dynstat_eta_del2             =   3.6315311830083E+01
(PID.TID 0000.0001) %MON dynstat_uvel_max             =   4.1629616008816E+00
(PID.TID 0000.0001) %MON dynstat_uvel_min             =  -4.1349949595819E+00
(PID.TID 0000.0001) %MON dynstat_uvel_mean            =   8.0188317078867E-02
(PID.TID 0000.0001) %MON dynstat_uvel_sd              =   7.4766418038812E-01
(PID.TID 0000.0001) %MON dynstat_uvel_del2            =   3.1448159921592E-02
(PID.TID 0000.0001) %MON dynstat_vvel_max             =   4.2527761907602E+00
(PID.TID 0000.0001) %MON dynstat_vvel_min             =  -4.4147703311873E+00
(PID.TID 0000.0001) %MON dynstat_vvel_mean            =   2.3842832435740E-02
(PID.TID 0000.0001) %MON dynstat_vvel_sd              =   7.7653350377036E-01
(PID.TID 0000.0001) %MON dynstat_vvel_del2            =   3.1008329110274E-02
(PID.TID 0000.0001) %MON dynstat_wvel_max             =   1.4385848324407E-01
(PID.TID 0000.0001) %MON dynstat_wvel_min             =  -9.1488269415354E-02
(PID.TID 0000.0001) %MON dynstat_wvel_mean            =   3.2549956367202E-04
(PID.TID 0000.0001) %MON dynstat_wvel_sd              =   9.2174063758847E-03
(PID.TID 0000.0001) %MON dynstat_wvel_del2            =   2.1634234246590E-03
(PID.TID 0000.0001) %MON dynstat_theta_max            =   4.3819867621446E+02
(PID.TID 0000.0001) %MON dynstat_theta_min            =   2.8129782416534E+02
(PID.TID 0000.0001) %MON dynstat_theta_mean           =   3.3166105320003E+02
(PID.TID 0000.0001) %MON dynstat_theta_sd             =   4.7475967625475E+01
(PID.TID 0000.0001) %MON dynstat_theta_del2           =   3.5729216080202E-02
(PID.TID 0000.0001) %MON dynstat_salt_max             =   4.9368632197368E+00
(PID.TID 0000.0001) %MON dynstat_salt_min             =  -3.6478047393600E-02
(PID.TID 0000.0001) %MON dynstat_salt_mean            =   1.2701601887643E-01
(PID.TID 0000.0001) %MON dynstat_salt_sd              =   4.8400090161682E-01
(PID.TID 0000.0001) %MON dynstat_salt_del2            =   1.4439484974798E-02
(PID.TID 0000.0001) %MON advcfl_uvel_max              =   6.0603037208321E-03
(PID.TID 0000.0001) %MON advcfl_vvel_max              =   7.7424323991321E-03
(PID.TID 0000.0001) %MON advcfl_wvel_max              =   2.6402083021692E-03
(PID.TID 0000.0001) %MON advcfl_W_hf_max              =   1.9930470855401E-02
(PID.TID 0000.0001) %MON pe_b_mean                    =  -1.1911830881137E+00
(PID.TID 0000.0001) %MON ke_max                       =   1.0397282459037E+01
(PID.TID 0000.0001) %MON ke_mean                      =   5.8099756851413E-01
(PID.TID 0000.0001) %MON ke_vol                       =   4.9523908919847E+19
(PID.TID 0000.0001) %MON vort_r_min                   =  -1.6770279845664E-05
(PID.TID 0000.0001) %MON vort_r_max                   =   1.5407090033282E-05
(PID.TID 0000.0001) %MON vort_a_mean                  =   6.7059142261909E-08
(PID.TID 0000.0001) %MON vort_a_sd                    =   8.3786597578680E-05
(PID.TID 0000.0001) %MON vort_p_mean                  =   6.8751174783180E-08
(PID.TID 0000.0001) %MON vort_p_sd                    =   9.1387476949430E-05
(PID.TID 0000.0001) %MON surfExpan_theta_mean         =  -3.1414620555993E-02
(PID.TID 0000.0001) %MON surfExpan_salt_mean          =  -1.8183779904957E-03
(PID.TID 0000.0001) %MON surfExpan_Heat_mean          =   2.4353250100720E+00
(PID.TID 0000.0001) %MON En_Budget_T2PE_mean          =  -4.7928409753663E+00
(PID.TID 0000.0001) // =======================================================
(PID.TID 0000.0001) // End MONITOR dynamic field statistics
(PID.TID 0000.0001) // =======================================================
(PID.TID 0000.0001) // =======================================================
(PID.TID 0000.0001) // Begin MONITOR Land statistics
(PID.TID 0000.0001) // =======================================================
(PID.TID 0000.0001) %MON land_time_sec                =   1.6200000000000E+04
(PID.TID 0000.0001) %MON land_SnwH_ave_G              =   1.5321328739074E-01
(PID.TID 0000.0001) %MON land_SnwH_ave_S              =   5.5903174133084E-01
(PID.TID 0000.0001) %MON land_SnwH_ave_T              =   0.0000000000000E+00
(PID.TID 0000.0001) %MON land_SnwH_ave_N              =   1.2387958101723E-01
(PID.TID 0000.0001) %MON land_SnwH_max_S              =   9.9998021886214E-01
(PID.TID 0000.0001) %MON land_SnwH_max_T              =   0.0000000000000E+00
(PID.TID 0000.0001) %MON land_SnwH_max_N              =   9.9999763768652E-01
(PID.TID 0000.0001) %MON land_TotEnerg_G              =  -6.3634670873060E+21
(PID.TID 0000.0001) %MON land_TotEnerg_S              =  -5.0024807548360E+21
(PID.TID 0000.0001) %MON land_TotEnerg_T              =   7.2719552209840E+21
(PID.TID 0000.0001) %MON land_TotEnerg_N              =  -8.6329415534540E+21
(PID.TID 0000.0001) %MON land_Tsrf_ave_G              =  -8.6784661447381E+00
(PID.TID 0000.0001) %MON land_Tsrf_ave_S              =  -7.3859423012986E+00
(PID.TID 0000.0001) %MON land_Tsrf_ave_T              =   9.6748832231380E+00
(PID.TID 0000.0001) %MON land_Tsrf_ave_N              =  -2.1353579949175E+01
(PID.TID 0000.0001) %MON land_Tsrf_min_S              =  -3.3466592408271E+01
(PID.TID 0000.0001) %MON land_Tsrf_min_T              =  -2.9305609163787E+00
(PID.TID 0000.0001) %MON land_Tsrf_min_N              =  -5.1994540777265E+01
(PID.TID 0000.0001) %MON land_Tsrf_max_S              =   1.9949210468502E+01
(PID.TID 0000.0001) %MON land_Tsrf_max_T              =   1.9723085178389E+01
(PID.TID 0000.0001) %MON land_Tsrf_max_N              =   7.5404955877348E+00
(PID.TID 0000.0001) %MON land_Tgr1_ave_G              =  -7.5006452551186E+00
(PID.TID 0000.0001) %MON land_Tgr1_ave_S              =  -7.3073261403521E+00
(PID.TID 0000.0001) %MON land_Tgr1_ave_T              =   9.6748832231380E+00
(PID.TID 0000.0001) %MON land_Tgr1_ave_N              =  -1.9032669592166E+01
(PID.TID 0000.0001) %MON land_Tgr1_min_S              =  -3.9392585289483E+01
(PID.TID 0000.0001) %MON land_Tgr1_min_T              =  -2.9305609163787E+00
(PID.TID 0000.0001) %MON land_Tgr1_min_N              =  -5.4558548702079E+01
(PID.TID 0000.0001) %MON land_Tgr1_max_S              =   1.9949210468502E+01
(PID.TID 0000.0001) %MON land_Tgr1_max_T              =   1.9723085178389E+01
(PID.TID 0000.0001) %MON land_Tgr1_max_N              =   7.5404955877348E+00
(PID.TID 0000.0001) %MON land_Tgr2_ave_G              =   4.2017879866804E+00
(PID.TID 0000.0001) %MON land_Tgr2_ave_S              =  -1.8724536587830E+01
(PID.TID 0000.0001) %MON land_Tgr2_ave_T              =   2.2007282582283E+01
(PID.TID 0000.0001) %MON land_Tgr2_ave_N              =  -2.5103765395182E-01
(PID.TID 0000.0001) %MON land_Tgr2_min_S              =  -6.4746785452708E+01
(PID.TID 0000.0001) %MON land_Tgr2_min_T              =  -9.7028164343552E+00
(PID.TID 0000.0001) %MON land_Tgr2_min_N              =  -4.0202155568709E+01
(PID.TID 0000.0001) %MON land_Tgr2_max_S              =   2.3359242615250E+01
(PID.TID 0000.0001) %MON land_Tgr2_max_T              =   3.1346902405465E+01
(PID.TID 0000.0001) %MON land_Tgr2_max_N              =   2.9815568329625E+01
(PID.TID 0000.0001) %MON land_grdW_ave_G              =   4.8667767981106E-01
(PID.TID 0000.0001) %MON land_grdW_ave_S              =   3.0844281015886E-01
(PID.TID 0000.0001) %MON land_grdW_ave_T              =   5.6398708325754E-01
(PID.TID 0000.0001) %MON land_grdW_ave_N              =   4.9287103953316E-01
(PID.TID 0000.0001) %MON land_grdW_min_S              =   2.8451961661280E-02
(PID.TID 0000.0001) %MON land_grdW_min_T              =   0.0000000000000E+00
(PID.TID 0000.0001) %MON land_grdW_min_N              =   0.0000000000000E+00
(PID.TID 0000.0001) // =======================================================
(PID.TID 0000.0001) // End MONITOR Land statistics
(PID.TID 0000.0001) // =======================================================
(PID.TID 0000.0001) // =======================================================
(PID.TID 0000.0001) // Begin MONITOR Therm.SeaIce statistics
(PID.TID 0000.0001) // =======================================================
(PID.TID 0000.0001) %MON thSI_time_sec                =   1.6200000000000E+04
(PID.TID 0000.0001) %MON thSI_Ice_Area_G              =   1.8199081138361E+11
(PID.TID 0000.0001) %MON thSI_Ice_Area_S              =   0.0000000000000E+00
(PID.TID 0000.0001) %MON thSI_Ice_Area_N              =   1.8199081138361E+11
(PID.TID 0000.0001) %MON thSI_IceH_ave_G              =   1.3889321702859E-01
(PID.TID 0000.0001) %MON thSI_IceH_ave_S              =   0.0000000000000E+00
(PID.TID 0000.0001) %MON thSI_IceH_ave_N              =   1.3889321702859E-01
(PID.TID 0000.0001) %MON thSI_IceH_max_S              =   0.0000000000000E+00
(PID.TID 0000.0001) %MON thSI_IceH_max_N              =   1.4995549337463E-01
(PID.TID 0000.0001) %MON thSI_SnwH_ave_G              =   0.0000000000000E+00
(PID.TID 0000.0001) %MON thSI_SnwH_ave_S              =   0.0000000000000E+00
(PID.TID 0000.0001) %MON thSI_SnwH_ave_N              =   0.0000000000000E+00
(PID.TID 0000.0001) %MON thSI_SnwH_max_S              =   0.0000000000000E+00
(PID.TID 0000.0001) %MON thSI_SnwH_max_N              =   0.0000000000000E+00
(PID.TID 0000.0001) %MON thSI_TotEnerg_G              =  -7.8218788926401E+18
(PID.TID 0000.0001) %MON thSI_Tsrf_ave_G              =  -9.2158105240971E+00
(PID.TID 0000.0001) %MON thSI_Tsrf_ave_S              =   0.0000000000000E+00
(PID.TID 0000.0001) %MON thSI_Tsrf_ave_N              =  -9.2158105240971E+00
(PID.TID 0000.0001) %MON thSI_Tsrf_min_S              =   0.0000000000000E+00
(PID.TID 0000.0001) %MON thSI_Tsrf_min_N              =  -9.6760090739753E+00
(PID.TID 0000.0001) %MON thSI_Tsrf_max_S              =   0.0000000000000E+00
(PID.TID 0000.0001) %MON thSI_Tsrf_max_N              =  -4.3110975986297E+00
(PID.TID 0000.0001) %MON thSI_Tic1_ave_G              =  -7.1357279821644E+00
(PID.TID 0000.0001) %MON thSI_Tic1_ave_S              =   0.0000000000000E+00
(PID.TID 0000.0001) %MON thSI_Tic1_ave_N              =  -7.1357279821644E+00
(PID.TID 0000.0001) %MON thSI_Tic1_min_S              =   0.0000000000000E+00
(PID.TID 0000.0001) %MON thSI_Tic1_min_N              =  -7.4023054492586E+00
(PID.TID 0000.0001) %MON thSI_Tic1_max_S              =   0.0000000000000E+00
(PID.TID 0000.0001) %MON thSI_Tic1_max_N              =  -2.3509118485010E+00
(PID.TID 0000.0001) %MON thSI_Tic2_ave_G              =  -3.4133225111772E+00
(PID.TID 0000.0001) %MON thSI_Tic2_ave_S              =   0.0000000000000E+00
(PID.TID 0000.0001) %MON thSI_Tic2_ave_N              =  -3.4133225111772E+00
(PID.TID 0000.0001) %MON thSI_Tic2_min_S              =   0.0000000000000E+00
(PID.TID 0000.0001) %MON thSI_Tic2_min_N              =  -3.5146516995050E+00
(PID.TID 0000.0001) %MON thSI_Tic2_max_S              =   0.0000000000000E+00
(PID.TID 0000.0001) %MON thSI_Tic2_max_N              =  -1.8027633079774E+00
(PID.TID 0000.0001) // =======================================================
(PID.TID 0000.0001) // End MONITOR Therm.SeaIce statistics
(PID.TID 0000.0001) // =======================================================
 cg2d: Sum(rhs),rhsMax =   1.16415321826935E-09  1.71241310166013E+04
(PID.TID 0000.0001)                    cg2d_init_res =    9.79524351278303E+03
(PID.TID 0000.0001)                       cg2d_iters =    16
(PID.TID 0000.0001)                         cg2d_res =    5.41954373329476E-11
(PID.TID 0000.0001) // =======================================================
(PID.TID 0000.0001) // Begin MONITOR dynamic field statistics
(PID.TID 0000.0001) // =======================================================
(PID.TID 0000.0001) %MON time_tsnumber                =                    37
(PID.TID 0000.0001) %MON time_secondsf                =   1.6650000000000E+04
(PID.TID 0000.0001) %MON dynstat_eta_max              =   3.0264339643767E+03
(PID.TID 0000.0001) %MON dynstat_eta_min              =  -8.4599886456816E+02
(PID.TID 0000.0001) %MON dynstat_eta_mean             =   3.2131515562031E-14
(PID.TID 0000.0001) %MON dynstat_eta_sd               =   4.2805473490550E+02
(PID.TID 0000.0001) %MON dynstat_eta_del2             =   3.6344660174372E+01
(PID.TID 0000.0001) %MON dynstat_uvel_max             =   4.1668595855363E+00
(PID.TID 0000.0001) %MON dynstat_uvel_min             =  -3.8352057763020E+00
(PID.TID 0000.0001) %MON dynstat_uvel_mean            =   8.6223217191920E-02
(PID.TID 0000.0001) %MON dynstat_uvel_sd              =   7.3916568762024E-01
(PID.TID 0000.0001) %MON dynstat_uvel_del2            =   3.2233073445512E-02
(PID.TID 0000.0001) %MON dynstat_vvel_max             =   4.0760253446595E+00
(PID.TID 0000.0001) %MON dynstat_vvel_min             =  -4.2635087564177E+00
(PID.TID 0000.0001) %MON dynstat_vvel_mean            =   2.5229125421823E-02
(PID.TID 0000.0001) %MON dynstat_vvel_sd              =   7.6748263833535E-01
(PID.TID 0000.0001) %MON dynstat_vvel_del2            =   3.1789759888792E-02
(PID.TID 0000.0001) %MON dynstat_wvel_max             =   1.2208743379684E-01
(PID.TID 0000.0001) %MON dynstat_wvel_min             =  -9.5200836003951E-02
(PID.TID 0000.0001) %MON dynstat_wvel_mean            =   2.8104327399270E-04
(PID.TID 0000.0001) %MON dynstat_wvel_sd              =   9.1177817379408E-03
(PID.TID 0000.0001) %MON dynstat_wvel_del2            =   2.1918345863187E-03
(PID.TID 0000.0001) %MON dynstat_theta_max            =   4.3830277339572E+02
(PID.TID 0000.0001) %MON dynstat_theta_min            =   2.8108560723284E+02
(PID.TID 0000.0001) %MON dynstat_theta_mean           =   3.3165870455346E+02
(PID.TID 0000.0001) %MON dynstat_theta_sd             =   4.7478098866567E+01
(PID.TID 0000.0001) %MON dynstat_theta_del2           =   3.6650818606673E-02
(PID.TID 0000.0001) %MON dynstat_salt_max             =   4.9653633784189E+00
(PID.TID 0000.0001) %MON dynstat_salt_min             =  -3.9046675430738E-02
(PID.TID 0000.0001) %MON dynstat_salt_mean            =   1.3027287744600E-01
(PID.TID 0000.0001) %MON dynstat_salt_sd              =   4.9485673407071E-01
(PID.TID 0000.0001) %MON dynstat_salt_del2            =   1.4746213117485E-02
(PID.TID 0000.0001) %MON advcfl_uvel_max              =   6.2624197684390E-03
(PID.TID 0000.0001) %MON advcfl_vvel_max              =   7.5982001367655E-03
(PID.TID 0000.0001) %MON advcfl_wvel_max              =   2.7430472051519E-03
(PID.TID 0000.0001) %MON advcfl_W_hf_max              =   2.0962083994353E-02
(PID.TID 0000.0001) %MON pe_b_mean                    =  -1.1834696174510E+00
(PID.TID 0000.0001) %MON ke_max                       =   9.5700336418544E+00
(PID.TID 0000.0001) %MON ke_mean                      =   5.6830317421390E-01
(PID.TID 0000.0001) %MON ke_vol                       =   4.9523908919847E+19
(PID.TID 0000.0001) %MON vort_r_min                   =  -1.6222096896455E-05
(PID.TID 0000.0001) %MON vort_r_max                   =   1.6079024433628E-05
(PID.TID 0000.0001) %MON vort_a_mean                  =   6.7059142262043E-08
(PID.TID 0000.0001) %MON vort_a_sd                    =   8.3788346342830E-05
(PID.TID 0000.0001) %MON vort_p_mean                  =   6.8751174970624E-08
(PID.TID 0000.0001) %MON vort_p_sd                    =   9.1378830392714E-05
(PID.TID 0000.0001) %MON surfExpan_theta_mean         =  -2.7040492983040E-02
(PID.TID 0000.0001) %MON surfExpan_salt_mean          =  -1.8368598098061E-03
(PID.TID 0000.0001) %MON surfExpan_Heat_mean          =   2.0764194233374E+00
(PID.TID 0000.0001) %MON En_Budget_T2PE_mean          =  -4.1124495404214E+00
(PID.TID 0000.0001) // =======================================================
(PID.TID 0000.0001) // End MONITOR dynamic field statistics
(PID.TID 0000.0001) // =======================================================
(PID.TID 0000.0001) // =======================================================
(PID.TID 0000.0001) // Begin MONITOR Land statistics
(PID.TID 0000.0001) // =======================================================
(PID.TID 0000.0001) %MON land_time_sec                =   1.6650000000000E+04
(PID.TID 0000.0001) %MON land_SnwH_ave_G              =   1.5321236351724E-01
(PID.TID 0000.0001) %MON land_SnwH_ave_S              =   5.5903090656129E-01
(PID.TID 0000.0001) %MON land_SnwH_ave_T              =   0.0000000000000E+00
(PID.TID 0000.0001) %MON land_SnwH_ave_N              =   1.2387801130339E-01
(PID.TID 0000.0001) %MON land_SnwH_max_S              =   9.9997964677202E-01
(PID.TID 0000.0001) %MON land_SnwH_max_T              =   0.0000000000000E+00
(PID.TID 0000.0001) %MON land_SnwH_max_N              =   9.9999757350367E-01
(PID.TID 0000.0001) %MON land_TotEnerg_G              =  -6.3642855440672E+21
(PID.TID 0000.0001) %MON land_TotEnerg_S              =  -5.0024749677187E+21
(PID.TID 0000.0001) %MON land_TotEnerg_T              =   7.2716247940576E+21
(PID.TID 0000.0001) %MON land_TotEnerg_N              =  -8.6334353704061E+21
(PID.TID 0000.0001) %MON land_Tsrf_ave_G              =  -8.6921723282852E+00
(PID.TID 0000.0001) %MON land_Tsrf_ave_S              =  -7.3764986415945E+00
(PID.TID 0000.0001) %MON land_Tsrf_ave_T              =   9.6422431914473E+00
(PID.TID 0000.0001) %MON land_Tsrf_ave_N              =  -2.1362152333864E+01
(PID.TID 0000.0001) %MON land_Tsrf_min_S              =  -3.3434440018372E+01
(PID.TID 0000.0001) %MON land_Tsrf_min_T              =  -3.0351067831550E+00
(PID.TID 0000.0001) %MON land_Tsrf_min_N              =  -5.1986081370174E+01
(PID.TID 0000.0001) %MON land_Tsrf_max_S              =   1.9940856305529E+01
(PID.TID 0000.0001) %MON land_Tsrf_max_T              =   1.9690064056496E+01
(PID.TID 0000.0001) %MON land_Tsrf_max_N              =   7.4880638794631E+00
(PID.TID 0000.0001) %MON land_Tgr1_ave_G              =  -7.5189366613065E+00
(PID.TID 0000.0001) %MON land_Tgr1_ave_S              =  -7.3119268237570E+00
(PID.TID 0000.0001) %MON land_Tgr1_ave_T              =   9.6422431914473E+00
(PID.TID 0000.0001) %MON land_Tgr1_ave_N              =  -1.9045820595281E+01
(PID.TID 0000.0001) %MON land_Tgr1_min_S              =  -3.9403057560729E+01
(PID.TID 0000.0001) %MON land_Tgr1_min_T              =  -3.0351067831550E+00
(PID.TID 0000.0001) %MON land_Tgr1_min_N              =  -5.4546249206610E+01
(PID.TID 0000.0001) %MON land_Tgr1_max_S              =   1.9940856305529E+01
(PID.TID 0000.0001) %MON land_Tgr1_max_T              =   1.9690064056496E+01
(PID.TID 0000.0001) %MON land_Tgr1_max_N              =   7.4880638794631E+00
(PID.TID 0000.0001) %MON land_Tgr2_ave_G              =   4.2016088680589E+00
(PID.TID 0000.0001) %MON land_Tgr2_ave_S              =  -1.8724345154227E+01
(PID.TID 0000.0001) %MON land_Tgr2_ave_T              =   2.2007084414224E+01
(PID.TID 0000.0001) %MON land_Tgr2_ave_N              =  -2.5132425680297E-01
(PID.TID 0000.0001) %MON land_Tgr2_min_S              =  -6.4746358438700E+01
(PID.TID 0000.0001) %MON land_Tgr2_min_T              =  -9.7027247374281E+00
(PID.TID 0000.0001) %MON land_Tgr2_min_N              =  -4.0202388320335E+01
(PID.TID 0000.0001) %MON land_Tgr2_max_S              =   2.3359166876334E+01
(PID.TID 0000.0001) %MON land_Tgr2_max_T              =   3.1346449773224E+01
(PID.TID 0000.0001) %MON land_Tgr2_max_N              =   2.9814994584662E+01
(PID.TID 0000.0001) %MON land_grdW_ave_G              =   4.8667064701258E-01
(PID.TID 0000.0001) %MON land_grdW_ave_S              =   3.0843554350035E-01
(PID.TID 0000.0001) %MON land_grdW_ave_T              =   5.6397006987295E-01
(PID.TID 0000.0001) %MON land_grdW_ave_N              =   4.9287074733933E-01
(PID.TID 0000.0001) %MON land_grdW_min_S              =   2.8535141599050E-02
(PID.TID 0000.0001) %MON land_grdW_min_T              =   0.0000000000000E+00
(PID.TID 0000.0001) %MON land_grdW_min_N              =   0.0000000000000E+00
(PID.TID 0000.0001) // =======================================================
(PID.TID 0000.0001) // End MONITOR Land statistics
(PID.TID 0000.0001) // =======================================================
(PID.TID 0000.0001) // =======================================================
(PID.TID 0000.0001) // Begin MONITOR Therm.SeaIce statistics
(PID.TID 0000.0001) // =======================================================
(PID.TID 0000.0001) %MON thSI_time_sec                =   1.6650000000000E+04
(PID.TID 0000.0001) %MON thSI_Ice_Area_G              =   1.8410365972130E+11
(PID.TID 0000.0001) %MON thSI_Ice_Area_S              =   0.0000000000000E+00
(PID.TID 0000.0001) %MON thSI_Ice_Area_N              =   1.8410365972130E+11
(PID.TID 0000.0001) %MON thSI_IceH_ave_G              =   1.3869429613314E-01
(PID.TID 0000.0001) %MON thSI_IceH_ave_S              =   0.0000000000000E+00
(PID.TID 0000.0001) %MON thSI_IceH_ave_N              =   1.3869429613314E-01
(PID.TID 0000.0001) %MON thSI_IceH_max_S              =   0.0000000000000E+00
(PID.TID 0000.0001) %MON thSI_IceH_max_N              =   1.5009647913970E-01
(PID.TID 0000.0001) %MON thSI_SnwH_ave_G              =   0.0000000000000E+00
(PID.TID 0000.0001) %MON thSI_SnwH_ave_S              =   0.0000000000000E+00
(PID.TID 0000.0001) %MON thSI_SnwH_ave_N              =   0.0000000000000E+00
(PID.TID 0000.0001) %MON thSI_SnwH_max_S              =   0.0000000000000E+00
(PID.TID 0000.0001) %MON thSI_SnwH_max_N              =   0.0000000000000E+00
(PID.TID 0000.0001) %MON thSI_TotEnerg_G              =  -7.9014477610723E+18
(PID.TID 0000.0001) %MON thSI_Tsrf_ave_G              =  -9.1933598477169E+00
(PID.TID 0000.0001) %MON thSI_Tsrf_ave_S              =   0.0000000000000E+00
(PID.TID 0000.0001) %MON thSI_Tsrf_ave_N              =  -9.1933598477169E+00
(PID.TID 0000.0001) %MON thSI_Tsrf_min_S              =   0.0000000000000E+00
(PID.TID 0000.0001) %MON thSI_Tsrf_min_N              =  -9.7034108533725E+00
(PID.TID 0000.0001) %MON thSI_Tsrf_max_S              =   0.0000000000000E+00
(PID.TID 0000.0001) %MON thSI_Tsrf_max_N              =  -4.5509245120867E+00
(PID.TID 0000.0001) %MON thSI_Tic1_ave_G              =  -7.1361029448091E+00
(PID.TID 0000.0001) %MON thSI_Tic1_ave_S              =   0.0000000000000E+00
(PID.TID 0000.0001) %MON thSI_Tic1_ave_N              =  -7.1361029448091E+00
(PID.TID 0000.0001) %MON thSI_Tic1_min_S              =   0.0000000000000E+00
(PID.TID 0000.0001) %MON thSI_Tic1_min_N              =  -7.4398596852830E+00
(PID.TID 0000.0001) %MON thSI_Tic1_max_S              =   0.0000000000000E+00
(PID.TID 0000.0001) %MON thSI_Tic1_max_N              =  -2.6032429875064E+00
(PID.TID 0000.0001) %MON thSI_Tic2_ave_G              =  -3.4172207019114E+00
(PID.TID 0000.0001) %MON thSI_Tic2_ave_S              =   0.0000000000000E+00
(PID.TID 0000.0001) %MON thSI_Tic2_ave_N              =  -3.4172207019114E+00
(PID.TID 0000.0001) %MON thSI_Tic2_min_S              =   0.0000000000000E+00
(PID.TID 0000.0001) %MON thSI_Tic2_min_N              =  -3.5316454234651E+00
(PID.TID 0000.0001) %MON thSI_Tic2_max_S              =   0.0000000000000E+00
(PID.TID 0000.0001) %MON thSI_Tic2_max_N              =  -1.8661806914832E+00
(PID.TID 0000.0001) // =======================================================
(PID.TID 0000.0001) // End MONITOR Therm.SeaIce statistics
(PID.TID 0000.0001) // =======================================================
 cg2d: Sum(rhs),rhsMax =   2.56113708019257E-09  1.71514729333801E+04
(PID.TID 0000.0001)                    cg2d_init_res =    9.64740599191587E+03
(PID.TID 0000.0001)                       cg2d_iters =    16
(PID.TID 0000.0001)                         cg2d_res =    5.34369125482001E-11
(PID.TID 0000.0001) // =======================================================
(PID.TID 0000.0001) // Begin MONITOR dynamic field statistics
(PID.TID 0000.0001) // =======================================================
(PID.TID 0000.0001) %MON time_tsnumber                =                    38
(PID.TID 0000.0001) %MON time_secondsf                =   1.7100000000000E+04
(PID.TID 0000.0001) %MON dynstat_eta_max              =   3.0478448063047E+03
(PID.TID 0000.0001) %MON dynstat_eta_min              =  -8.9543707588917E+02
(PID.TID 0000.0001) %MON dynstat_eta_mean             =  -1.9278909337219E-14
(PID.TID 0000.0001) %MON dynstat_eta_sd               =   4.2602778114084E+02
(PID.TID 0000.0001) %MON dynstat_eta_del2             =   3.6360218618643E+01
(PID.TID 0000.0001) %MON dynstat_uvel_max             =   4.3018341277617E+00
(PID.TID 0000.0001) %MON dynstat_uvel_min             =  -3.5932618404708E+00
(PID.TID 0000.0001) %MON dynstat_uvel_mean            =   9.1780180757524E-02
(PID.TID 0000.0001) %MON dynstat_uvel_sd              =   7.3061637823567E-01
(PID.TID 0000.0001) %MON dynstat_uvel_del2            =   3.3020031787182E-02
(PID.TID 0000.0001) %MON dynstat_vvel_max             =   3.8953454760976E+00
(PID.TID 0000.0001) %MON dynstat_vvel_min             =  -4.1683442695387E+00
(PID.TID 0000.0001) %MON dynstat_vvel_mean            =   2.7085356256236E-02
(PID.TID 0000.0001) %MON dynstat_vvel_sd              =   7.5840471730333E-01
(PID.TID 0000.0001) %MON dynstat_vvel_del2            =   3.2577079935345E-02
(PID.TID 0000.0001) %MON dynstat_wvel_max             =   1.1066470842266E-01
(PID.TID 0000.0001) %MON dynstat_wvel_min             =  -9.8528107114634E-02
(PID.TID 0000.0001) %MON dynstat_wvel_mean            =   2.3846792074735E-04
(PID.TID 0000.0001) %MON dynstat_wvel_sd              =   9.0648637237356E-03
(PID.TID 0000.0001) %MON dynstat_wvel_del2            =   2.2254066643937E-03
(PID.TID 0000.0001) %MON dynstat_theta_max            =   4.3838652621041E+02
(PID.TID 0000.0001) %MON dynstat_theta_min            =   2.8087330693602E+02
(PID.TID 0000.0001) %MON dynstat_theta_mean           =   3.3165634041254E+02
(PID.TID 0000.0001) %MON dynstat_theta_sd             =   4.7480240200027E+01
(PID.TID 0000.0001) %MON dynstat_theta_del2           =   3.7561398698743E-02
(PID.TID 0000.0001) %MON dynstat_salt_max             =   4.9931794533360E+00
(PID.TID 0000.0001) %MON dynstat_salt_min             =  -4.1659164844323E-02
(PID.TID 0000.0001) %MON dynstat_salt_mean            =   1.3352036093808E-01
(PID.TID 0000.0001) %MON dynstat_salt_sd              =   5.0562736887119E-01
(PID.TID 0000.0001) %MON dynstat_salt_del2            =   1.5053009278447E-02
(PID.TID 0000.0001) %MON advcfl_uvel_max              =   6.4652745141094E-03
(PID.TID 0000.0001) %MON advcfl_vvel_max              =   7.2915839220718E-03
(PID.TID 0000.0001) %MON advcfl_wvel_max              =   2.8456639308684E-03
(PID.TID 0000.0001) %MON advcfl_W_hf_max              =   2.1995016211956E-02
(PID.TID 0000.0001) %MON pe_b_mean                    =  -1.1756370078866E+00
(PID.TID 0000.0001) %MON ke_max                       =   9.2238940027277E+00
(PID.TID 0000.0001) %MON ke_mean                      =   5.5571232099617E-01
(PID.TID 0000.0001) %MON ke_vol                       =   4.9523908919847E+19
(PID.TID 0000.0001) %MON vort_r_min                   =  -1.5713844841142E-05
(PID.TID 0000.0001) %MON vort_r_max                   =   1.6744120184655E-05
(PID.TID 0000.0001) %MON vort_a_mean                  =   6.7059142261986E-08
(PID.TID 0000.0001) %MON vort_a_sd                    =   8.3789990297166E-05
(PID.TID 0000.0001) %MON vort_p_mean                  =   6.8751174731658E-08
(PID.TID 0000.0001) %MON vort_p_sd                    =   9.1371187613988E-05
(PID.TID 0000.0001) %MON surfExpan_theta_mean         =  -2.2891152250216E-02
(PID.TID 0000.0001) %MON surfExpan_salt_mean          =  -1.8406685680120E-03
(PID.TID 0000.0001) %MON surfExpan_Heat_mean          =   1.7359932146894E+00
(PID.TID 0000.0001) %MON En_Budget_T2PE_mean          =  -3.4659515582786E+00
(PID.TID 0000.0001) // =======================================================
(PID.TID 0000.0001) // End MONITOR dynamic field statistics
(PID.TID 0000.0001) // =======================================================
(PID.TID 0000.0001) // =======================================================
(PID.TID 0000.0001) // Begin MONITOR Land statistics
(PID.TID 0000.0001) // =======================================================
(PID.TID 0000.0001) %MON land_time_sec                =   1.7100000000000E+04
(PID.TID 0000.0001) %MON land_SnwH_ave_G              =   1.5321144428952E-01
(PID.TID 0000.0001) %MON land_SnwH_ave_S              =   5.5903007353143E-01
(PID.TID 0000.0001) %MON land_SnwH_ave_T              =   0.0000000000000E+00
(PID.TID 0000.0001) %MON land_SnwH_ave_N              =   1.2387645028036E-01
(PID.TID 0000.0001) %MON land_SnwH_max_S              =   9.9997907287112E-01
(PID.TID 0000.0001) %MON land_SnwH_max_T              =   0.0000000000000E+00
(PID.TID 0000.0001) %MON land_SnwH_max_N              =   9.9999750924597E-01
(PID.TID 0000.0001) %MON land_TotEnerg_G              =  -6.3650744472453E+21
(PID.TID 0000.0001) %MON land_TotEnerg_S              =  -5.0024665237288E+21
(PID.TID 0000.0001) %MON land_TotEnerg_T              =   7.2713138536594E+21
(PID.TID 0000.0001) %MON land_TotEnerg_N              =  -8.6339217771759E+21
(PID.TID 0000.0001) %MON land_Tsrf_ave_G              =  -8.7043201856781E+00
(PID.TID 0000.0001) %MON land_Tsrf_ave_S              =  -7.3636505687211E+00
(PID.TID 0000.0001) %MON land_Tsrf_ave_T              =   9.6120447046963E+00
(PID.TID 0000.0001) %MON land_Tsrf_ave_N              =  -2.1370355039307E+01
(PID.TID 0000.0001) %MON land_Tsrf_min_S              =  -3.3401655896517E+01
(PID.TID 0000.0001) %MON land_Tsrf_min_T              =  -3.1368795638169E+00
(PID.TID 0000.0001) %MON land_Tsrf_min_N              =  -5.1977478050829E+01
(PID.TID 0000.0001) %MON land_Tsrf_max_S              =   1.9935518104804E+01
(PID.TID 0000.0001) %MON land_Tsrf_max_T              =   1.9661821823621E+01
(PID.TID 0000.0001) %MON land_Tsrf_max_N              =   7.4401495766896E+00
(PID.TID 0000.0001) %MON land_Tgr1_ave_G              =  -7.5361262745735E+00
(PID.TID 0000.0001) %MON land_Tgr1_ave_S              =  -7.3157563108330E+00
(PID.TID 0000.0001) %MON land_Tgr1_ave_T              =   9.6120447046963E+00
(PID.TID 0000.0001) %MON land_Tgr1_ave_N              =  -1.9058657208952E+01
(PID.TID 0000.0001) %MON land_Tgr1_min_S              =  -3.9413483383578E+01
(PID.TID 0000.0001) %MON land_Tgr1_min_T              =  -3.1368795638169E+00
(PID.TID 0000.0001) %MON land_Tgr1_min_N              =  -5.4533961651333E+01
(PID.TID 0000.0001) %MON land_Tgr1_max_S              =   1.9935518104804E+01
(PID.TID 0000.0001) %MON land_Tgr1_max_T              =   1.9661821823621E+01
(PID.TID 0000.0001) %MON land_Tgr1_max_N              =   7.4401495766896E+00
(PID.TID 0000.0001) %MON land_Tgr2_ave_G              =   4.2014295380076E+00
(PID.TID 0000.0001) %MON land_Tgr2_ave_S              =  -1.8724153784207E+01
(PID.TID 0000.0001) %MON land_Tgr2_ave_T              =   2.2006885893088E+01
(PID.TID 0000.0001) %MON land_Tgr2_ave_N              =  -2.5161102445681E-01
(PID.TID 0000.0001) %MON land_Tgr2_min_S              =  -6.4745931623261E+01
(PID.TID 0000.0001) %MON land_Tgr2_min_T              =  -9.7026321070381E+00
(PID.TID 0000.0001) %MON land_Tgr2_min_N              =  -4.0202620845477E+01
(PID.TID 0000.0001) %MON land_Tgr2_max_S              =   2.3359090755720E+01
(PID.TID 0000.0001) %MON land_Tgr2_max_T              =   3.1345996011181E+01
(PID.TID 0000.0001) %MON land_Tgr2_max_N              =   2.9814417838917E+01
(PID.TID 0000.0001) %MON land_grdW_ave_G              =   4.8666364464962E-01
(PID.TID 0000.0001) %MON land_grdW_ave_S              =   3.0842829667324E-01
(PID.TID 0000.0001) %MON land_grdW_ave_T              =   5.6395314114499E-01
(PID.TID 0000.0001) %MON land_grdW_ave_N              =   4.9287045281367E-01
(PID.TID 0000.0001) %MON land_grdW_min_S              =   2.8617627967175E-02
(PID.TID 0000.0001) %MON land_grdW_min_T              =   0.0000000000000E+00
(PID.TID 0000.0001) %MON land_grdW_min_N              =   0.0000000000000E+00
(PID.TID 0000.0001) // =======================================================
(PID.TID 0000.0001) // End MONITOR Land statistics
(PID.TID 0000.0001) // =======================================================
(PID.TID 0000.0001) // =======================================================
(PID.TID 0000.0001) // Begin MONITOR Therm.SeaIce statistics
(PID.TID 0000.0001) // =======================================================
(PID.TID 0000.0001) %MON thSI_time_sec                =   1.7100000000000E+04
(PID.TID 0000.0001) %MON thSI_Ice_Area_G              =   1.8616778495180E+11
(PID.TID 0000.0001) %MON thSI_Ice_Area_S              =   0.0000000000000E+00
(PID.TID 0000.0001) %MON thSI_Ice_Area_N              =   1.8616778495180E+11
(PID.TID 0000.0001) %MON thSI_IceH_ave_G              =   1.3853548379529E-01
(PID.TID 0000.0001) %MON thSI_IceH_ave_S              =   0.0000000000000E+00
(PID.TID 0000.0001) %MON thSI_IceH_ave_N              =   1.3853548379529E-01
(PID.TID 0000.0001) %MON thSI_IceH_max_S              =   0.0000000000000E+00
(PID.TID 0000.0001) %MON thSI_IceH_max_N              =   1.5023879633611E-01
(PID.TID 0000.0001) %MON thSI_SnwH_ave_G              =   0.0000000000000E+00
(PID.TID 0000.0001) %MON thSI_SnwH_ave_S              =   0.0000000000000E+00
(PID.TID 0000.0001) %MON thSI_SnwH_ave_N              =   0.0000000000000E+00
(PID.TID 0000.0001) %MON thSI_SnwH_max_S              =   0.0000000000000E+00
(PID.TID 0000.0001) %MON thSI_SnwH_max_N              =   0.0000000000000E+00
(PID.TID 0000.0001) %MON thSI_TotEnerg_G              =  -7.9810841238235E+18
(PID.TID 0000.0001) %MON thSI_Tsrf_ave_G              =  -9.1755707436364E+00
(PID.TID 0000.0001) %MON thSI_Tsrf_ave_S              =   0.0000000000000E+00
(PID.TID 0000.0001) %MON thSI_Tsrf_ave_N              =  -9.1755707436364E+00
(PID.TID 0000.0001) %MON thSI_Tsrf_min_S              =   0.0000000000000E+00
(PID.TID 0000.0001) %MON thSI_Tsrf_min_N              =  -9.7277205016411E+00
(PID.TID 0000.0001) %MON thSI_Tsrf_max_S              =   0.0000000000000E+00
(PID.TID 0000.0001) %MON thSI_Tsrf_max_N              =  -4.7940263720793E+00
(PID.TID 0000.0001) %MON thSI_Tic1_ave_G              =  -7.1381039319844E+00
(PID.TID 0000.0001) %MON thSI_Tic1_ave_S              =   0.0000000000000E+00
(PID.TID 0000.0001) %MON thSI_Tic1_ave_N              =  -7.1381039319844E+00
(PID.TID 0000.0001) %MON thSI_Tic1_min_S              =   0.0000000000000E+00
(PID.TID 0000.0001) %MON thSI_Tic1_min_N              =  -7.4739290317054E+00
(PID.TID 0000.0001) %MON thSI_Tic1_max_S              =   0.0000000000000E+00
(PID.TID 0000.0001) %MON thSI_Tic1_max_N              =  -2.8588869470859E+00
(PID.TID 0000.0001) %MON thSI_Tic2_ave_G              =  -3.4211565531917E+00
(PID.TID 0000.0001) %MON thSI_Tic2_ave_S              =   0.0000000000000E+00
(PID.TID 0000.0001) %MON thSI_Tic2_ave_N              =  -3.4211565531917E+00
(PID.TID 0000.0001) %MON thSI_Tic2_min_S              =   0.0000000000000E+00
(PID.TID 0000.0001) %MON thSI_Tic2_min_N              =  -3.5471500548450E+00
(PID.TID 0000.0001) %MON thSI_Tic2_max_S              =   0.0000000000000E+00
(PID.TID 0000.0001) %MON thSI_Tic2_max_N              =  -1.9351949437487E+00
(PID.TID 0000.0001) // =======================================================
(PID.TID 0000.0001) // End MONITOR Therm.SeaIce statistics
(PID.TID 0000.0001) // =======================================================
 cg2d: Sum(rhs),rhsMax =   0.00000000000000E+00  1.72286073171641E+04
(PID.TID 0000.0001)                    cg2d_init_res =    9.50944116070036E+03
(PID.TID 0000.0001)                       cg2d_iters =    16
(PID.TID 0000.0001)                         cg2d_res =    5.34390014806550E-11
(PID.TID 0000.0001) // =======================================================
(PID.TID 0000.0001) // Begin MONITOR dynamic field statistics
(PID.TID 0000.0001) // =======================================================
(PID.TID 0000.0001) %MON time_tsnumber                =                    39
(PID.TID 0000.0001) %MON time_secondsf                =   1.7550000000000E+04
(PID.TID 0000.0001) %MON dynstat_eta_max              =   3.0659090632031E+03
(PID.TID 0000.0001) %MON dynstat_eta_min              =  -9.4414028973027E+02
(PID.TID 0000.0001) %MON dynstat_eta_mean             =   5.7836728011656E-14
(PID.TID 0000.0001) %MON dynstat_eta_sd               =   4.2493328415645E+02
(PID.TID 0000.0001) %MON dynstat_eta_del2             =   3.6357288880210E+01
(PID.TID 0000.0001) %MON dynstat_uvel_max             =   4.4367991961645E+00
(PID.TID 0000.0001) %MON dynstat_uvel_min             =  -3.3607860089292E+00
(PID.TID 0000.0001) %MON dynstat_uvel_mean            =   9.6785914158836E-02
(PID.TID 0000.0001) %MON dynstat_uvel_sd              =   7.2198405255142E-01
(PID.TID 0000.0001) %MON dynstat_uvel_del2            =   3.3824444074795E-02
(PID.TID 0000.0001) %MON dynstat_vvel_max             =   3.7148341511326E+00
(PID.TID 0000.0001) %MON dynstat_vvel_min             =  -4.1080714286168E+00
(PID.TID 0000.0001) %MON dynstat_vvel_mean            =   2.9421449331745E-02
(PID.TID 0000.0001) %MON dynstat_vvel_sd              =   7.4944533401995E-01
(PID.TID 0000.0001) %MON dynstat_vvel_del2            =   3.3397197855711E-02
(PID.TID 0000.0001) %MON dynstat_wvel_max             =   1.1463831263820E-01
(PID.TID 0000.0001) %MON dynstat_wvel_min             =  -1.0152628922798E-01
(PID.TID 0000.0001) %MON dynstat_wvel_mean            =   1.9831836042398E-04
(PID.TID 0000.0001) %MON dynstat_wvel_sd              =   9.0611981322392E-03
(PID.TID 0000.0001) %MON dynstat_wvel_del2            =   2.2695134962297E-03
(PID.TID 0000.0001) %MON dynstat_theta_max            =   4.3844760497070E+02
(PID.TID 0000.0001) %MON dynstat_theta_min            =   2.8066092170476E+02
(PID.TID 0000.0001) %MON dynstat_theta_mean           =   3.3165396125906E+02
(PID.TID 0000.0001) %MON dynstat_theta_sd             =   4.7482392036261E+01
(PID.TID 0000.0001) %MON dynstat_theta_del2           =   3.8450240107590E-02
(PID.TID 0000.0001) %MON dynstat_salt_max             =   5.0204463434397E+00
(PID.TID 0000.0001) %MON dynstat_salt_min             =  -4.4312853497547E-02
(PID.TID 0000.0001) %MON dynstat_salt_mean            =   1.3675852732748E-01
(PID.TID 0000.0001) %MON dynstat_salt_sd              =   5.1631382154936E-01
(PID.TID 0000.0001) %MON dynstat_salt_del2            =   1.5359567651551E-02
(PID.TID 0000.0001) %MON advcfl_uvel_max              =   6.6681150214661E-03
(PID.TID 0000.0001) %MON advcfl_vvel_max              =   6.8282688164586E-03
(PID.TID 0000.0001) %MON advcfl_wvel_max              =   2.9478423249823E-03
(PID.TID 0000.0001) %MON advcfl_W_hf_max              =   2.3024025234488E-02
(PID.TID 0000.0001) %MON pe_b_mean                    =  -1.1677776476140E+00
(PID.TID 0000.0001) %MON ke_max                       =   9.0735452622085E+00
(PID.TID 0000.0001) %MON ke_mean                      =   5.4330021267464E-01
(PID.TID 0000.0001) %MON ke_vol                       =   4.9523908919847E+19
(PID.TID 0000.0001) %MON vort_r_min                   =  -1.5255133682746E-05
(PID.TID 0000.0001) %MON vort_r_max                   =   1.7389404733911E-05
(PID.TID 0000.0001) %MON vort_a_mean                  =   6.7059142261986E-08
(PID.TID 0000.0001) %MON vort_a_sd                    =   8.3791523571674E-05
(PID.TID 0000.0001) %MON vort_p_mean                  =   6.8751174034018E-08
(PID.TID 0000.0001) %MON vort_p_sd                    =   9.1364474307430E-05
(PID.TID 0000.0001) %MON surfExpan_theta_mean         =  -1.9017230894846E-02
(PID.TID 0000.0001) %MON surfExpan_salt_mean          =  -1.8291186038361E-03
(PID.TID 0000.0001) %MON surfExpan_Heat_mean          =   1.4183117554930E+00
(PID.TID 0000.0001) %MON En_Budget_T2PE_mean          =  -2.8613253864379E+00
(PID.TID 0000.0001) // =======================================================
(PID.TID 0000.0001) // End MONITOR dynamic field statistics
(PID.TID 0000.0001) // =======================================================
(PID.TID 0000.0001) // =======================================================
(PID.TID 0000.0001) // Begin MONITOR Land statistics
(PID.TID 0000.0001) // =======================================================
(PID.TID 0000.0001) %MON land_time_sec                =   1.7550000000000E+04
(PID.TID 0000.0001) %MON land_SnwH_ave_G              =   1.5321052822299E-01
(PID.TID 0000.0001) %MON land_SnwH_ave_S              =   5.5902924133820E-01
(PID.TID 0000.0001) %MON land_SnwH_ave_T              =   0.0000000000000E+00
(PID.TID 0000.0001) %MON land_SnwH_ave_N              =   1.2387489528357E-01
(PID.TID 0000.0001) %MON land_SnwH_max_S              =   9.9997849706703E-01
(PID.TID 0000.0001) %MON land_SnwH_max_T              =   0.0000000000000E+00
(PID.TID 0000.0001) %MON land_SnwH_max_N              =   9.9999744498195E-01
(PID.TID 0000.0001) %MON land_TotEnerg_G              =  -6.3658358676777E+21
(PID.TID 0000.0001) %MON land_TotEnerg_S              =  -5.0024556324383E+21
(PID.TID 0000.0001) %MON land_TotEnerg_T              =   7.2710207651903E+21
(PID.TID 0000.0001) %MON land_TotEnerg_N              =  -8.6344010004297E+21
(PID.TID 0000.0001) %MON land_Tsrf_ave_G              =  -8.7147808635839E+00
(PID.TID 0000.0001) %MON land_Tsrf_ave_S              =  -7.3474836748342E+00
(PID.TID 0000.0001) %MON land_Tsrf_ave_T              =   9.5843296787613E+00
(PID.TID 0000.0001) %MON land_Tsrf_ave_N              =  -2.1377931593086E+01
(PID.TID 0000.0001) %MON land_Tsrf_min_S              =  -3.3368143139500E+01
(PID.TID 0000.0001) %MON land_Tsrf_min_T              =  -3.2359534916772E+00
(PID.TID 0000.0001) %MON land_Tsrf_min_N              =  -5.1976998100965E+01
(PID.TID 0000.0001) %MON land_Tsrf_max_S              =   1.9932753324686E+01
(PID.TID 0000.0001) %MON land_Tsrf_max_T              =   1.9637846254217E+01
(PID.TID 0000.0001) %MON land_Tsrf_max_N              =   7.4037317066080E+00
(PID.TID 0000.0001) %MON land_Tgr1_ave_G              =  -7.5520943686245E+00
(PID.TID 0000.0001) %MON land_Tgr1_ave_S              =  -7.3188759008714E+00
(PID.TID 0000.0001) %MON land_Tgr1_ave_T              =   9.5843296787613E+00
(PID.TID 0000.0001) %MON land_Tgr1_ave_N              =  -1.9070949023776E+01
(PID.TID 0000.0001) %MON land_Tgr1_min_S              =  -3.9423860737407E+01
(PID.TID 0000.0001) %MON land_Tgr1_min_T              =  -3.2359534916772E+00
(PID.TID 0000.0001) %MON land_Tgr1_min_N              =  -5.4521693926240E+01
(PID.TID 0000.0001) %MON land_Tgr1_max_S              =   1.9932753324686E+01
(PID.TID 0000.0001) %MON land_Tgr1_max_T              =   1.9637846254217E+01
(PID.TID 0000.0001) %MON land_Tgr1_max_N              =   7.4037317066080E+00
(PID.TID 0000.0001) %MON land_Tgr2_ave_G              =   4.2012501990068E+00
(PID.TID 0000.0001) %MON land_Tgr2_ave_S              =  -1.8723962466649E+01
(PID.TID 0000.0001) %MON land_Tgr2_ave_T              =   2.2006687109353E+01
(PID.TID 0000.0001) %MON land_Tgr2_ave_N              =  -2.5189761756510E-01
(PID.TID 0000.0001) %MON land_Tgr2_min_S              =  -6.4745505005526E+01
(PID.TID 0000.0001) %MON land_Tgr2_min_T              =  -9.7025385800636E+00
(PID.TID 0000.0001) %MON land_Tgr2_min_N              =  -4.0202853144532E+01
(PID.TID 0000.0001) %MON land_Tgr2_max_S              =   2.3359014320289E+01
(PID.TID 0000.0001) %MON land_Tgr2_max_T              =   3.1345541212558E+01
(PID.TID 0000.0001) %MON land_Tgr2_max_N              =   2.9813838211769E+01
(PID.TID 0000.0001) %MON land_grdW_ave_G              =   4.8665667042984E-01
(PID.TID 0000.0001) %MON land_grdW_ave_S              =   3.0842106838419E-01
(PID.TID 0000.0001) %MON land_grdW_ave_T              =   5.6393628966526E-01
(PID.TID 0000.0001) %MON land_grdW_ave_N              =   4.9287015675613E-01
(PID.TID 0000.0001) %MON land_grdW_min_S              =   2.8699337417135E-02
(PID.TID 0000.0001) %MON land_grdW_min_T              =   0.0000000000000E+00
(PID.TID 0000.0001) %MON land_grdW_min_N              =   0.0000000000000E+00
(PID.TID 0000.0001) // =======================================================
(PID.TID 0000.0001) // End MONITOR Land statistics
(PID.TID 0000.0001) // =======================================================
(PID.TID 0000.0001) // =======================================================
(PID.TID 0000.0001) // Begin MONITOR Therm.SeaIce statistics
(PID.TID 0000.0001) // =======================================================
(PID.TID 0000.0001) %MON thSI_time_sec                =   1.7550000000000E+04
(PID.TID 0000.0001) %MON thSI_Ice_Area_G              =   1.8818497834341E+11
(PID.TID 0000.0001) %MON thSI_Ice_Area_S              =   0.0000000000000E+00
(PID.TID 0000.0001) %MON thSI_Ice_Area_N              =   1.8818497834341E+11
(PID.TID 0000.0001) %MON thSI_IceH_ave_G              =   1.3841431788730E-01
(PID.TID 0000.0001) %MON thSI_IceH_ave_S              =   0.0000000000000E+00
(PID.TID 0000.0001) %MON thSI_IceH_ave_N              =   1.3841431788730E-01
(PID.TID 0000.0001) %MON thSI_IceH_max_S              =   0.0000000000000E+00
(PID.TID 0000.0001) %MON thSI_IceH_max_N              =   1.5038232444825E-01
(PID.TID 0000.0001) %MON thSI_SnwH_ave_G              =   0.0000000000000E+00
(PID.TID 0000.0001) %MON thSI_SnwH_ave_S              =   0.0000000000000E+00
(PID.TID 0000.0001) %MON thSI_SnwH_ave_N              =   0.0000000000000E+00
(PID.TID 0000.0001) %MON thSI_SnwH_max_S              =   0.0000000000000E+00
(PID.TID 0000.0001) %MON thSI_SnwH_max_N              =   0.0000000000000E+00
(PID.TID 0000.0001) %MON thSI_TotEnerg_G              =  -8.0607822550383E+18
(PID.TID 0000.0001) %MON thSI_Tsrf_ave_G              =  -9.1619377668965E+00
(PID.TID 0000.0001) %MON thSI_Tsrf_ave_S              =   0.0000000000000E+00
(PID.TID 0000.0001) %MON thSI_Tsrf_ave_N              =  -9.1619377668965E+00
(PID.TID 0000.0001) %MON thSI_Tsrf_min_S              =   0.0000000000000E+00
(PID.TID 0000.0001) %MON thSI_Tsrf_min_N              =  -9.7491325833689E+00
(PID.TID 0000.0001) %MON thSI_Tsrf_max_S              =   0.0000000000000E+00
(PID.TID 0000.0001) %MON thSI_Tsrf_max_N              =  -5.0355183086738E+00
(PID.TID 0000.0001) %MON thSI_Tic1_ave_G              =  -7.1416304651801E+00
(PID.TID 0000.0001) %MON thSI_Tic1_ave_S              =   0.0000000000000E+00
(PID.TID 0000.0001) %MON thSI_Tic1_ave_N              =  -7.1416304651801E+00
(PID.TID 0000.0001) %MON thSI_Tic1_min_S              =   0.0000000000000E+00
(PID.TID 0000.0001) %MON thSI_Tic1_min_N              =  -7.5047347354886E+00
(PID.TID 0000.0001) %MON thSI_Tic1_max_S              =   0.0000000000000E+00
(PID.TID 0000.0001) %MON thSI_Tic1_max_N              =  -3.1125611786672E+00
(PID.TID 0000.0001) %MON thSI_Tic2_ave_G              =  -3.4252132541514E+00
(PID.TID 0000.0001) %MON thSI_Tic2_ave_S              =   0.0000000000000E+00
(PID.TID 0000.0001) %MON thSI_Tic2_ave_N              =  -3.4252132541514E+00
(PID.TID 0000.0001) %MON thSI_Tic2_min_S              =   0.0000000000000E+00
(PID.TID 0000.0001) %MON thSI_Tic2_min_N              =  -3.5612661535673E+00
(PID.TID 0000.0001) %MON thSI_Tic2_max_S              =   0.0000000000000E+00
(PID.TID 0000.0001) %MON thSI_Tic2_max_N              =  -2.0073775699702E+00
(PID.TID 0000.0001) // =======================================================
(PID.TID 0000.0001) // End MONITOR Therm.SeaIce statistics
(PID.TID 0000.0001) // =======================================================
 cg2d: Sum(rhs),rhsMax =   6.98491930961609E-10  1.72840234150366E+04
(PID.TID 0000.0001)                    cg2d_init_res =    9.37795514326042E+03
(PID.TID 0000.0001)                       cg2d_iters =    16
(PID.TID 0000.0001)                         cg2d_res =    5.38475976939572E-11
(PID.TID 0000.0001) // =======================================================
(PID.TID 0000.0001) // Begin MONITOR dynamic field statistics
(PID.TID 0000.0001) // =======================================================
(PID.TID 0000.0001) %MON time_tsnumber                =                    40
(PID.TID 0000.0001) %MON time_secondsf                =   1.8000000000000E+04
(PID.TID 0000.0001) %MON dynstat_eta_max              =   3.0803998151231E+03
(PID.TID 0000.0001) %MON dynstat_eta_min              =  -9.8018067236349E+02
(PID.TID 0000.0001) %MON dynstat_eta_mean             =  -8.9968243573687E-14
(PID.TID 0000.0001) %MON dynstat_eta_sd               =   4.2469050673136E+02
(PID.TID 0000.0001) %MON dynstat_eta_del2             =   3.6337939263888E+01
(PID.TID 0000.0001) %MON dynstat_uvel_max             =   4.5710220052652E+00
(PID.TID 0000.0001) %MON dynstat_uvel_min             =  -3.2753867564045E+00
(PID.TID 0000.0001) %MON dynstat_uvel_mean            =   1.0118080347017E-01
(PID.TID 0000.0001) %MON dynstat_uvel_sd              =   7.1326374077625E-01
(PID.TID 0000.0001) %MON dynstat_uvel_del2            =   3.4637615521944E-02
(PID.TID 0000.0001) %MON dynstat_vvel_max             =   3.6425761795047E+00
(PID.TID 0000.0001) %MON dynstat_vvel_min             =  -4.1179675197363E+00
(PID.TID 0000.0001) %MON dynstat_vvel_mean            =   3.2235712760900E-02
(PID.TID 0000.0001) %MON dynstat_vvel_sd              =   7.4068080809129E-01
(PID.TID 0000.0001) %MON dynstat_vvel_del2            =   3.4239469797363E-02
(PID.TID 0000.0001) %MON dynstat_wvel_max             =   1.1858520517824E-01
(PID.TID 0000.0001) %MON dynstat_wvel_min             =  -1.0421897419638E-01
(PID.TID 0000.0001) %MON dynstat_wvel_mean            =   1.6090174620143E-04
(PID.TID 0000.0001) %MON dynstat_wvel_sd              =   9.1057170846429E-03
(PID.TID 0000.0001) %MON dynstat_wvel_del2            =   2.3226016297055E-03
(PID.TID 0000.0001) %MON dynstat_theta_max            =   4.3848470194978E+02
(PID.TID 0000.0001) %MON dynstat_theta_min            =   2.8044849267807E+02
(PID.TID 0000.0001) %MON dynstat_theta_mean           =   3.3165156782579E+02
(PID.TID 0000.0001) %MON dynstat_theta_sd             =   4.7484554293275E+01
(PID.TID 0000.0001) %MON dynstat_theta_del2           =   3.9308691285599E-02
(PID.TID 0000.0001) %MON dynstat_salt_max             =   5.0472797283531E+00
(PID.TID 0000.0001) %MON dynstat_salt_min             =  -4.7005332593814E-02
(PID.TID 0000.0001) %MON dynstat_salt_mean            =   1.3998742259498E-01
(PID.TID 0000.0001) %MON dynstat_salt_sd              =   5.2691632433851E-01
(PID.TID 0000.0001) %MON dynstat_salt_del2            =   1.5662733761624E-02
(PID.TID 0000.0001) %MON advcfl_uvel_max              =   6.9750892384192E-03
(PID.TID 0000.0001) %MON advcfl_vvel_max              =   6.2211738689318E-03
(PID.TID 0000.0001) %MON advcfl_wvel_max              =   3.0493338474403E-03
(PID.TID 0000.0001) %MON advcfl_W_hf_max              =   2.4044830152860E-02
(PID.TID 0000.0001) %MON pe_b_mean                    =  -1.1599506290745E+00
(PID.TID 0000.0001) %MON ke_max                       =   8.9642141161415E+00
(PID.TID 0000.0001) %MON ke_mean                      =   5.3110742961831E-01
(PID.TID 0000.0001) %MON ke_vol                       =   4.9523908919847E+19
(PID.TID 0000.0001) %MON vort_r_min                   =  -1.6183396757320E-05
(PID.TID 0000.0001) %MON vort_r_max                   =   1.8000778254996E-05
(PID.TID 0000.0001) %MON vort_a_mean                  =   6.7059142262016E-08
(PID.TID 0000.0001) %MON vort_a_sd                    =   8.3792940860290E-05
(PID.TID 0000.0001) %MON vort_p_mean                  =   6.8751172855782E-08
(PID.TID 0000.0001) %MON vort_p_sd                    =   9.1358612143245E-05
(PID.TID 0000.0001) %MON surfExpan_theta_mean         =  -1.5445153658413E-02
(PID.TID 0000.0001) %MON surfExpan_salt_mean          =  -1.8016367097691E-03
(PID.TID 0000.0001) %MON surfExpan_Heat_mean          =   1.1255959492957E+00
(PID.TID 0000.0001) %MON En_Budget_T2PE_mean          =  -2.3027640838266E+00
(PID.TID 0000.0001) // =======================================================
(PID.TID 0000.0001) // End MONITOR dynamic field statistics
(PID.TID 0000.0001) // =======================================================
(PID.TID 0000.0001) // =======================================================
(PID.TID 0000.0001) // Begin MONITOR Land statistics
(PID.TID 0000.0001) // =======================================================
(PID.TID 0000.0001) %MON land_time_sec                =   1.8000000000000E+04
(PID.TID 0000.0001) %MON land_SnwH_ave_G              =   1.5320961317934E-01
(PID.TID 0000.0001) %MON land_SnwH_ave_S              =   5.5902840914256E-01
(PID.TID 0000.0001) %MON land_SnwH_ave_T              =   0.0000000000000E+00
(PID.TID 0000.0001) %MON land_SnwH_ave_N              =   1.2387334232530E-01
(PID.TID 0000.0001) %MON land_SnwH_max_S              =   9.9997791924615E-01
(PID.TID 0000.0001) %MON land_SnwH_max_T              =   0.0000000000000E+00
(PID.TID 0000.0001) %MON land_SnwH_max_N              =   9.9999738065712E-01
(PID.TID 0000.0001) %MON land_TotEnerg_G              =  -6.3665715978047E+21
(PID.TID 0000.0001) %MON land_TotEnerg_S              =  -5.0024424772155E+21
(PID.TID 0000.0001) %MON land_TotEnerg_T              =   7.2707441581291E+21
(PID.TID 0000.0001) %MON land_TotEnerg_N              =  -8.6348732787183E+21
(PID.TID 0000.0001) %MON land_Tsrf_ave_G              =  -8.7239587150179E+00
(PID.TID 0000.0001) %MON land_Tsrf_ave_S              =  -7.3282606735133E+00
(PID.TID 0000.0001) %MON land_Tsrf_ave_T              =   9.5583928614638E+00
(PID.TID 0000.0001) %MON land_Tsrf_ave_N              =  -2.1385131363573E+01
(PID.TID 0000.0001) %MON land_Tsrf_min_S              =  -3.3333780531045E+01
(PID.TID 0000.0001) %MON land_Tsrf_min_T              =  -3.3723793136193E+00
(PID.TID 0000.0001) %MON land_Tsrf_min_N              =  -5.1969695400355E+01
(PID.TID 0000.0001) %MON land_Tsrf_max_S              =   1.9932113932617E+01
(PID.TID 0000.0001) %MON land_Tsrf_max_T              =   1.9617666391686E+01
(PID.TID 0000.0001) %MON land_Tsrf_max_N              =   7.3701436018872E+00
(PID.TID 0000.0001) %MON land_Tgr1_ave_G              =  -7.5671876471718E+00
(PID.TID 0000.0001) %MON land_Tgr1_ave_S              =  -7.3213386619755E+00
(PID.TID 0000.0001) %MON land_Tgr1_ave_T              =   9.5583928614638E+00
(PID.TID 0000.0001) %MON land_Tgr1_ave_N              =  -1.9082898568949E+01
(PID.TID 0000.0001) %MON land_Tgr1_min_S              =  -3.9434187545504E+01
(PID.TID 0000.0001) %MON land_Tgr1_min_T              =  -3.3723793136193E+00
(PID.TID 0000.0001) %MON land_Tgr1_min_N              =  -5.4509439355410E+01
(PID.TID 0000.0001) %MON land_Tgr1_max_S              =   1.9932113932617E+01
(PID.TID 0000.0001) %MON land_Tgr1_max_T              =   1.9617666391686E+01
(PID.TID 0000.0001) %MON land_Tgr1_max_N              =   7.3701436018872E+00
(PID.TID 0000.0001) %MON land_Tgr2_ave_G              =   4.2010707284472E+00
(PID.TID 0000.0001) %MON land_Tgr2_ave_S              =  -1.8723771191520E+01
(PID.TID 0000.0001) %MON land_Tgr2_ave_T              =   2.2006488037014E+01
(PID.TID 0000.0001) %MON land_Tgr2_ave_N              =  -2.5218426627529E-01
(PID.TID 0000.0001) %MON land_Tgr2_min_S              =  -6.4745078584616E+01
(PID.TID 0000.0001) %MON land_Tgr2_min_T              =  -9.7024441926414E+00
(PID.TID 0000.0001) %MON land_Tgr2_min_N              =  -4.0203085217863E+01
(PID.TID 0000.0001) %MON land_Tgr2_max_S              =   2.3358937631611E+01
(PID.TID 0000.0001) %MON land_Tgr2_max_T              =   3.1345085466794E+01
(PID.TID 0000.0001) %MON land_Tgr2_max_N              =   2.9813255818883E+01
(PID.TID 0000.0001) %MON land_grdW_ave_G              =   4.8664972265056E-01
(PID.TID 0000.0001) %MON land_grdW_ave_S              =   3.0841385759382E-01
(PID.TID 0000.0001) %MON land_grdW_ave_T              =   5.6391950895398E-01
(PID.TID 0000.0001) %MON land_grdW_ave_N              =   4.9286986043884E-01
(PID.TID 0000.0001) %MON land_grdW_min_S              =   2.8780179200379E-02
(PID.TID 0000.0001) %MON land_grdW_min_T              =   0.0000000000000E+00
(PID.TID 0000.0001) %MON land_grdW_min_N              =   0.0000000000000E+00
(PID.TID 0000.0001) // =======================================================
(PID.TID 0000.0001) // End MONITOR Land statistics
(PID.TID 0000.0001) // =======================================================
(PID.TID 0000.0001) // =======================================================
(PID.TID 0000.0001) // Begin MONITOR Therm.SeaIce statistics
(PID.TID 0000.0001) // =======================================================
(PID.TID 0000.0001) %MON thSI_time_sec                =   1.8000000000000E+04
(PID.TID 0000.0001) %MON thSI_Ice_Area_G              =   1.9015694004103E+11
(PID.TID 0000.0001) %MON thSI_Ice_Area_S              =   0.0000000000000E+00
(PID.TID 0000.0001) %MON thSI_Ice_Area_N              =   1.9015694004103E+11
(PID.TID 0000.0001) %MON thSI_IceH_ave_G              =   1.3832854437068E-01
(PID.TID 0000.0001) %MON thSI_IceH_ave_S              =   0.0000000000000E+00
(PID.TID 0000.0001) %MON thSI_IceH_ave_N              =   1.3832854437068E-01
(PID.TID 0000.0001) %MON thSI_IceH_max_S              =   0.0000000000000E+00
(PID.TID 0000.0001) %MON thSI_IceH_max_N              =   1.5052695055142E-01
(PID.TID 0000.0001) %MON thSI_SnwH_ave_G              =   0.0000000000000E+00
(PID.TID 0000.0001) %MON thSI_SnwH_ave_S              =   0.0000000000000E+00
(PID.TID 0000.0001) %MON thSI_SnwH_ave_N              =   0.0000000000000E+00
(PID.TID 0000.0001) %MON thSI_SnwH_max_S              =   0.0000000000000E+00
(PID.TID 0000.0001) %MON thSI_SnwH_max_N              =   0.0000000000000E+00
(PID.TID 0000.0001) %MON thSI_TotEnerg_G              =  -8.1405368775309E+18
(PID.TID 0000.0001) %MON thSI_Tsrf_ave_G              =  -9.1518463024407E+00
(PID.TID 0000.0001) %MON thSI_Tsrf_ave_S              =   0.0000000000000E+00
(PID.TID 0000.0001) %MON thSI_Tsrf_ave_N              =  -9.1518463024407E+00
(PID.TID 0000.0001) %MON thSI_Tsrf_min_S              =   0.0000000000000E+00
(PID.TID 0000.0001) %MON thSI_Tsrf_min_N              =  -9.7678340132605E+00
(PID.TID 0000.0001) %MON thSI_Tsrf_max_S              =   0.0000000000000E+00
(PID.TID 0000.0001) %MON thSI_Tsrf_max_N              =  -5.2712336580760E+00
(PID.TID 0000.0001) %MON thSI_Tic1_ave_G              =  -7.1464491227253E+00
(PID.TID 0000.0001) %MON thSI_Tic1_ave_S              =   0.0000000000000E+00
(PID.TID 0000.0001) %MON thSI_Tic1_ave_N              =  -7.1464491227253E+00
(PID.TID 0000.0001) %MON thSI_Tic1_min_S              =   0.0000000000000E+00
(PID.TID 0000.0001) %MON thSI_Tic1_min_N              =  -7.5340218778390E+00
(PID.TID 0000.0001) %MON thSI_Tic1_max_S              =   0.0000000000000E+00
(PID.TID 0000.0001) %MON thSI_Tic1_max_N              =  -3.3598170663735E+00
(PID.TID 0000.0001) %MON thSI_Tic2_ave_G              =  -3.4294109473934E+00
(PID.TID 0000.0001) %MON thSI_Tic2_ave_S              =   0.0000000000000E+00
(PID.TID 0000.0001) %MON thSI_Tic2_ave_N              =  -3.4294109473934E+00
(PID.TID 0000.0001) %MON thSI_Tic2_min_S              =   0.0000000000000E+00
(PID.TID 0000.0001) %MON thSI_Tic2_min_N              =  -3.5740872213933E+00
(PID.TID 0000.0001) %MON thSI_Tic2_max_S              =   0.0000000000000E+00
(PID.TID 0000.0001) %MON thSI_Tic2_max_N              =  -2.0807526290869E+00
(PID.TID 0000.0001) // =======================================================
(PID.TID 0000.0001) // End MONITOR Therm.SeaIce statistics
(PID.TID 0000.0001) // =======================================================
(PID.TID 0000.0001) %CHECKPOINT        40 ckptA
(PID.TID 0000.0001)   Seconds in section "ALL                    [THE_MODEL_MAIN]":
(PID.TID 0000.0001)           User time:   46.5599996950477
(PID.TID 0000.0001)         System time:  0.139999993145466
(PID.TID 0000.0001)     Wall clock time:   50.5468478202820
(PID.TID 0000.0001)          No. starts:           1
(PID.TID 0000.0001)           No. stops:           1
(PID.TID 0000.0001)   Seconds in section "INITIALISE_FIXED       [THE_MODEL_MAIN]":
(PID.TID 0000.0001)           User time:  0.590000024065375
(PID.TID 0000.0001)         System time:   3.00000011920929D-002
(PID.TID 0000.0001)     Wall clock time:   1.97352910041809
(PID.TID 0000.0001)          No. starts:           1
(PID.TID 0000.0001)           No. stops:           1
(PID.TID 0000.0001)   Seconds in section "THE_MAIN_LOOP          [THE_MODEL_MAIN]":
(PID.TID 0000.0001)           User time:   45.8599990606308
(PID.TID 0000.0001)         System time:   8.99999961256981D-002
(PID.TID 0000.0001)     Wall clock time:   47.7508440017700
(PID.TID 0000.0001)          No. starts:           1
(PID.TID 0000.0001)           No. stops:           1
(PID.TID 0000.0001)   Seconds in section "INITIALISE_VARIA    [THE_MAIN_LOOP]":
(PID.TID 0000.0001)           User time:  0.239999949932098
(PID.TID 0000.0001)         System time:   9.99999791383743D-003
(PID.TID 0000.0001)     Wall clock time:  0.317880153656006
(PID.TID 0000.0001)          No. starts:           1
(PID.TID 0000.0001)           No. stops:           1
(PID.TID 0000.0001)   Seconds in section "MONITOR             [THE_MAIN_LOOP]":
(PID.TID 0000.0001)           User time:  0.160000026226044
(PID.TID 0000.0001)         System time:   0.00000000000000D+000
(PID.TID 0000.0001)     Wall clock time:  0.155973911285400
(PID.TID 0000.0001)          No. starts:           1
(PID.TID 0000.0001)           No. stops:           1
(PID.TID 0000.0001)   Seconds in section "DO_THE_MODEL_IO     [THE_MAIN_LOOP]":
(PID.TID 0000.0001)           User time:  0.110000014305115
(PID.TID 0000.0001)         System time:   9.99999791383743D-003
(PID.TID 0000.0001)     Wall clock time:  0.614983081817627
(PID.TID 0000.0001)          No. starts:           1
(PID.TID 0000.0001)           No. stops:           1
(PID.TID 0000.0001)   Seconds in section "MAIN LOOP           [THE_MAIN_LOOP]":
(PID.TID 0000.0001)           User time:   45.3499990701675
(PID.TID 0000.0001)         System time:   7.00000002980232D-002
(PID.TID 0000.0001)     Wall clock time:   46.6618869304657
(PID.TID 0000.0001)          No. starts:           1
(PID.TID 0000.0001)           No. stops:           1
(PID.TID 0000.0001)   Seconds in section "FORWARD_STEP        [THE_MAIN_LOOP]":
(PID.TID 0000.0001)           User time:   45.3499990701675
(PID.TID 0000.0001)         System time:   7.00000002980232D-002
(PID.TID 0000.0001)     Wall clock time:   46.6610610485077
(PID.TID 0000.0001)          No. starts:          40
(PID.TID 0000.0001)           No. stops:          40
(PID.TID 0000.0001)   Seconds in section "EXTERNAL_FIELDS_LOAD[FORWARD_STEP]":
(PID.TID 0000.0001)           User time:   9.99999046325684D-003
(PID.TID 0000.0001)         System time:   2.00000032782555D-002
(PID.TID 0000.0001)     Wall clock time:  0.266907453536987
(PID.TID 0000.0001)          No. starts:          40
(PID.TID 0000.0001)           No. stops:          40
(PID.TID 0000.0001)   Seconds in section "CPL_EXPORT-IMPORT  [FORWARD_STEP]":
(PID.TID 0000.0001)           User time:  0.460001826286316
(PID.TID 0000.0001)         System time:   0.00000000000000D+000
(PID.TID 0000.0001)     Wall clock time:  0.463595151901245
(PID.TID 0000.0001)          No. starts:          40
(PID.TID 0000.0001)           No. stops:          40
(PID.TID 0000.0001)   Seconds in section "DO_ATMOSPHERIC_PHYS [FORWARD_STEP]":
(PID.TID 0000.0001)           User time:   7.67000246047974
(PID.TID 0000.0001)         System time:   3.00000011920929D-002
(PID.TID 0000.0001)     Wall clock time:   8.14706563949585
(PID.TID 0000.0001)          No. starts:          40
(PID.TID 0000.0001)           No. stops:          40
(PID.TID 0000.0001)   Seconds in section "AIM_DO_PHYSICS [DO_ATMOSPHERIC_PHYS]":
(PID.TID 0000.0001)           User time:   7.63000297546387
(PID.TID 0000.0001)         System time:   3.00000011920929D-002
(PID.TID 0000.0001)     Wall clock time:   8.02097845077515
(PID.TID 0000.0001)          No. starts:         240
(PID.TID 0000.0001)           No. stops:         240
(PID.TID 0000.0001)   Seconds in section "DO_OCEANIC_PHYS     [FORWARD_STEP]":
(PID.TID 0000.0001)           User time:   1.99985504150391D-002
(PID.TID 0000.0001)         System time:   0.00000000000000D+000
(PID.TID 0000.0001)     Wall clock time:   7.19838142395020D-002
(PID.TID 0000.0001)          No. starts:          40
(PID.TID 0000.0001)           No. stops:          40
(PID.TID 0000.0001)   Seconds in section "DYNAMICS            [FORWARD_STEP]":
(PID.TID 0000.0001)           User time:   8.38000178337097
(PID.TID 0000.0001)         System time:   0.00000000000000D+000
(PID.TID 0000.0001)     Wall clock time:   8.40279269218445
(PID.TID 0000.0001)          No. starts:          40
(PID.TID 0000.0001)           No. stops:          40
(PID.TID 0000.0001)   Seconds in section "UPDATE_R_STAR      [FORWARD_STEP]":
(PID.TID 0000.0001)           User time:  0.690000057220459
(PID.TID 0000.0001)         System time:   0.00000000000000D+000
(PID.TID 0000.0001)     Wall clock time:  0.614615678787231
(PID.TID 0000.0001)          No. starts:          40
(PID.TID 0000.0001)           No. stops:          40
(PID.TID 0000.0001)   Seconds in section "UPDATE_CG2D        [FORWARD_STEP]":
(PID.TID 0000.0001)           User time:  0.439997196197510
(PID.TID 0000.0001)         System time:   0.00000000000000D+000
(PID.TID 0000.0001)     Wall clock time:  0.436927556991577
(PID.TID 0000.0001)          No. starts:          40
(PID.TID 0000.0001)           No. stops:          40
(PID.TID 0000.0001)   Seconds in section "SOLVE_FOR_PRESSURE  [FORWARD_STEP]":
(PID.TID 0000.0001)           User time:   4.38000106811523
(PID.TID 0000.0001)         System time:   0.00000000000000D+000
(PID.TID 0000.0001)     Wall clock time:   4.38143920898438
(PID.TID 0000.0001)          No. starts:          40
(PID.TID 0000.0001)           No. stops:          40
(PID.TID 0000.0001)   Seconds in section "MOM_CORRECTION_STEP [FORWARD_STEP]":
(PID.TID 0000.0001)           User time:   4.79000258445740
(PID.TID 0000.0001)         System time:   0.00000000000000D+000
(PID.TID 0000.0001)     Wall clock time:   4.78868579864502
(PID.TID 0000.0001)          No. starts:          40
(PID.TID 0000.0001)           No. stops:          40
(PID.TID 0000.0001)   Seconds in section "SHAP_FILT_UV       [MOM_CORR_STEP]":
(PID.TID 0000.0001)           User time:   3.97000122070312
(PID.TID 0000.0001)         System time:   0.00000000000000D+000
(PID.TID 0000.0001)     Wall clock time:   3.91221404075623
(PID.TID 0000.0001)          No. starts:          40
(PID.TID 0000.0001)           No. stops:          40
(PID.TID 0000.0001)   Seconds in section "UPDATE_ETAH         [FORWARD_STEP]":
(PID.TID 0000.0001)           User time:   1.00002288818359D-002
(PID.TID 0000.0001)         System time:   0.00000000000000D+000
(PID.TID 0000.0001)     Wall clock time:   2.09846496582031D-002
(PID.TID 0000.0001)          No. starts:          40
(PID.TID 0000.0001)           No. stops:          40
(PID.TID 0000.0001)   Seconds in section "CALC_R_STAR       [FORWARD_STEP]":
(PID.TID 0000.0001)           User time:  0.409999370574951
(PID.TID 0000.0001)         System time:   0.00000000000000D+000
(PID.TID 0000.0001)     Wall clock time:  0.405891418457031
(PID.TID 0000.0001)          No. starts:          40
(PID.TID 0000.0001)           No. stops:          40
(PID.TID 0000.0001)   Seconds in section "BLOCKING_EXCHANGES  [FORWARD_STEP]":
(PID.TID 0000.0001)           User time:  0.769999265670776
(PID.TID 0000.0001)         System time:   0.00000000000000D+000
(PID.TID 0000.0001)     Wall clock time:  0.714152812957764
(PID.TID 0000.0001)          No. starts:          80
(PID.TID 0000.0001)           No. stops:          80
(PID.TID 0000.0001)   Seconds in section "THERMODYNAMICS      [FORWARD_STEP]":
(PID.TID 0000.0001)           User time:   4.39000296592712
(PID.TID 0000.0001)         System time:   0.00000000000000D+000
(PID.TID 0000.0001)     Wall clock time:   4.39458417892456
(PID.TID 0000.0001)          No. starts:          40
(PID.TID 0000.0001)           No. stops:          40
(PID.TID 0000.0001)   Seconds in section "TRC_CORRECTION_STEP [FORWARD_STEP]":
(PID.TID 0000.0001)           User time:   3.32999324798584
(PID.TID 0000.0001)         System time:   0.00000000000000D+000
(PID.TID 0000.0001)     Wall clock time:   3.48309707641602
(PID.TID 0000.0001)          No. starts:          40
(PID.TID 0000.0001)           No. stops:          40
(PID.TID 0000.0001)   Seconds in section "SHAP_FILT_TS       [TRC_CORR_STEP]":
(PID.TID 0000.0001)           User time:   3.22999572753906
(PID.TID 0000.0001)         System time:   0.00000000000000D+000
(PID.TID 0000.0001)     Wall clock time:   3.35930109024048
(PID.TID 0000.0001)          No. starts:          40
(PID.TID 0000.0001)           No. stops:          40
(PID.TID 0000.0001)   Seconds in section "DO_STATEVARS_TAVE   [FORWARD_STEP]":
(PID.TID 0000.0001)           User time:   2.05000472068787
(PID.TID 0000.0001)         System time:   0.00000000000000D+000
(PID.TID 0000.0001)     Wall clock time:   2.11165118217468
(PID.TID 0000.0001)          No. starts:          40
(PID.TID 0000.0001)           No. stops:          40
(PID.TID 0000.0001)   Seconds in section "MONITOR             [FORWARD_STEP]":
(PID.TID 0000.0001)           User time:   5.90999960899353
(PID.TID 0000.0001)         System time:   0.00000000000000D+000
(PID.TID 0000.0001)     Wall clock time:   5.78527665138245
(PID.TID 0000.0001)          No. starts:          40
(PID.TID 0000.0001)           No. stops:          40
(PID.TID 0000.0001)   Seconds in section "DO_THE_MODEL_IO     [FORWARD_STEP]":
(PID.TID 0000.0001)           User time:   1.59999537467957
(PID.TID 0000.0001)         System time:   1.00000053644180D-002
(PID.TID 0000.0001)     Wall clock time:   2.14805173873901
(PID.TID 0000.0001)          No. starts:          40
(PID.TID 0000.0001)           No. stops:          40
(PID.TID 0000.0001)   Seconds in section "WRITE_CHECKPOINT    [FORWARD_STEP]":
(PID.TID 0000.0001)           User time:   0.00000000000000D+000
(PID.TID 0000.0001)         System time:   0.00000000000000D+000
(PID.TID 0000.0001)     Wall clock time:   1.01494789123535D-003
(PID.TID 0000.0001)          No. starts:          40
(PID.TID 0000.0001)           No. stops:          40
(PID.TID 0000.0001)   Seconds in section "WRITE_CHECKPOINT       [THE_MODEL_MAIN]":
(PID.TID 0000.0001)           User time:  0.110000610351563
(PID.TID 0000.0001)         System time:   1.99999958276749D-002
(PID.TID 0000.0001)     Wall clock time:  0.822371959686279
(PID.TID 0000.0001)          No. starts:           1
(PID.TID 0000.0001)           No. stops:           1
(PID.TID 0000.0001) // ======================================================
(PID.TID 0000.0001) // Tile <-> Tile communication statistics
(PID.TID 0000.0001) // ======================================================
(PID.TID 0000.0001) // o Tile number: 000001
(PID.TID 0000.0001) //         No. X exchanges =              0
(PID.TID 0000.0001) //            Max. X spins =              0
(PID.TID 0000.0001) //            Min. X spins =     1000000000
(PID.TID 0000.0001) //          Total. X spins =              0
(PID.TID 0000.0001) //            Avg. X spins =       0.00E+00
(PID.TID 0000.0001) //         No. Y exchanges =              0
(PID.TID 0000.0001) //            Max. Y spins =              0
(PID.TID 0000.0001) //            Min. Y spins =     1000000000
(PID.TID 0000.0001) //          Total. Y spins =              0
(PID.TID 0000.0001) //            Avg. Y spins =       0.00E+00
(PID.TID 0000.0001) // o Tile number: 000002
(PID.TID 0000.0001) //         No. X exchanges =              0
(PID.TID 0000.0001) //            Max. X spins =              0
(PID.TID 0000.0001) //            Min. X spins =     1000000000
(PID.TID 0000.0001) //          Total. X spins =              0
(PID.TID 0000.0001) //            Avg. X spins =       0.00E+00
(PID.TID 0000.0001) //         No. Y exchanges =              0
(PID.TID 0000.0001) //            Max. Y spins =              0
(PID.TID 0000.0001) //            Min. Y spins =     1000000000
(PID.TID 0000.0001) //          Total. Y spins =              0
(PID.TID 0000.0001) //            Avg. Y spins =       0.00E+00
(PID.TID 0000.0001) // o Tile number: 000003
(PID.TID 0000.0001) //         No. X exchanges =              0
(PID.TID 0000.0001) //            Max. X spins =              0
(PID.TID 0000.0001) //            Min. X spins =     1000000000
(PID.TID 0000.0001) //          Total. X spins =              0
(PID.TID 0000.0001) //            Avg. X spins =       0.00E+00
(PID.TID 0000.0001) //         No. Y exchanges =              0
(PID.TID 0000.0001) //            Max. Y spins =              0
(PID.TID 0000.0001) //            Min. Y spins =     1000000000
(PID.TID 0000.0001) //          Total. Y spins =              0
(PID.TID 0000.0001) //            Avg. Y spins =       0.00E+00
(PID.TID 0000.0001) // o Tile number: 000004
(PID.TID 0000.0001) //         No. X exchanges =              0
(PID.TID 0000.0001) //            Max. X spins =              0
(PID.TID 0000.0001) //            Min. X spins =     1000000000
(PID.TID 0000.0001) //          Total. X spins =              0
(PID.TID 0000.0001) //            Avg. X spins =       0.00E+00
(PID.TID 0000.0001) //         No. Y exchanges =              0
(PID.TID 0000.0001) //            Max. Y spins =              0
(PID.TID 0000.0001) //            Min. Y spins =     1000000000
(PID.TID 0000.0001) //          Total. Y spins =              0
(PID.TID 0000.0001) //            Avg. Y spins =       0.00E+00
(PID.TID 0000.0001) // o Tile number: 000005
(PID.TID 0000.0001) //         No. X exchanges =              0
(PID.TID 0000.0001) //            Max. X spins =              0
(PID.TID 0000.0001) //            Min. X spins =     1000000000
(PID.TID 0000.0001) //          Total. X spins =              0
(PID.TID 0000.0001) //            Avg. X spins =       0.00E+00
(PID.TID 0000.0001) //         No. Y exchanges =              0
(PID.TID 0000.0001) //            Max. Y spins =              0
(PID.TID 0000.0001) //            Min. Y spins =     1000000000
(PID.TID 0000.0001) //          Total. Y spins =              0
(PID.TID 0000.0001) //            Avg. Y spins =       0.00E+00
(PID.TID 0000.0001) // o Tile number: 000006
(PID.TID 0000.0001) //         No. X exchanges =              0
(PID.TID 0000.0001) //            Max. X spins =              0
(PID.TID 0000.0001) //            Min. X spins =     1000000000
(PID.TID 0000.0001) //          Total. X spins =              0
(PID.TID 0000.0001) //            Avg. X spins =       0.00E+00
(PID.TID 0000.0001) //         No. Y exchanges =              0
(PID.TID 0000.0001) //            Max. Y spins =              0
(PID.TID 0000.0001) //            Min. Y spins =     1000000000
(PID.TID 0000.0001) //          Total. Y spins =              0
(PID.TID 0000.0001) //            Avg. Y spins =       0.00E+00
(PID.TID 0000.0001) // o Thread number: 000001
(PID.TID 0000.0001) //            No. barriers =          54220
(PID.TID 0000.0001) //      Max. barrier spins =              1
(PID.TID 0000.0001) //      Min. barrier spins =              1
(PID.TID 0000.0001) //     Total barrier spins =          54220
(PID.TID 0000.0001) //      Avg. barrier spins =       1.00E+00
