(PID.TID 0000.0001) 
(PID.TID 0000.0001) // ======================================================
(PID.TID 0000.0001) //                      MITgcm UV
(PID.TID 0000.0001) //                      =========
(PID.TID 0000.0001) // ======================================================
(PID.TID 0000.0001) // execution environment starting up...
(PID.TID 0000.0001) 
(PID.TID 0000.0001) // MITgcmUV version:  checkpoint59a
(PID.TID 0000.0001) // Build user:        jmc
(PID.TID 0000.0001) // Build host:        a54-1727-075
(PID.TID 0000.0001) // Build date:        Fri May  4 17:37:09 EDT 2007
(PID.TID 0000.0001) 
(PID.TID 0000.0001) // =======================================================
(PID.TID 0000.0001) // Execution Environment parameter file "eedata"
(PID.TID 0000.0001) // =======================================================
(PID.TID 0000.0001) ># Example "eedata" file
(PID.TID 0000.0001) ># Lines beginning "#" are comments
(PID.TID 0000.0001) ># nTx - No. threads per process in X
(PID.TID 0000.0001) ># nTy - No. threads per process in Y
(PID.TID 0000.0001) > &EEPARMS
(PID.TID 0000.0001) > useCoupler=.TRUE.,
(PID.TID 0000.0001) > useCubedSphereExchange=.TRUE.,
(PID.TID 0000.0001) > nTx=1,
(PID.TID 0000.0001) > nTy=1,
(PID.TID 0000.0001) > &
(PID.TID 0000.0001) ># Note: Some systems use & as the
(PID.TID 0000.0001) ># namelist terminator. Other systems
(PID.TID 0000.0001) ># use a / character (as shown here).
(PID.TID 0000.0001) 
(PID.TID 0000.0001) // =======================================================
(PID.TID 0000.0001) // Computational Grid Specification ( see files "SIZE.h" )
(PID.TID 0000.0001) //                                  ( and "eedata"       )
(PID.TID 0000.0001) // =======================================================
(PID.TID 0000.0001)      nPx =    1 ; /* No. processes in X */
(PID.TID 0000.0001)      nPy =    1 ; /* No. processes in Y */
(PID.TID 0000.0001)      nSx =    6 ; /* No. tiles in X per process */
(PID.TID 0000.0001)      nSy =    1 ; /* No. tiles in Y per process */
(PID.TID 0000.0001)      sNx =   32 ; /* Tile size in X */
(PID.TID 0000.0001)      sNy =   32 ; /* Tile size in Y */
(PID.TID 0000.0001)      OLx =    2 ; /* Tile overlap distance in X */
(PID.TID 0000.0001)      OLy =    2 ; /* Tile overlap distance in Y */
(PID.TID 0000.0001)      nTx =    1 ; /* No. threads in X per process */
(PID.TID 0000.0001)      nTy =    1 ; /* No. threads in Y per process */
(PID.TID 0000.0001)       Nr =   15 ; /* No. levels in the vertical   */
(PID.TID 0000.0001)       nX =  192 ; /* Total domain size in X ( = nPx*nSx*sNx ) */
(PID.TID 0000.0001)       nY =   32 ; /* Total domain size in Y ( = nPy*nSy*sNy ) */
(PID.TID 0000.0001)   nTiles =    6 ; /* Total no. tiles per process ( = nSx*nSy ) */
(PID.TID 0000.0001)   nProcs =    1 ; /* Total no. processes ( = nPx*nPy ) */
(PID.TID 0000.0001) nThreads =    1 ; /* Total no. threads per process ( = nTx*nTy ) */
(PID.TID 0000.0001) usingMPI =    F ; /* Flag used to control whether MPI is in use */
(PID.TID 0000.0001)                   /*  note: To execute a program with MPI calls */
(PID.TID 0000.0001)                   /*  it must be launched appropriately e.g     */
(PID.TID 0000.0001)                   /*  "mpirun -np 64 ......"                    */
(PID.TID 0000.0001) useCoupler=   T ; /* Flag used to control communications with */
(PID.TID 0000.0001)                   /*  other model components, through a coupler */
(PID.TID 0000.0001) 
(PID.TID 0000.0001) ======= Starting MPI parallel Run =========
(PID.TID 0000.0001)  My Processor Name =                                        a54-1727-075.acesgrid.org
(PID.TID 0000.0001)  Located at (  0,  0) on processor grid (0:  0,0:  0)
(PID.TID 0000.0001)  Origin at  (   1,   1) on global grid (1: 192,1:  32)
(PID.TID 0000.0001)  North neighbor = processor 0000
(PID.TID 0000.0001)  South neighbor = processor 0000
(PID.TID 0000.0001)   East neighbor = processor 0000
(PID.TID 0000.0001)   West neighbor = processor 0000
(PID.TID 0000.0001) // ======================================================
(PID.TID 0000.0001) // Mapping of tiles to threads
(PID.TID 0000.0001) // ======================================================
(PID.TID 0000.0001) // -o- Thread   1, tiles (   1:   6,   1:   1)
(PID.TID 0000.0001) 
(PID.TID 0000.0001) // ======================================================
(PID.TID 0000.0001) // Tile <-> Tile connectvity table
(PID.TID 0000.0001) // ======================================================
(PID.TID 0000.0001) // Tile number: 000001 (process no. = 000000)
(PID.TID 0000.0001) //        WEST: Tile = 000006, Process = 000000, Comm = put
(PID.TID 0000.0001) //                bi = 000006, bj = 000001
(PID.TID 0000.0001) //        EAST: Tile = 000002, Process = 000000, Comm = put
(PID.TID 0000.0001) //                bi = 000002, bj = 000001
(PID.TID 0000.0001) //       SOUTH: Tile = 000001, Process = 000000, Comm = put
(PID.TID 0000.0001) //                bi = 000001, bj = 000001
(PID.TID 0000.0001) //       NORTH: Tile = 000001, Process = 000000, Comm = put
(PID.TID 0000.0001) //                bi = 000001, bj = 000001
(PID.TID 0000.0001) // Tile number: 000002 (process no. = 000000)
(PID.TID 0000.0001) //        WEST: Tile = 000001, Process = 000000, Comm = put
(PID.TID 0000.0001) //                bi = 000001, bj = 000001
(PID.TID 0000.0001) //        EAST: Tile = 000003, Process = 000000, Comm = put
(PID.TID 0000.0001) //                bi = 000003, bj = 000001
(PID.TID 0000.0001) //       SOUTH: Tile = 000002, Process = 000000, Comm = put
(PID.TID 0000.0001) //                bi = 000002, bj = 000001
(PID.TID 0000.0001) //       NORTH: Tile = 000002, Process = 000000, Comm = put
(PID.TID 0000.0001) //                bi = 000002, bj = 000001
(PID.TID 0000.0001) // Tile number: 000003 (process no. = 000000)
(PID.TID 0000.0001) //        WEST: Tile = 000002, Process = 000000, Comm = put
(PID.TID 0000.0001) //                bi = 000002, bj = 000001
(PID.TID 0000.0001) //        EAST: Tile = 000004, Process = 000000, Comm = put
(PID.TID 0000.0001) //                bi = 000004, bj = 000001
(PID.TID 0000.0001) //       SOUTH: Tile = 000003, Process = 000000, Comm = put
(PID.TID 0000.0001) //                bi = 000003, bj = 000001
(PID.TID 0000.0001) //       NORTH: Tile = 000003, Process = 000000, Comm = put
(PID.TID 0000.0001) //                bi = 000003, bj = 000001
(PID.TID 0000.0001) // Tile number: 000004 (process no. = 000000)
(PID.TID 0000.0001) //        WEST: Tile = 000003, Process = 000000, Comm = put
(PID.TID 0000.0001) //                bi = 000003, bj = 000001
(PID.TID 0000.0001) //        EAST: Tile = 000005, Process = 000000, Comm = put
(PID.TID 0000.0001) //                bi = 000005, bj = 000001
(PID.TID 0000.0001) //       SOUTH: Tile = 000004, Process = 000000, Comm = put
(PID.TID 0000.0001) //                bi = 000004, bj = 000001
(PID.TID 0000.0001) //       NORTH: Tile = 000004, Process = 000000, Comm = put
(PID.TID 0000.0001) //                bi = 000004, bj = 000001
(PID.TID 0000.0001) // Tile number: 000005 (process no. = 000000)
(PID.TID 0000.0001) //        WEST: Tile = 000004, Process = 000000, Comm = put
(PID.TID 0000.0001) //                bi = 000004, bj = 000001
(PID.TID 0000.0001) //        EAST: Tile = 000006, Process = 000000, Comm = put
(PID.TID 0000.0001) //                bi = 000006, bj = 000001
(PID.TID 0000.0001) //       SOUTH: Tile = 000005, Process = 000000, Comm = put
(PID.TID 0000.0001) //                bi = 000005, bj = 000001
(PID.TID 0000.0001) //       NORTH: Tile = 000005, Process = 000000, Comm = put
(PID.TID 0000.0001) //                bi = 000005, bj = 000001
(PID.TID 0000.0001) // Tile number: 000006 (process no. = 000000)
(PID.TID 0000.0001) //        WEST: Tile = 000005, Process = 000000, Comm = put
(PID.TID 0000.0001) //                bi = 000005, bj = 000001
(PID.TID 0000.0001) //        EAST: Tile = 000001, Process = 000000, Comm = put
(PID.TID 0000.0001) //                bi = 000001, bj = 000001
(PID.TID 0000.0001) //       SOUTH: Tile = 000006, Process = 000000, Comm = put
(PID.TID 0000.0001) //                bi = 000006, bj = 000001
(PID.TID 0000.0001) //       NORTH: Tile = 000006, Process = 000000, Comm = put
(PID.TID 0000.0001) //                bi = 000006, bj = 000001
(PID.TID 0000.0001) 
(PID.TID 0000.0001) ===== W2 TILE TOPLOGY =====
(PID.TID 0000.0001)  TILE:    1
(PID.TID 0000.0001)       NEIGHBOUR    1 = TILE    3 Comm = PUT ( PROC =    1)
(PID.TID 0000.0001)       NEIGHBOUR    2 = TILE    6 Comm = PUT ( PROC =    1)
(PID.TID 0000.0001)       NEIGHBOUR    3 = TILE    2 Comm = PUT ( PROC =    1)
(PID.TID 0000.0001)       NEIGHBOUR    4 = TILE    5 Comm = PUT ( PROC =    1)
(PID.TID 0000.0001)  TILE:    2
(PID.TID 0000.0001)       NEIGHBOUR    1 = TILE    3 Comm = PUT ( PROC =    1)
(PID.TID 0000.0001)       NEIGHBOUR    2 = TILE    6 Comm = PUT ( PROC =    1)
(PID.TID 0000.0001)       NEIGHBOUR    3 = TILE    4 Comm = PUT ( PROC =    1)
(PID.TID 0000.0001)       NEIGHBOUR    4 = TILE    1 Comm = PUT ( PROC =    1)
(PID.TID 0000.0001)  TILE:    3
(PID.TID 0000.0001)       NEIGHBOUR    1 = TILE    5 Comm = PUT ( PROC =    1)
(PID.TID 0000.0001)       NEIGHBOUR    2 = TILE    2 Comm = PUT ( PROC =    1)
(PID.TID 0000.0001)       NEIGHBOUR    3 = TILE    4 Comm = PUT ( PROC =    1)
(PID.TID 0000.0001)       NEIGHBOUR    4 = TILE    1 Comm = PUT ( PROC =    1)
(PID.TID 0000.0001)  TILE:    4
(PID.TID 0000.0001)       NEIGHBOUR    1 = TILE    5 Comm = PUT ( PROC =    1)
(PID.TID 0000.0001)       NEIGHBOUR    2 = TILE    2 Comm = PUT ( PROC =    1)
(PID.TID 0000.0001)       NEIGHBOUR    3 = TILE    6 Comm = PUT ( PROC =    1)
(PID.TID 0000.0001)       NEIGHBOUR    4 = TILE    3 Comm = PUT ( PROC =    1)
(PID.TID 0000.0001)  TILE:    5
(PID.TID 0000.0001)       NEIGHBOUR    1 = TILE    1 Comm = PUT ( PROC =    1)
(PID.TID 0000.0001)       NEIGHBOUR    2 = TILE    4 Comm = PUT ( PROC =    1)
(PID.TID 0000.0001)       NEIGHBOUR    3 = TILE    6 Comm = PUT ( PROC =    1)
(PID.TID 0000.0001)       NEIGHBOUR    4 = TILE    3 Comm = PUT ( PROC =    1)
(PID.TID 0000.0001)  TILE:    6
(PID.TID 0000.0001)       NEIGHBOUR    1 = TILE    1 Comm = PUT ( PROC =    1)
(PID.TID 0000.0001)       NEIGHBOUR    2 = TILE    4 Comm = PUT ( PROC =    1)
(PID.TID 0000.0001)       NEIGHBOUR    3 = TILE    2 Comm = PUT ( PROC =    1)
(PID.TID 0000.0001)       NEIGHBOUR    4 = TILE    5 Comm = PUT ( PROC =    1)
(PID.TID 0000.0001) Tile    1(proc =   1) sends points i=  34:  -1, j=  31:  32
(PID.TID 0000.0001)                          to points i=  -1:   0, j=  -1:  34 in tile    3(proc =   1)
(PID.TID 0000.0001) Tile    1(proc =   1) sends points i=  -1:  34, j=   1:   2
(PID.TID 0000.0001)                          to points i=  -1:  34, j=  33:  34 in tile    6(proc =   1)
(PID.TID 0000.0001) Tile    1(proc =   1) sends points i=  31:  32, j=  -1:  34
(PID.TID 0000.0001)                          to points i=  -1:   0, j=  -1:  34 in tile    2(proc =   1)
(PID.TID 0000.0001) Tile    1(proc =   1) sends points i=   1:   2, j=  34:  -1
(PID.TID 0000.0001)                          to points i=  -1:  34, j=  33:  34 in tile    5(proc =   1)
(PID.TID 0000.0001) Tile    2(proc =   1) sends points i=  -1:  34, j=  31:  32
(PID.TID 0000.0001)                          to points i=  -1:  34, j=  -1:   0 in tile    3(proc =   1)
(PID.TID 0000.0001) Tile    2(proc =   1) sends points i=  34:  -1, j=   1:   2
(PID.TID 0000.0001)                          to points i=  33:  34, j=  -1:  34 in tile    6(proc =   1)
(PID.TID 0000.0001) Tile    2(proc =   1) sends points i=  31:  32, j=  34:  -1
(PID.TID 0000.0001)                          to points i=  -1:  34, j=  -1:   0 in tile    4(proc =   1)
(PID.TID 0000.0001) Tile    2(proc =   1) sends points i=   1:   2, j=  -1:  34
(PID.TID 0000.0001)                          to points i=  33:  34, j=  -1:  34 in tile    1(proc =   1)
(PID.TID 0000.0001) Tile    3(proc =   1) sends points i=  34:  -1, j=  31:  32
(PID.TID 0000.0001)                          to points i=  -1:   0, j=  -1:  34 in tile    5(proc =   1)
(PID.TID 0000.0001) Tile    3(proc =   1) sends points i=  -1:  34, j=   1:   2
(PID.TID 0000.0001)                          to points i=  -1:  34, j=  33:  34 in tile    2(proc =   1)
(PID.TID 0000.0001) Tile    3(proc =   1) sends points i=  31:  32, j=  -1:  34
(PID.TID 0000.0001)                          to points i=  -1:   0, j=  -1:  34 in tile    4(proc =   1)
(PID.TID 0000.0001) Tile    3(proc =   1) sends points i=   1:   2, j=  34:  -1
(PID.TID 0000.0001)                          to points i=  -1:  34, j=  33:  34 in tile    1(proc =   1)
(PID.TID 0000.0001) Tile    4(proc =   1) sends points i=  -1:  34, j=  31:  32
(PID.TID 0000.0001)                          to points i=  -1:  34, j=  -1:   0 in tile    5(proc =   1)
(PID.TID 0000.0001) Tile    4(proc =   1) sends points i=  34:  -1, j=   1:   2
(PID.TID 0000.0001)                          to points i=  33:  34, j=  -1:  34 in tile    2(proc =   1)
(PID.TID 0000.0001) Tile    4(proc =   1) sends points i=  31:  32, j=  34:  -1
(PID.TID 0000.0001)                          to points i=  -1:  34, j=  -1:   0 in tile    6(proc =   1)
(PID.TID 0000.0001) Tile    4(proc =   1) sends points i=   1:   2, j=  -1:  34
(PID.TID 0000.0001)                          to points i=  33:  34, j=  -1:  34 in tile    3(proc =   1)
(PID.TID 0000.0001) Tile    5(proc =   1) sends points i=  34:  -1, j=  31:  32
(PID.TID 0000.0001)                          to points i=  -1:   0, j=  -1:  34 in tile    1(proc =   1)
(PID.TID 0000.0001) Tile    5(proc =   1) sends points i=  -1:  34, j=   1:   2
(PID.TID 0000.0001)                          to points i=  -1:  34, j=  33:  34 in tile    4(proc =   1)
(PID.TID 0000.0001) Tile    5(proc =   1) sends points i=  31:  32, j=  -1:  34
(PID.TID 0000.0001)                          to points i=  -1:   0, j=  -1:  34 in tile    6(proc =   1)
(PID.TID 0000.0001) Tile    5(proc =   1) sends points i=   1:   2, j=  34:  -1
(PID.TID 0000.0001)                          to points i=  -1:  34, j=  33:  34 in tile    3(proc =   1)
(PID.TID 0000.0001) Tile    6(proc =   1) sends points i=  -1:  34, j=  31:  32
(PID.TID 0000.0001)                          to points i=  -1:  34, j=  -1:   0 in tile    1(proc =   1)
(PID.TID 0000.0001) Tile    6(proc =   1) sends points i=  34:  -1, j=   1:   2
(PID.TID 0000.0001)                          to points i=  33:  34, j=  -1:  34 in tile    4(proc =   1)
(PID.TID 0000.0001) Tile    6(proc =   1) sends points i=  31:  32, j=  34:  -1
(PID.TID 0000.0001)                          to points i=  -1:  34, j=  -1:   0 in tile    2(proc =   1)
(PID.TID 0000.0001) Tile    6(proc =   1) sends points i=   1:   2, j=  -1:  34
(PID.TID 0000.0001)                          to points i=  33:  34, j=  -1:  34 in tile    5(proc =   1)
(PID.TID 0000.0001) Tile    1(proc =   1)recv to points i=  -1:  34, j=  33:  34from tile   3(proc =   1)
(PID.TID 0000.0001) Tile    1(proc =   1)recv to points i=  -1:  34, j=  -1:   0from tile   6(proc =   1)
(PID.TID 0000.0001) Tile    1(proc =   1)recv to points i=  33:  34, j=  -1:  34from tile   2(proc =   1)
(PID.TID 0000.0001) Tile    1(proc =   1)recv to points i=  -1:   0, j=  -1:  34from tile   5(proc =   1)
(PID.TID 0000.0001) Tile    2(proc =   1)recv to points i=  -1:  34, j=  33:  34from tile   3(proc =   1)
(PID.TID 0000.0001) Tile    2(proc =   1)recv to points i=  -1:  34, j=  -1:   0from tile   6(proc =   1)
(PID.TID 0000.0001) Tile    2(proc =   1)recv to points i=  33:  34, j=  -1:  34from tile   4(proc =   1)
(PID.TID 0000.0001) Tile    2(proc =   1)recv to points i=  -1:   0, j=  -1:  34from tile   1(proc =   1)
(PID.TID 0000.0001) Tile    3(proc =   1)recv to points i=  -1:  34, j=  33:  34from tile   5(proc =   1)
(PID.TID 0000.0001) Tile    3(proc =   1)recv to points i=  -1:  34, j=  -1:   0from tile   2(proc =   1)
(PID.TID 0000.0001) Tile    3(proc =   1)recv to points i=  33:  34, j=  -1:  34from tile   4(proc =   1)
(PID.TID 0000.0001) Tile    3(proc =   1)recv to points i=  -1:   0, j=  -1:  34from tile   1(proc =   1)
(PID.TID 0000.0001) Tile    4(proc =   1)recv to points i=  -1:  34, j=  33:  34from tile   5(proc =   1)
(PID.TID 0000.0001) Tile    4(proc =   1)recv to points i=  -1:  34, j=  -1:   0from tile   2(proc =   1)
(PID.TID 0000.0001) Tile    4(proc =   1)recv to points i=  33:  34, j=  -1:  34from tile   6(proc =   1)
(PID.TID 0000.0001) Tile    4(proc =   1)recv to points i=  -1:   0, j=  -1:  34from tile   3(proc =   1)
(PID.TID 0000.0001) Tile    5(proc =   1)recv to points i=  -1:  34, j=  33:  34from tile   1(proc =   1)
(PID.TID 0000.0001) Tile    5(proc =   1)recv to points i=  -1:  34, j=  -1:   0from tile   4(proc =   1)
(PID.TID 0000.0001) Tile    5(proc =   1)recv to points i=  33:  34, j=  -1:  34from tile   6(proc =   1)
(PID.TID 0000.0001) Tile    5(proc =   1)recv to points i=  -1:   0, j=  -1:  34from tile   3(proc =   1)
(PID.TID 0000.0001) Tile    6(proc =   1)recv to points i=  -1:  34, j=  33:  34from tile   1(proc =   1)
(PID.TID 0000.0001) Tile    6(proc =   1)recv to points i=  -1:  34, j=  -1:   0from tile   4(proc =   1)
(PID.TID 0000.0001) Tile    6(proc =   1)recv to points i=  33:  34, j=  -1:  34from tile   2(proc =   1)
(PID.TID 0000.0001) Tile    6(proc =   1)recv to points i=  -1:   0, j=  -1:  34from tile   5(proc =   1)
(PID.TID 0000.0001) // =======================================================
(PID.TID 0000.0001) // Model parameter file "data"
(PID.TID 0000.0001) // =======================================================
(PID.TID 0000.0001) ># ====================
(PID.TID 0000.0001) ># | Model parameters |
(PID.TID 0000.0001) ># ====================
(PID.TID 0000.0001) >#
(PID.TID 0000.0001) ># Continuous equation parameters
(PID.TID 0000.0001) > &PARM01
(PID.TID 0000.0001) > tRef=15*20.,
(PID.TID 0000.0001) > sRef=15*35.,
(PID.TID 0000.0001) > viscAh =3.E5,
(PID.TID 0000.0001) > viscAr =1.E-3,
(PID.TID 0000.0001) > diffKhT=0.,
(PID.TID 0000.0001) > diffK4T=0.,
(PID.TID 0000.0001) > diffKrT=3.E-5,
(PID.TID 0000.0001) > diffKhS=0.,
(PID.TID 0000.0001) > diffK4S=0.,
(PID.TID 0000.0001) > diffKrS=3.E-5,
(PID.TID 0000.0001) > gravity=9.81,
(PID.TID 0000.0001) > rhoConst=1030.,
(PID.TID 0000.0001) > rhoConstFresh=1000.,
(PID.TID 0000.0001) > eosType='JMD95Z',
(PID.TID 0000.0001) >#allowFreezing=.TRUE.,
(PID.TID 0000.0001) > ivdc_kappa=10.,
(PID.TID 0000.0001) > implicitDiffusion=.TRUE.,
(PID.TID 0000.0001) > implicitFreeSurface=.TRUE.,
(PID.TID 0000.0001) > exactConserv=.TRUE.,
(PID.TID 0000.0001) > select_rStar=2,
(PID.TID 0000.0001) > nonlinFreeSurf=4,
(PID.TID 0000.0001) > hFacInf=0.2,
(PID.TID 0000.0001) > hFacSup=2.0,
(PID.TID 0000.0001) > useRealFreshWaterFlux=.TRUE.,
(PID.TID 0000.0001) > temp_EvPrRn=0.,
(PID.TID 0000.0001) > hFacMin=.1,
(PID.TID 0000.0001) > hFacMinDr=20.,
(PID.TID 0000.0001) > vectorInvariantMomentum=.TRUE.,
(PID.TID 0000.0001) > staggerTimeStep=.TRUE.,
(PID.TID 0000.0001) > readBinaryPrec=64,
(PID.TID 0000.0001) > writeBinaryPrec=64,
(PID.TID 0000.0001) >#debugLevel=0,
(PID.TID 0000.0001) > &
(PID.TID 0000.0001) >
(PID.TID 0000.0001) ># Elliptic solver parameters
(PID.TID 0000.0001) > &PARM02
(PID.TID 0000.0001) > cg2dMaxIters=200,
(PID.TID 0000.0001) > cg2dTargetResidual=1.E-9,
(PID.TID 0000.0001) >#cg2dTargetResWunit=1.E-14,
(PID.TID 0000.0001) > &
(PID.TID 0000.0001) >
(PID.TID 0000.0001) ># Time stepping parameters
(PID.TID 0000.0001) > &PARM03
(PID.TID 0000.0001) > nIter0=0,
(PID.TID 0000.0001) > nTimeSteps=5,
(PID.TID 0000.0001) > deltaTmom   =3600.,
(PID.TID 0000.0001) > deltaTtracer=3600.,
(PID.TID 0000.0001) > deltaTClock =3600.,
(PID.TID 0000.0001) > abEps = 0.1,
(PID.TID 0000.0001) > pChkptFreq  =2592000.,
(PID.TID 0000.0001) > taveFreq    =2592000.,
(PID.TID 0000.0001) > dumpFreq    =864000.,
(PID.TID 0000.0001) > monitorFreq =86400.,
(PID.TID 0000.0001) > monitorFreq =1.,
(PID.TID 0000.0001) >#forcing_In_AB=.FALSE.,
(PID.TID 0000.0001) > tracForcingOutAB=1,
(PID.TID 0000.0001) > periodicExternalForcing=.TRUE.,
(PID.TID 0000.0001) > externForcingPeriod=2592000.,
(PID.TID 0000.0001) > externForcingCycle=31104000.,
(PID.TID 0000.0001) ># 2 months restoring timescale for temperature
(PID.TID 0000.0001) >#tauThetaClimRelax= 5184000.,
(PID.TID 0000.0001) ># restoring timescale for salinity: 2yrs, 20 yrs
(PID.TID 0000.0001) >#tauSaltClimRelax = 62208000.,
(PID.TID 0000.0001) > tauSaltClimRelax = 622080000.,
(PID.TID 0000.0001) > &
(PID.TID 0000.0001) >
(PID.TID 0000.0001) ># Gridding parameters
(PID.TID 0000.0001) > &PARM04
(PID.TID 0000.0001) > usingCurvilinearGrid=.TRUE.,
(PID.TID 0000.0001) > horizGridFile='grid_cs32',
(PID.TID 0000.0001) > delR= 50., 70., 100., 140., 190.,
(PID.TID 0000.0001) >       240., 290., 340., 390., 440.,
(PID.TID 0000.0001) >       490., 540., 590., 640., 690.,
(PID.TID 0000.0001) > &
(PID.TID 0000.0001) >
(PID.TID 0000.0001) ># Input datasets
(PID.TID 0000.0001) > &PARM05
(PID.TID 0000.0001) > bathyFile      ='bathy_Hmin50.bin',
(PID.TID 0000.0001) > hydrogThetaFile='lev_T_cs_15k.bin',
(PID.TID 0000.0001) > hydrogSaltFile ='lev_S_cs_15k.bin',
(PID.TID 0000.0001) > zonalWindFile  ='trenberth_taux.bin',
(PID.TID 0000.0001) > meridWindFile  ='trenberth_tauy.bin',
(PID.TID 0000.0001) > thetaClimFile  ='lev_surfT_cs_12m.bin',
(PID.TID 0000.0001) > saltClimFile   ='lev_surfS_cs_12m.bin',
(PID.TID 0000.0001) > surfQFile      ='shiQnet_cs32.bin',
(PID.TID 0000.0001) > EmPmRFile      ='shiEmPR_cs32.bin',
(PID.TID 0000.0001) > &
(PID.TID 0000.0001) 
(PID.TID 0000.0001) S/R INI_PARMS ; starts to read PARM01
(PID.TID 0000.0001) S/R INI_PARMS ; read PARM01 : OK
(PID.TID 0000.0001) S/R INI_PARMS ; starts to read PARM02
(PID.TID 0000.0001) S/R INI_PARMS ; read PARM02 : OK
(PID.TID 0000.0001) S/R INI_PARMS ; starts to read PARM03
(PID.TID 0000.0001) S/R INI_PARMS ; read PARM03 : OK
(PID.TID 0000.0001) S/R INI_PARMS ; starts to read PARM04
(PID.TID 0000.0001) S/R INI_PARMS ; read PARM04 : OK
(PID.TID 0000.0001) S/R INI_PARMS ; starts to read PARM05
(PID.TID 0000.0001) S/R INI_PARMS ; read PARM05 : OK
(PID.TID 0000.0001)  PACKAGES_BOOT: opening data.pkg
(PID.TID 0000.0001)  OPEN_COPY_DATA_FILE: opening file data.pkg
(PID.TID 0000.0001) // =======================================================
(PID.TID 0000.0001) // Parameter file "data.pkg"
(PID.TID 0000.0001) // =======================================================
(PID.TID 0000.0001) ># Packages
(PID.TID 0000.0001) > &PACKAGES
(PID.TID 0000.0001) > useGMRedi=.TRUE.,
(PID.TID 0000.0001) >#useMNC=.TRUE.,
(PID.TID 0000.0001) > &
(PID.TID 0000.0001) 
(PID.TID 0000.0001)  PACKAGES_BOOT: finished reading data.pkg
(PID.TID 0000.0001)  GM_READPARMS: opening data.gmredi
(PID.TID 0000.0001)  OPEN_COPY_DATA_FILE: opening file data.gmredi
(PID.TID 0000.0001) // =======================================================
(PID.TID 0000.0001) // Parameter file "data.gmredi"
(PID.TID 0000.0001) // =======================================================
(PID.TID 0000.0001) ># GM+Redi package parameters:
(PID.TID 0000.0001) >
(PID.TID 0000.0001) >#-from MOM :
(PID.TID 0000.0001) ># GM_background_K: 	G & Mc.W  diffusion coefficient
(PID.TID 0000.0001) ># GM_maxSlope    :	max slope of isopycnals
(PID.TID 0000.0001) ># GM_Scrit       :	transition for scaling diffusion coefficient
(PID.TID 0000.0001) ># GM_Sd          :	half width scaling for diffusion coefficient
(PID.TID 0000.0001) ># GM_taper_scheme:	slope clipping or one of the tapering schemes
(PID.TID 0000.0001) ># GM_Kmin_horiz  :	horizontal diffusion minimum value
(PID.TID 0000.0001) >
(PID.TID 0000.0001) >#-Option parameters (needs to "define" options in GMREDI_OPTIONS.h")
(PID.TID 0000.0001) ># GM_isopycK     :	isopycnal diffusion coefficient (default=GM_background_K)
(PID.TID 0000.0001) ># GM_AdvForm     :	turn on GM Advective form       (default=Skew flux form)
(PID.TID 0000.0001) >
(PID.TID 0000.0001) > &GM_PARM01
(PID.TID 0000.0001) >  GM_background_K    = 800.,
(PID.TID 0000.0001) >  GM_taper_scheme    = 'gkw91',
(PID.TID 0000.0001) >  GM_maxSlope        = 1.e-2,
(PID.TID 0000.0001) >  GM_Kmin_horiz      = 50.,
(PID.TID 0000.0001) >  GM_Scrit           = 4.e-3,
(PID.TID 0000.0001) >  GM_Sd              = 1.e-3,
(PID.TID 0000.0001) ># GM_Visbeck_alpha   = 0.,
(PID.TID 0000.0001) ># GM_Visbeck_length  = 2.e+5,
(PID.TID 0000.0001) ># GM_Visbeck_depth   = 1.e+3,
(PID.TID 0000.0001) ># GM_Visbeck_maxval_K= 2.5e+3,
(PID.TID 0000.0001) > &
(PID.TID 0000.0001) >
(PID.TID 0000.0001) >
(PID.TID 0000.0001) 
(PID.TID 0000.0001)  GM_READPARMS: finished reading data.gmredi
(PID.TID 0000.0001)  CPL_READPARMS: opening data.cpl
(PID.TID 0000.0001)  OPEN_COPY_DATA_FILE: opening file data.cpl
(PID.TID 0000.0001) // =======================================================
(PID.TID 0000.0001) // Parameter file "data.cpl"
(PID.TID 0000.0001) // =======================================================
(PID.TID 0000.0001) ># Coupling package parameters, OCN component:
(PID.TID 0000.0001) ># cpl_earlyExpImpCall :: call coupler early in the time stepping call sequence
(PID.TID 0000.0001) >#     useImportHFlx :: True => use the Imported HeatFlux from couler
(PID.TID 0000.0001) >#     useImportFW   :: True => use the Imported Fresh Water flux fr cpl
(PID.TID 0000.0001) >#     useImportTau  :: True => use the Imported Wind-Stress from couler
(PID.TID 0000.0001) >#     useImportSLP  :: True => use the Imported Sea-level Atmos. Pressure
(PID.TID 0000.0001) >#     useImportSIce :: True => use the Imported Sea-Ice loading
(PID.TID 0000.0001) >#     cpl_taveFreq  :: Frequency^-1 for time-Aver. output (s)
(PID.TID 0000.0001) > &CPL_OCN_PARAM
(PID.TID 0000.0001) ># cpl_earlyExpImpCall=.FALSE.,
(PID.TID 0000.0001) ># useImportHFlx=.FALSE.,
(PID.TID 0000.0001) ># useImportFW  =.FALSE.,
(PID.TID 0000.0001) ># useImportTau =.FALSE.,
(PID.TID 0000.0001) >  useImportSLP =.FALSE.,
(PID.TID 0000.0001) ># useImportSIce=.FALSE.,
(PID.TID 0000.0001) ># cpl_taveFreq=2592000.,
(PID.TID 0000.0001) >  cpl_taveFreq=18000.,
(PID.TID 0000.0001) > &
(PID.TID 0000.0001) >
(PID.TID 0000.0001) 
(PID.TID 0000.0001)  CPL_READPARMS: finished reading data.cpl
(PID.TID 0000.0001) 
(PID.TID 0000.0001) // ===================================
(PID.TID 0000.0001) // Coupling package parameters :
(PID.TID 0000.0001) // ===================================
(PID.TID 0000.0001) cpl_earlyExpImpCall= /* call coupler early in the time-stepping */
(PID.TID 0000.0001)                   T
(PID.TID 0000.0001)     ;
(PID.TID 0000.0001) useImportHFlx= /* use Imported Heat-Flx fr Coupler on/off flag */
(PID.TID 0000.0001)                   T
(PID.TID 0000.0001)     ;
(PID.TID 0000.0001) useImportFW  = /* use Imported Fresh-Water fr Cpl. on/off flag */
(PID.TID 0000.0001)                   T
(PID.TID 0000.0001)     ;
(PID.TID 0000.0001) useImportTau = /* use Imported Wind-Stress fr Cpl. on/off flag */
(PID.TID 0000.0001)                   T
(PID.TID 0000.0001)     ;
(PID.TID 0000.0001) useImportSLP = /* use Imported Sea-level Atm Press on/off flag */
(PID.TID 0000.0001)                   F
(PID.TID 0000.0001)     ;
(PID.TID 0000.0001) useImportSIce= /* use Imported Sea-Ice loading on/off flag */
(PID.TID 0000.0001)                   T
(PID.TID 0000.0001)     ;
(PID.TID 0000.0001) cpl_taveFreq = /* Frequency^-1 for time-Aver. output (s) */
(PID.TID 0000.0001)                 1.800000000000000E+04
(PID.TID 0000.0001)     ;
(PID.TID 0000.0001) cpl_timeave_mnc = /* write TimeAv to MNC file on/off flag */
(PID.TID 0000.0001)                   F
(PID.TID 0000.0001)     ;
(PID.TID 0000.0001) cpl_timeave_mdsio = /* write TimeAv to MDSIO file on/off flag */
(PID.TID 0000.0001)                   T
(PID.TID 0000.0001)     ;
(PID.TID 0000.0001) SET_PARMS: done
(PID.TID 0000.0001) Enter INI_VERTICAL_GRID: setInterFDr=    T ; setCenterDr=    F
(PID.TID 0000.0001) tile:   1 ; Read from file grid_cs32.face001.bin
(PID.TID 0000.0001)   => xC yC dxF dyF rA xG yG dxV dyU rAz dxC dyC rAw rAs dxG dyG AngleCS AngleSN
(PID.TID 0000.0001) tile:   2 ; Read from file grid_cs32.face002.bin
(PID.TID 0000.0001)   => xC yC dxF dyF rA xG yG dxV dyU rAz dxC dyC rAw rAs dxG dyG AngleCS AngleSN
(PID.TID 0000.0001) tile:   3 ; Read from file grid_cs32.face003.bin
(PID.TID 0000.0001)   => xC yC dxF dyF rA xG yG dxV dyU rAz dxC dyC rAw rAs dxG dyG AngleCS AngleSN
(PID.TID 0000.0001) tile:   4 ; Read from file grid_cs32.face004.bin
(PID.TID 0000.0001)   => xC yC dxF dyF rA xG yG dxV dyU rAz dxC dyC rAw rAs dxG dyG AngleCS AngleSN
(PID.TID 0000.0001) tile:   5 ; Read from file grid_cs32.face005.bin
(PID.TID 0000.0001)   => xC yC dxF dyF rA xG yG dxV dyU rAz dxC dyC rAw rAs dxG dyG AngleCS AngleSN
(PID.TID 0000.0001) tile:   6 ; Read from file grid_cs32.face006.bin
(PID.TID 0000.0001)   => xC yC dxF dyF rA xG yG dxV dyU rAz dxC dyC rAw rAs dxG dyG AngleCS AngleSN
(PID.TID 0000.0001) %MON XC_max                       =   1.7854351589505E+02
(PID.TID 0000.0001) %MON XC_min                       =  -1.7854351589505E+02
(PID.TID 0000.0001) %MON XC_mean                      =  -4.6999441375798E-15
(PID.TID 0000.0001) %MON XC_sd                        =   1.0355545336287E+02
(PID.TID 0000.0001) %MON XG_max                       =   1.8000000000000E+02
(PID.TID 0000.0001) %MON XG_min                       =  -1.7708797161002E+02
(PID.TID 0000.0001) %MON XG_mean                      =   1.8796250616675E+00
(PID.TID 0000.0001) %MON XG_sd                        =   1.0410625309932E+02
(PID.TID 0000.0001) %MON DXC_max                      =   3.2375185836900E+05
(PID.TID 0000.0001) %MON DXC_min                      =   1.1142031410131E+05
(PID.TID 0000.0001) %MON DXC_mean                     =   2.8605689051214E+05
(PID.TID 0000.0001) %MON DXC_sd                       =   3.4042087138252E+04
(PID.TID 0000.0001) %MON DXF_max                      =   3.2369947500827E+05
(PID.TID 0000.0001) %MON DXF_min                      =   1.2020820513318E+05
(PID.TID 0000.0001) %MON DXF_mean                     =   2.8605437324820E+05
(PID.TID 0000.0001) %MON DXF_sd                       =   3.4050524252539E+04
(PID.TID 0000.0001) %MON DXG_max                      =   3.2375195872773E+05
(PID.TID 0000.0001) %MON DXG_min                      =   1.0098378008791E+05
(PID.TID 0000.0001) %MON DXG_mean                     =   2.8603818508931E+05
(PID.TID 0000.0001) %MON DXG_sd                       =   3.4140406908005E+04
(PID.TID 0000.0001) %MON DXV_max                      =   3.2380418162750E+05
(PID.TID 0000.0001) %MON DXV_min                      =   8.0152299824136E+04
(PID.TID 0000.0001) %MON DXV_mean                     =   2.8603970633619E+05
(PID.TID 0000.0001) %MON DXV_sd                       =   3.4145142117723E+04
(PID.TID 0000.0001) %MON YC_max                       =   8.7940663871962E+01
(PID.TID 0000.0001) %MON YC_min                       =  -8.7940663871962E+01
(PID.TID 0000.0001) %MON YC_mean                      =   0.0000000000000E+00
(PID.TID 0000.0001) %MON YC_sd                        =   3.8676242969072E+01
(PID.TID 0000.0001) %MON YG_max                       =   9.0000000000000E+01
(PID.TID 0000.0001) %MON YG_min                       =  -9.0000000000000E+01
(PID.TID 0000.0001) %MON YG_mean                      =  -1.2094344438470E-15
(PID.TID 0000.0001) %MON YG_sd                        =   3.9086186579984E+01
(PID.TID 0000.0001) %MON DYC_max                      =   3.2375185836900E+05
(PID.TID 0000.0001) %MON DYC_min                      =   1.1142031410131E+05
(PID.TID 0000.0001) %MON DYC_mean                     =   2.8605689051214E+05
(PID.TID 0000.0001) %MON DYC_sd                       =   3.4042087138252E+04
(PID.TID 0000.0001) %MON DYF_max                      =   3.2369947500827E+05
(PID.TID 0000.0001) %MON DYF_min                      =   1.2020820513318E+05
(PID.TID 0000.0001) %MON DYF_mean                     =   2.8605437324820E+05
(PID.TID 0000.0001) %MON DYF_sd                       =   3.4050524252539E+04
(PID.TID 0000.0001) %MON DYG_max                      =   3.2375195872773E+05
(PID.TID 0000.0001) %MON DYG_min                      =   1.0098378008791E+05
(PID.TID 0000.0001) %MON DYG_mean                     =   2.8603818508931E+05
(PID.TID 0000.0001) %MON DYG_sd                       =   3.4140406908005E+04
(PID.TID 0000.0001) %MON DYU_max                      =   3.2380418162750E+05
(PID.TID 0000.0001) %MON DYU_min                      =   8.0152299824136E+04
(PID.TID 0000.0001) %MON DYU_mean                     =   2.8603970633619E+05
(PID.TID 0000.0001) %MON DYU_sd                       =   3.4145142117723E+04
(PID.TID 0000.0001) %MON RA_max                       =   1.0479260248419E+11
(PID.TID 0000.0001) %MON RA_min                       =   1.4019007022556E+10
(PID.TID 0000.0001) %MON RA_mean                      =   8.2992246709265E+10
(PID.TID 0000.0001) %MON RA_sd                        =   1.7509089299457E+10
(PID.TID 0000.0001) %MON RAW_max                      =   1.0480965274559E+11
(PID.TID 0000.0001) %MON RAW_min                      =   1.2166903467143E+10
(PID.TID 0000.0001) %MON RAW_mean                     =   8.2992246709235E+10
(PID.TID 0000.0001) %MON RAW_sd                       =   1.7481917919656E+10
(PID.TID 0000.0001) %MON RAS_max                      =   1.0480965274559E+11
(PID.TID 0000.0001) %MON RAS_min                      =   1.2166903467143E+10
(PID.TID 0000.0001) %MON RAS_mean                     =   8.2992246709235E+10
(PID.TID 0000.0001) %MON RAS_sd                       =   1.7481917919656E+10
(PID.TID 0000.0001) %MON RAZ_max                      =   1.0484349334619E+11
(PID.TID 0000.0001) %MON RAZ_min                      =   8.8317900612505E+09
(PID.TID 0000.0001) %MON RAZ_mean                     =   8.2992246709235E+10
(PID.TID 0000.0001) %MON RAZ_sd                       =   1.7482297311044E+10
(PID.TID 0000.0001) %MON AngleCS_max                  =   9.9999994756719E-01
(PID.TID 0000.0001) %MON AngleCS_min                  =  -9.9968286884824E-01
(PID.TID 0000.0001) %MON AngleCS_mean                 =   3.3078850405987E-01
(PID.TID 0000.0001) %MON AngleCS_sd                   =   6.2496317138039E-01
(PID.TID 0000.0001) %MON AngleSN_max                  =   9.9968286884824E-01
(PID.TID 0000.0001) %MON AngleSN_min                  =  -9.9999994756719E-01
(PID.TID 0000.0001) %MON AngleSN_mean                 =  -3.3078850405987E-01
(PID.TID 0000.0001) %MON AngleSN_sd                   =   6.2496317138039E-01
(PID.TID 0000.0001)  MDS_READ_FIELD: opening global file: bathy_Hmin50.bin
(PID.TID 0000.0001) // =======================================================
(PID.TID 0000.0001) // Field Model R_low (ini_masks_etc) at iteration          1
(PID.TID 0000.0001) // CMIN =         -5.200000000000000E+03
(PID.TID 0000.0001) // CMAX =         -5.000000000000000E+01
(PID.TID 0000.0001) // CINT =          1.907407407407407E+02
(PID.TID 0000.0001) // SYMBOLS (CMIN->CMAX): -abcdefghijklmnopqrstuvwxyz+
(PID.TID 0000.0001) //                  0.0: .
(PID.TID 0000.0001) // RANGE I (Lo:Hi:Step):(  -1: 194:   1)
(PID.TID 0000.0001) // RANGE J (Lo:Hi:Step):(  34:  -1:  -1)
(PID.TID 0000.0001) // RANGE K (Lo:Hi:Step):(   1:   1:   1)
(PID.TID 0000.0001) // =======================================================
(PID.TID 0000.0001) K =   1
(PID.TID 0000.0001) //                I=8       I=18      I=28      I=34      I=44      I=54      I=64      I=70      I=80      I=90      I=96      I=106     I=116     I=126     I=132     I=142     I=152     I=162     I=168     I=178     I=188
(PID.TID 0000.0001) // |--J--|101234567|901234567|901234567|901234123|567890123|567890123|567890123|563456789|123456789|123456789|123456785|789012345|789012345|789012345|789078901|345678901|345678901|345678901|901234567|901234567|901234567|901234
(PID.TID 0000.0001) //     34 -ba-abcehjnldcclz+........spps...................................vkqn+xnbbcbba--aabfu+..............hcbaaaaaaaaaccdccbaaabbddddccdffffghfeeeeedeffefilhfcaaaacgceei.......zomggfcaeccaecbbccddefilihecbaacbaajfega-aesfe
(PID.TID 0000.0001) //     33 abbbccceiomkfdbbc+.......+s......................................xsrxzz+cddb-----adu+...............hcbaa--aa--accddba--bbbddddccdfffhhgfeeddcceeddfgikhfffdfgccffw........zohhgebbaebbaaaaaccdfhlhfefdcccaabjefbaaafoos
(PID.TID 0000.0001) //     32 bddefhhkqqlgfaakqz..v.+..+.....................................++..u+...fdba----adu+................kdcaaa-aaa-accdcb---bbbcdddddefffggfeeedccccbbdcdfgghhiihcbeiw.........+ynjgebaaebaaaa-aacccfikkhecccbbbaaabaadfklnq
(PID.TID 0000.0001) //     31 bcffijnpnqneaaat..umrr+s.z.....................................+++++.ztsfeb--dfdfu+................+lkdca--aa--abcccb---bbbbddddeffflhfeeeecbbbb-abbacbcdceffbbfw+..........++ujfbaafbaaa----aacffiljgfffcca--adfikkiihh
(PID.TID 0000.0001) //     30 adgillkkkifcadcx.ymmqzqikvnnps.................................+++++wmegifcacdlqx+++...............mligea---a---abbbb---abaaddddeedkmeddefdbbbaa---b--aaaaabaabm..............+viba-iba-------acdefinmlgiieb-chnnnmlmlgf
(PID.TID 0000.0001) //     29 cfiljigfjd--efdozy...+ximpnnuz..................................+++yqddhjhcbbchz+......++.........+mmhffc---c----aaba------acdddcbcineddgdbaaa--d--a------aa-bfz...............+qe--qe---aa---aedeegknmlgiigcdfhpokkimlf
(PID.TID 0000.0001) //     28 bgkhfcccea-bdei........t........................................++zwgfcfnhccbbhwwy.....+++........+njfeed---d-----aa-------abddcabcnfddegcaaa---f------------dk+................+ja-+ja------bffdddehfd--bedaacfhpnligii
(PID.TID 0000.0001) //     27 cghfbaaaa-achmy..........................+++....................++vnbbbcpkeeecflmqxy....++........+lhfeecc--cc------------aaadcbabcfhddccba-----d-----------irw.................++e-++e-----mhmijddda--------ahhfiokhede
(PID.TID 0000.0001) //     26 dhfca-----bfiv...........................++sy...................+tq-fdbbnqiheddefhiksz++++........zkhfdccb--cb------------aabdcaaaacfddbca------fa-abb-----vvv...................+wa.+wa---mlmkijhc----------cjjffiheb-a
(PID.TID 0000.0001) //     25 chfa------ch+..................w...........njo+................+x-----bcqqojfefiiiijmy.++.........zkhfdbaa--aa-------daa---acccaaaacccca--------udaabbb----tei...................++q.++qdeqnghiljcaaaaidaa----beedeeca--
(PID.TID 0000.0001) //     24 eifa--acbcei...................w...........likn+.....++.....++znpa----bbnlmnjhinlksssw............qhfeca------------addc--aeffaaaaaaccb-a----a--+udbbaba---ven....................++..++xywnfgllcbbabegkecba----ddddcaac
(PID.TID 0000.0001) //     23 fida-aabchjk...................zz...z.....nhhijz....tqq.....+ujgzgd---abegklkkknols..xuu..........zgfdba------------bcd---affaaadffabbb-----aa-b.+ufb-----l.gx...........s.........+...++zzkfilfccccoz..ulkcd---bccnfddd
(PID.TID 0000.0001) //     22 fhfaa---bfgi....................zz..zz..rnjffggm...nlmn+....+sffzya--aabaffdfhimrmp...yuu.++.......zudba------------adc---dda-adffe-aa--------aa..+ufc-baaqvhh..........dcfeeh..........++zggqvifefhz......zobbaccfwuffe
(PID.TID 0000.0001) //     21 bcgca----abe.....................yss.ysstlgeeeeoz..ijklt+....lfjzzf---adaadcehllotq....yy+++zzs.....+zcba---a-------cdd--aaa----df------------aa...+upjdcy.vohq.......+idcdfeeefwz..wz....+hhn.vklox.........gdccfjwrigf
(PID.TID 0000.0001) //     20 bbcgfcaa-aae+...........................lcgfdddhq.+hiilnz++.+oquxyz--adgaabcfmtooyxz......+yuiiy....++gb------------ddcca-a-----acbaa------bbaaa......ywxy.lulo.lv...kcdgddffefffilyfilyx+fffk.+xyyy.........mgeimvskjkl
(PID.TID 0000.0001) //     19 feccdghfeegcbt..........................aafifccgnrzgghjry.+++sr+lq.--edftkblwnnsp.vv......skhggt...+++t-------------bdaf---------edd-------adlaa.........vnhzy.tllqiedccdhggfggffiigfiiggfcbdgy..yz..........xigqophijkk
(PID.TID 0000.0001) //     18 wifedfkhfegbbcivlqfoz..............j...jaacfihggokeeffgt..++++..hhlfdedd.qcz+.zwxtsttz..ysrkhot++++++zig------------b--f---------egqqqaa----frb-.......+kkrhw.vqmlnieddcdehgggffgigegigedbaaceiy.............zilrddefikk
(PID.TID 0000.0001) //     17 +wfeefikhgcbbccaaacgn.............ic..icaaccfihfoedddeedy..++...nnqwgfee.z++..+zsjjllllljllpjos+++.+zhhi---------e-----ea--------foqqoqqo--hlwge.......+nk+..xiioonhfefddegihhghigfdigfdbaaabdgx..............nheddefikl
(PID.TID 0000.0001) //     16 ..wiheddeccdfhfbabdfl............jdb.jdbaddddgifkccccdccd+.++..++ynvz.tku....++zyslllllkhggkmpy++...ihhi---------ea---feb-----a-acnoohfghknvmwnu........qhu..hhhkojgffgeefghihhiieedieedbaaabcdy..............ygddeghilj
(PID.TID 0000.0001) //     15 ....ylea--acfihebcbbes..........sfcbsfcbbngfffigcaaabdbcac+.+++++zgmpx..m....++..zslwz.yhhhhnz+++...rhgc--------ab----ige----acaaalllkddfiy..ysw........thk.xgghiligfghfefhhhhiiheedheedcdbbabdmz.............zfdeghikki
(PID.TID 0000.0001) //     14 ......c---acgkhdcc--di..........ofddofddchohffikaaaaabaaa-aw+.+ysnggox++rv..........yzzzzrjil+++....qhgd---------a-----i---cccdeabkklldinqssy..x.........+y.uhghikihgfghefgihhhgeeeeeeeeeddbaadhw.............nedeghjjhf
(PID.TID 0000.0001) //     13 .....+b----cfkhec---afz.........nhfdnhfdffholghkaaaaaba-a---flkkuswyy+++r...........zzzzz++ry++......yd------------------aeecdeidfkkqnqlmqquukqq............iihiijjhfefgefhjihiffgggfgggffecaabelx...........zjecehijhfe
(PID.TID 0000.0001) //     12 .....ec----chjhec---ag..........skiqskiqddeiiiifaaabae--a---dd--iu+++.++++..........+z+++++.+++....++.s----------------a-ceccdejhlllkqlkklssiccd...........wjkkkjjjigeefffgjiiighiiihiiihhhdaabdffghtxx......mfccehjiffd
(PID.TID 0000.0001) //     11 ....pdca--achlheba--ai..........nkn.nkn.fdemijidaaaabi-------a--q+....++s...........+++++..........+yyza--------b-----a--ccccddkhieekkossssfbbbb..........njjijhhihijhgggggjjjjijkkkjkkkkjjhcaacddeegpy.....xfdccdhjgfdd
(PID.TID 0000.0001) //     10 ....wfdb--achlhea---an.........uos..os..dcemikkfdcaabi-------equ+..................................zyvuq--------cc----a---dcfhkopqjeissrnpfbbccc........zslihhigghgijjihhhhkllkkkkkkkkkkjkkkedccdeeeeipz..zwhccbcdhgfddc
(PID.TID 0000.0001) //      9 ....vgec---bfikca--cjl+.......+nnv.+nv.+ccffhkkiddaadha-----as++........z++........................zxuuk----------a---a----djmqrrnlllsoiddcccccd.......+zjijhfgfggffhjkkkiillljihhghhhghgihighdeeffgghimnnjgecbbcdgfeccb
(PID.TID 0000.0001) //      8 ...zleca---afjfca--hdfz.......vkky.jky.jceddefijffdddhb--a-afv............ss.........................+yku---u--------------ejnpqqnninnritqdccchk......wihgghgeffffeefhijkjkljiigeeffeeffefffhjhhikkklljklmhffeeeggfdcbaa
(PID.TID 0000.0001) //      7 .+zohec--abcfkhecbchbdx.......qiht.fht.faaaabdgijgfededcdcb-f+.............pz.........................+zu---u--------------edefqgqddsz+......+yu+....tiggfggfeeeefeeefiiiijkiihhedddeddddddddjjllliijhfkmmkkjjhijgdcba--
(PID.TID 0000.0001) //      6 +yomfddcaabefkifdchaadt......uqdeisceisc----dfefgifffkklldc--v.............pp.........................v.x---x---------a----fbbpqgzenx+........zdlkhhfffffffgfeeeeeeeefhhhhijihhffddcfddcbbbbdhhiihedddb-cfhhhjjjieca----
(PID.TID 0000.0001) //      5 +nhgffkghccfhkhffgdaackz....uoibcimlcimlaaacfbddfjjhijeehf-a-c.............su.........................qk.yi-.yi-------gha-fjddqs+xkrz.........q-kdccdeeeeeeedddedddddgghhhhjhhgffcbbfcbbaaaaddfegecca----dfeefhfgdb-----
(PID.TID 0000.0001) //      4 ujhgfllfhdffhkfffca-aady...llnabdopfdopfcbdgdbcdehlihgfddc--ms........................................okn.zdn.zd---eciiiicfkeeqy.ysz..........n-dcbbdeddedcdcccdddcddffggghiggfffdbafdbaa---acdcccba--abvfedeffdcca----b
(PID.TID 0000.0001) //      3 jggfcceeffffjlkjgaa---bfvheeln-aesphesphfdhgabddeflihhgfecbaaayq+++++.................................kqnz.vnz.vtpkllgdccfkkkkk..++..........+g-caaadcdddcbbbbcdddcccdffffghgffffdcafdcaa----abcaaaa-acxxmecdjmdbba----r
(PID.TID 0000.0001) //      2 feecbbccddefilihecbaacbaajfega-aesqhesqhffiea-cdeflkkljifeddcba---bry+...............................vkqn+.sn+.sghfcbcbbbdgfdek.++++.........+l-aaaaccdccbaaabbddddccdffffghfeeeeecbeecba------baaaa-euwxqdbcdkud-----sy
(PID.TID 0000.0001) //      1 bbbaaaaaccdfhlhfefdcccaabjefbaaafonhfonhglid--adfgkkkklkhffddca-----s+++.............................xsrxz.txz.tedcbbbbaaadddet.++++.........+l--a-accddba--bbbddddccdfffhhgfeeddccbdccba-------aaaabgns.qcbcchyzqngll++
(PID.TID 0000.0001) //      0 aaaaaa-aacccfikkhecccbbbaaabaadfkllikllilmgebaadfijjiiikjhffdcba-----lll...........................++..u+..z+..zmdfbd---a-aeef.xx+..........+++s---accdcb---bbbcdddddefffggfeeedcccbcccbba----aa--alrwwy.kcbccc+...++++.
(PID.TID 0000.0001) //     -1 aaaaa----aacffiljgfffcca--adfikkiikiiikimiiheccfurkiffhijjigfecb-----l--...........................+++++.z+..z+.wqgbf-------dgzpoy+........+ys+yaa-abcccb---bbbbddddeffflhfeeeecbbcbbbcbbaa----a--bdflm.yuibbcc.......+.
(PID.TID 0000.0001) // =======================================================
(PID.TID 0000.0001) // END OF FIELD                                          =
(PID.TID 0000.0001) // =======================================================
(PID.TID 0000.0001) 
(PID.TID 0000.0001) // =======================================================
(PID.TID 0000.0001) // Field Model Ro_surf (ini_masks_etc) at iteration          1
(PID.TID 0000.0001) // CMIN =         -7.105427357601002E-15
(PID.TID 0000.0001) // CMAX =         -7.105427357601002E-15
(PID.TID 0000.0001) // CINT =          0.000000000000000E+00
(PID.TID 0000.0001) // SYMBOLS (CMIN->CMAX): -abcdefghijklmnopqrstuvwxyz+
(PID.TID 0000.0001) //                  0.0: .
(PID.TID 0000.0001) // RANGE I (Lo:Hi:Step):(  -1: 194:   1)
(PID.TID 0000.0001) // RANGE J (Lo:Hi:Step):(  34:  -1:  -1)
(PID.TID 0000.0001) // RANGE K (Lo:Hi:Step):(   1:   1:   1)
(PID.TID 0000.0001) // =======================================================
(PID.TID 0000.0001) // =======================================================
(PID.TID 0000.0001) // END OF FIELD                                          =
(PID.TID 0000.0001) // =======================================================
(PID.TID 0000.0001) 
(PID.TID 0000.0001) // =======================================================
(PID.TID 0000.0001) // Field hFacC at iteration          1
(PID.TID 0000.0001) // CMIN =          1.000000000000000E+00
(PID.TID 0000.0001) // CMAX =          1.000000000000000E+00
(PID.TID 0000.0001) // CINT =          0.000000000000000E+00
(PID.TID 0000.0001) // SYMBOLS (CMIN->CMAX): -abcdefghijklmnopqrstuvwxyz+
(PID.TID 0000.0001) //                  0.0: .
(PID.TID 0000.0001) // RANGE I (Lo:Hi:Step):(  -1: 194:   1)
(PID.TID 0000.0001) // RANGE J (Lo:Hi:Step):(  34:  -1:  -1)
(PID.TID 0000.0001) // RANGE K (Lo:Hi:Step):(   1:   1:   1)
(PID.TID 0000.0001) // =======================================================
(PID.TID 0000.0001) // =======================================================
(PID.TID 0000.0001) // END OF FIELD                                          =
(PID.TID 0000.0001) // =======================================================
(PID.TID 0000.0001) 
(PID.TID 0000.0001) // =======================================================
(PID.TID 0000.0001) // Field hFacW at iteration          1
(PID.TID 0000.0001) // CMIN =          1.000000000000000E+00
(PID.TID 0000.0001) // CMAX =          1.000000000000000E+00
(PID.TID 0000.0001) // CINT =          0.000000000000000E+00
(PID.TID 0000.0001) // SYMBOLS (CMIN->CMAX): -abcdefghijklmnopqrstuvwxyz+
(PID.TID 0000.0001) //                  0.0: .
(PID.TID 0000.0001) // RANGE I (Lo:Hi:Step):(  -1: 194:   1)
(PID.TID 0000.0001) // RANGE J (Lo:Hi:Step):(  34:  -1:  -1)
(PID.TID 0000.0001) // RANGE K (Lo:Hi:Step):(   1:   1:   1)
(PID.TID 0000.0001) // =======================================================
(PID.TID 0000.0001) // =======================================================
(PID.TID 0000.0001) // END OF FIELD                                          =
(PID.TID 0000.0001) // =======================================================
(PID.TID 0000.0001) 
(PID.TID 0000.0001) // =======================================================
(PID.TID 0000.0001) // Field hFacS at iteration          1
(PID.TID 0000.0001) // CMIN =          1.000000000000000E+00
(PID.TID 0000.0001) // CMAX =          1.000000000000000E+00
(PID.TID 0000.0001) // CINT =          0.000000000000000E+00
(PID.TID 0000.0001) // SYMBOLS (CMIN->CMAX): -abcdefghijklmnopqrstuvwxyz+
(PID.TID 0000.0001) //                  0.0: .
(PID.TID 0000.0001) // RANGE I (Lo:Hi:Step):(  -1: 194:   1)
(PID.TID 0000.0001) // RANGE J (Lo:Hi:Step):(  34:  -1:  -1)
(PID.TID 0000.0001) // RANGE K (Lo:Hi:Step):(   1:   1:   1)
(PID.TID 0000.0001) // =======================================================
(PID.TID 0000.0001) // =======================================================
(PID.TID 0000.0001) // END OF FIELD                                          =
(PID.TID 0000.0001) // =======================================================
(PID.TID 0000.0001) 
(PID.TID 0000.0001) 
(PID.TID 0000.0001) // ===================================
(PID.TID 0000.0001) // GAD parameters :
(PID.TID 0000.0001) // ===================================
(PID.TID 0000.0001) tempAdvScheme =   /* Temp. Horiz.Advection scheme selector */
(PID.TID 0000.0001)                       2
(PID.TID 0000.0001)     ;
(PID.TID 0000.0001) tempVertAdvScheme =   /* Temp. Vert. Advection scheme selector */
(PID.TID 0000.0001)                       2
(PID.TID 0000.0001)     ;
(PID.TID 0000.0001) tempMultiDimAdvec =   /* use Muti-Dim Advec method for Temp */
(PID.TID 0000.0001)                   F
(PID.TID 0000.0001)     ;
(PID.TID 0000.0001) tempSOM_Advection = /* use 2nd Order Moment Advection for Temp */
(PID.TID 0000.0001)                   F
(PID.TID 0000.0001)     ;
(PID.TID 0000.0001) AdamsBashforthGt = /* apply Adams-Bashforth extrapolation on Gt */
(PID.TID 0000.0001)                   T
(PID.TID 0000.0001)     ;
(PID.TID 0000.0001) AdamsBashforth_T = /* apply Adams-Bashforth extrapolation on Temp */
(PID.TID 0000.0001)                   F
(PID.TID 0000.0001)     ;
(PID.TID 0000.0001) saltAdvScheme =   /* Salt. Horiz.advection scheme selector */
(PID.TID 0000.0001)                       2
(PID.TID 0000.0001)     ;
(PID.TID 0000.0001) saltVertAdvScheme =   /* Salt. Vert. Advection scheme selector */
(PID.TID 0000.0001)                       2
(PID.TID 0000.0001)     ;
(PID.TID 0000.0001) saltMultiDimAdvec =   /* use Muti-Dim Advec method for Salt */
(PID.TID 0000.0001)                   F
(PID.TID 0000.0001)     ;
(PID.TID 0000.0001) saltSOM_Advection = /* use 2nd Order Moment Advection for Salt */
(PID.TID 0000.0001)                   F
(PID.TID 0000.0001)     ;
(PID.TID 0000.0001) AdamsBashforthGs = /* apply Adams-Bashforth extrapolation on Gs */
(PID.TID 0000.0001)                   T
(PID.TID 0000.0001)     ;
(PID.TID 0000.0001) AdamsBashforth_S = /* apply Adams-Bashforth extrapolation on Salt */
(PID.TID 0000.0001)                   F
(PID.TID 0000.0001)     ;
(PID.TID 0000.0001) // ===================================
(PID.TID 0000.0001) GAD_CHECK: #define ALLOW_GENERIC_ADVDIFF
(PID.TID 0000.0001) GMREDI_CHECK: #define GMREDI
(PID.TID 0000.0001) GM_AdvForm =  /* if FALSE => use SkewFlux Form */
(PID.TID 0000.0001)                   F
(PID.TID 0000.0001)     ;
(PID.TID 0000.0001) GM_AdvSeparate = /* Calc Bolus & Euler Adv. separately */
(PID.TID 0000.0001)                   F
(PID.TID 0000.0001)     ;
(PID.TID 0000.0001) GM_ExtraDiag =  /* Tensor Extra Diag (line 1&2) non 0 */
(PID.TID 0000.0001)                   F
(PID.TID 0000.0001)     ;
(PID.TID 0000.0001) GM_isopycK =   /* Background Isopyc. Diffusivity ( m^2/s ) */
(PID.TID 0000.0001)                 8.000000000000000E+02
(PID.TID 0000.0001)     ;
(PID.TID 0000.0001)  GM_skewflx*K =   /* Background GM_SkewFlx Diffusivity ( m^2/s ) */
(PID.TID 0000.0001)                 8.000000000000000E+02
(PID.TID 0000.0001)     ;
(PID.TID 0000.0001)  GM_advec*K =   /* Backg. GM-Advec(=Bolus) Diffusivity ( m^2/s ) */
(PID.TID 0000.0001)                 0.000000000000000E+00
(PID.TID 0000.0001)     ;
(PID.TID 0000.0001)  GM_Visbeck_alpha =   /* Visbeck alpha coeff. ( ) */
(PID.TID 0000.0001)                 0.000000000000000E+00
(PID.TID 0000.0001)     ;
(PID.TID 0000.0001)  Tapering/Cliping : gkw91
(PID.TID 0000.0001)  GM_Small_Number =  /* epsilon used in slope calc */
(PID.TID 0000.0001)                 1.000000000000000E-12
(PID.TID 0000.0001)     ;
(PID.TID 0000.0001)  GM_slopeSqCutoff =  /* Slope^2 cut-off value */
(PID.TID 0000.0001)                 1.000000000000000E+48
(PID.TID 0000.0001)     ;
(PID.TID 0000.0001) %MON fCori_max                    =   1.4574827780704E-04
(PID.TID 0000.0001) %MON fCori_min                    =  -1.4574827780704E-04
(PID.TID 0000.0001) %MON fCori_mean                   =   0.0000000000000E+00
(PID.TID 0000.0001) %MON fCori_sd                     =   8.4202189509968E-05
(PID.TID 0000.0001) %MON fCoriG_max                   =   1.4584247033981E-04
(PID.TID 0000.0001) %MON fCoriG_min                   =  -1.4584247033981E-04
(PID.TID 0000.0001) %MON fCoriG_mean                  =   2.3068131329479E-21
(PID.TID 0000.0001) %MON fCoriG_sd                    =   8.5093242784592E-05
(PID.TID 0000.0001) %MON fCoriCos_max                 =   1.4580166994612E-04
(PID.TID 0000.0001) %MON fCoriCos_min                 =   5.2407700865903E-06
(PID.TID 0000.0001) %MON fCoriCos_mean                =   1.1514045869113E-04
(PID.TID 0000.0001) %MON fCoriCos_sd                  =   3.0375849106513E-05
(PID.TID 0000.0001) INI_CG2D: CG2D normalisation factor =  1.9156564154949553E-04
(PID.TID 0000.0001) 
(PID.TID 0000.0001) CONFIG_CHECK: OK
(PID.TID 0000.0001) // =======================================================
(PID.TID 0000.0001) // Model configuration
(PID.TID 0000.0001) // =======================================================
(PID.TID 0000.0001) //
(PID.TID 0000.0001) // "Physical" paramters ( PARM01 in namelist )
(PID.TID 0000.0001) //
(PID.TID 0000.0001) buoyancyRelation = OCEANIC
(PID.TID 0000.0001) fluidIsAir  =  /* fluid major constituent is Air */
(PID.TID 0000.0001)                   F
(PID.TID 0000.0001)     ;
(PID.TID 0000.0001) fluidIsWater=  /* fluid major constituent is Water */
(PID.TID 0000.0001)                   T
(PID.TID 0000.0001)     ;
(PID.TID 0000.0001) usingPCoords =  /* use p (or p*) vertical coordinate */
(PID.TID 0000.0001)                   F
(PID.TID 0000.0001)     ;
(PID.TID 0000.0001) usingZCoords =  /* use z (or z*) vertical coordinate */
(PID.TID 0000.0001)                   T
(PID.TID 0000.0001)     ;
(PID.TID 0000.0001) tRef =   /* Reference temperature profile ( oC or K ) */
(PID.TID 0000.0001)    15 @  2.000000000000000E+01              /* K =  1: 15 */
(PID.TID 0000.0001)     ;
(PID.TID 0000.0001) sRef =   /* Reference salinity profile ( psu ) */
(PID.TID 0000.0001)    15 @  3.500000000000000E+01              /* K =  1: 15 */
(PID.TID 0000.0001)     ;
(PID.TID 0000.0001) viscAh =   /* Lateral eddy viscosity ( m^2/s ) */
(PID.TID 0000.0001)                 3.000000000000000E+05
(PID.TID 0000.0001)     ;
(PID.TID 0000.0001) viscAhMax =   /* Maximum lateral eddy viscosity ( m^2/s ) */
(PID.TID 0000.0001)                 1.000000000000000E+21
(PID.TID 0000.0001)     ;
(PID.TID 0000.0001) viscAhGrid =   /* Grid dependent lateral eddy viscosity ( non-dim. ) */
(PID.TID 0000.0001)                 0.000000000000000E+00
(PID.TID 0000.0001)     ;
(PID.TID 0000.0001) useFullLeith =   /* Use Full Form of Leith Viscosity on/off flag*/
(PID.TID 0000.0001)                   F
(PID.TID 0000.0001)     ;
(PID.TID 0000.0001) useStrainTensionVisc =   /* Use StrainTension Form of Viscous Operator on/off flag*/
(PID.TID 0000.0001)                   F
(PID.TID 0000.0001)     ;
(PID.TID 0000.0001) useAreaViscLength =   /* Use area for visc length instead of geom. mean*/
(PID.TID 0000.0001)                   F
(PID.TID 0000.0001)     ;
(PID.TID 0000.0001) viscC2leith = /* Leith harmonic visc. factor (on grad(vort),non-dim.) */
(PID.TID 0000.0001)                 0.000000000000000E+00
(PID.TID 0000.0001)     ;
(PID.TID 0000.0001) viscC2leithD = /* Leith harmonic viscosity factor (on grad(div),non-dim.) */
(PID.TID 0000.0001)                 0.000000000000000E+00
(PID.TID 0000.0001)     ;
(PID.TID 0000.0001) viscC2smag =   /* Smagorinsky harmonic viscosity factor (non-dim.) */
(PID.TID 0000.0001)                 0.000000000000000E+00
(PID.TID 0000.0001)     ;
(PID.TID 0000.0001) viscA4 =   /* Lateral biharmonic viscosity ( m^4/s ) */
(PID.TID 0000.0001)                 0.000000000000000E+00
(PID.TID 0000.0001)     ;
(PID.TID 0000.0001) viscA4Max =   /* Maximum biharmonic viscosity ( m^2/s ) */
(PID.TID 0000.0001)                 1.000000000000000E+21
(PID.TID 0000.0001)     ;
(PID.TID 0000.0001) viscA4Grid =   /* Grid dependent biharmonic viscosity ( non-dim. ) */
(PID.TID 0000.0001)                 0.000000000000000E+00
(PID.TID 0000.0001)     ;
(PID.TID 0000.0001) viscC4leith = /* Leith biharm viscosity factor (on grad(vort), non-dim.) */
(PID.TID 0000.0001)                 0.000000000000000E+00
(PID.TID 0000.0001)     ;
(PID.TID 0000.0001) viscC4leithD = /* Leith biharm viscosity factor (on grad(div), non-dim.) */
(PID.TID 0000.0001)                 0.000000000000000E+00
(PID.TID 0000.0001)     ;
(PID.TID 0000.0001) viscC4Smag = /* Smagorinsky biharm viscosity factor (non-dim) */
(PID.TID 0000.0001)                 0.000000000000000E+00
(PID.TID 0000.0001)     ;
(PID.TID 0000.0001) no_slip_sides =  /* Viscous BCs: No-slip sides */
(PID.TID 0000.0001)                   T
(PID.TID 0000.0001)     ;
(PID.TID 0000.0001) sideDragFactor = /* side-drag scaling factor (non-dim) */
(PID.TID 0000.0001)                 2.000000000000000E+00
(PID.TID 0000.0001)     ;
(PID.TID 0000.0001) viscAr =   /* Vertical eddy viscosity ( units of r^2/s ) */
(PID.TID 0000.0001)                 1.000000000000000E-03
(PID.TID 0000.0001)     ;
(PID.TID 0000.0001) no_slip_bottom =  /* Viscous BCs: No-slip bottom */
(PID.TID 0000.0001)                   T
(PID.TID 0000.0001)     ;
(PID.TID 0000.0001) bottomDragLinear = /* linear bottom-drag coefficient ( 1/s ) */
(PID.TID 0000.0001)                 0.000000000000000E+00
(PID.TID 0000.0001)     ;
(PID.TID 0000.0001) bottomDragQuadratic = /* quadratic bottom-drag coeff. ( 1/m ) */
(PID.TID 0000.0001)                 0.000000000000000E+00
(PID.TID 0000.0001)     ;
(PID.TID 0000.0001) diffKhT =   /* Laplacian diffusion of heat laterally ( m^2/s ) */
(PID.TID 0000.0001)                 0.000000000000000E+00
(PID.TID 0000.0001)     ;
(PID.TID 0000.0001) diffK4T =   /* Bihaarmonic diffusion of heat laterally ( m^4/s ) */
(PID.TID 0000.0001)                 0.000000000000000E+00
(PID.TID 0000.0001)     ;
(PID.TID 0000.0001) diffKhS =   /* Laplacian diffusion of salt laterally ( m^2/s ) */
(PID.TID 0000.0001)                 0.000000000000000E+00
(PID.TID 0000.0001)     ;
(PID.TID 0000.0001) diffK4S =   /* Bihaarmonic diffusion of salt laterally ( m^4/s ) */
(PID.TID 0000.0001)                 0.000000000000000E+00
(PID.TID 0000.0001)     ;
(PID.TID 0000.0001) diffKrNrT = /* vertical profile of vertical diffusion of Temp ( m^2/s )*/
(PID.TID 0000.0001)    15 @  3.000000000000000E-05              /* K =  1: 15 */
(PID.TID 0000.0001)     ;
(PID.TID 0000.0001) diffKrNrS = /* vertical profile of vertical diffusion of Salt ( m^2/s )*/
(PID.TID 0000.0001)    15 @  3.000000000000000E-05              /* K =  1: 15 */
(PID.TID 0000.0001)     ;
(PID.TID 0000.0001) diffKrBL79surf =   /* Surface diffusion for Bryan and Lewis 1979 ( m^2/s ) */
(PID.TID 0000.0001)                 0.000000000000000E+00
(PID.TID 0000.0001)     ;
(PID.TID 0000.0001) diffKrBL79deep =   /* Deep diffusion for Bryan and Lewis 1979 ( m^2/s ) */
(PID.TID 0000.0001)                 0.000000000000000E+00
(PID.TID 0000.0001)     ;
(PID.TID 0000.0001) diffKrBL79scl =   /* Depth scale for Bryan and Lewis 1979 ( m ) */
(PID.TID 0000.0001)                 2.000000000000000E+02
(PID.TID 0000.0001)     ;
(PID.TID 0000.0001) diffKrBL79Ho =   /* Turning depth for Bryan and Lewis 1979 ( m ) */
(PID.TID 0000.0001)                -2.000000000000000E+03
(PID.TID 0000.0001)     ;
(PID.TID 0000.0001) Equation of State : eosType = JMD95Z ;
(PID.TID 0000.0001) tAlpha =   /* Linear EOS thermal expansion coefficient ( 1/oC ) */
(PID.TID 0000.0001)                 1.234567000000000E+05
(PID.TID 0000.0001)     ;
(PID.TID 0000.0001) sBeta =   /* Linear EOS haline contraction coefficient ( 1/psu ) */
(PID.TID 0000.0001)                 1.234567000000000E+05
(PID.TID 0000.0001)     ;
(PID.TID 0000.0001) rhonil =   /* Reference density ( kg/m^3 ) */
(PID.TID 0000.0001)                 9.998000000000000E+02
(PID.TID 0000.0001)     ;
(PID.TID 0000.0001) rhoConst =   /* Reference density ( kg/m^3 ) */
(PID.TID 0000.0001)                 1.030000000000000E+03
(PID.TID 0000.0001)     ;
(PID.TID 0000.0001) rhoFacC = /* normalized Reference density @ cell-Center (-) */
(PID.TID 0000.0001)    15 @  1.000000000000000E+00              /* K =  1: 15 */
(PID.TID 0000.0001)     ;
(PID.TID 0000.0001) rhoFacF = /* normalized Reference density @ W-Interface (-) */
(PID.TID 0000.0001)    16 @  1.000000000000000E+00              /* K =  1: 16 */
(PID.TID 0000.0001)     ;
(PID.TID 0000.0001) rhoConstFresh =   /* Reference density ( kg/m^3 ) */
(PID.TID 0000.0001)                 1.000000000000000E+03
(PID.TID 0000.0001)     ;
(PID.TID 0000.0001) gravity =   /* Gravitational acceleration ( m/s^2 ) */
(PID.TID 0000.0001)                 9.810000000000000E+00
(PID.TID 0000.0001)     ;
(PID.TID 0000.0001) gBaro =   /* Barotropic gravity ( m/s^2 ) */
(PID.TID 0000.0001)                 9.810000000000000E+00
(PID.TID 0000.0001)     ;
(PID.TID 0000.0001) rotationPeriod =   /* Rotation Period ( s ) */
(PID.TID 0000.0001)                 8.616400000000000E+04
(PID.TID 0000.0001)     ;
(PID.TID 0000.0001) omega =   /* Angular velocity ( rad/s ) */
(PID.TID 0000.0001)                 7.292123516990375E-05
(PID.TID 0000.0001)     ;
(PID.TID 0000.0001) f0 =   /* Reference coriolis parameter ( 1/s ) */
(PID.TID 0000.0001)                 1.000000000000000E-04
(PID.TID 0000.0001)     ;
(PID.TID 0000.0001) beta =   /* Beta ( 1/(m.s) ) */
(PID.TID 0000.0001)                 9.999999999999999E-12
(PID.TID 0000.0001)     ;
(PID.TID 0000.0001) freeSurfFac =   /* Implicit free surface factor */
(PID.TID 0000.0001)                 1.000000000000000E+00
(PID.TID 0000.0001)     ;
(PID.TID 0000.0001) implicitFreeSurface =   /* Implicit free surface on/off flag */
(PID.TID 0000.0001)                   T
(PID.TID 0000.0001)     ;
(PID.TID 0000.0001) rigidLid =   /* Rigid lid on/off flag */
(PID.TID 0000.0001)                   F
(PID.TID 0000.0001)     ;
(PID.TID 0000.0001) implicSurfPress =   /* Surface Pressure implicit factor (0-1)*/
(PID.TID 0000.0001)                 1.000000000000000E+00
(PID.TID 0000.0001)     ;
(PID.TID 0000.0001) implicDiv2Dflow =   /* Barot. Flow Div. implicit factor (0-1)*/
(PID.TID 0000.0001)                 1.000000000000000E+00
(PID.TID 0000.0001)     ;
(PID.TID 0000.0001) exactConserv =   /* Exact Volume Conservation on/off flag*/
(PID.TID 0000.0001)                   T
(PID.TID 0000.0001)     ;
(PID.TID 0000.0001) linFSConserveTr =   /* Tracer correction for Lin Free Surface on/off flag*/
(PID.TID 0000.0001)                   F
(PID.TID 0000.0001)     ;
(PID.TID 0000.0001) uniformLin_PhiSurf =   /* use uniform Bo_surf on/off flag*/
(PID.TID 0000.0001)                   T
(PID.TID 0000.0001)     ;
(PID.TID 0000.0001) nonlinFreeSurf =   /* Non-linear Free Surf. options (-1,0,1,2,3)*/
(PID.TID 0000.0001)                       4
(PID.TID 0000.0001)     ;
(PID.TID 0000.0001)      -1,0= Off ; 1,2,3= On, 2=+rescale gU,gV, 3=+update cg2d solv.
(PID.TID 0000.0001) hFacInf =   /* lower threshold for hFac (nonlinFreeSurf only)*/
(PID.TID 0000.0001)                 2.000000000000000E-01
(PID.TID 0000.0001)     ;
(PID.TID 0000.0001) hFacSup =   /* upper threshold for hFac (nonlinFreeSurf only)*/
(PID.TID 0000.0001)                 2.000000000000000E+00
(PID.TID 0000.0001)     ;
(PID.TID 0000.0001) select_rStar =   /* r* Coordinate options (not yet implemented)*/
(PID.TID 0000.0001)                       2
(PID.TID 0000.0001)     ;
(PID.TID 0000.0001) useRealFreshWaterFlux =   /* Real Fresh Water Flux on/off flag*/
(PID.TID 0000.0001)                   T
(PID.TID 0000.0001)     ;
(PID.TID 0000.0001) temp_EvPrRn = /* Temp. of Evap/Prec/R (UNSET=use local T)(oC)*/
(PID.TID 0000.0001)                 0.000000000000000E+00
(PID.TID 0000.0001)     ;
(PID.TID 0000.0001) salt_EvPrRn = /* Salin. of Evap/Prec/R (UNSET=use local S)(ppt)*/
(PID.TID 0000.0001)                 0.000000000000000E+00
(PID.TID 0000.0001)     ;
(PID.TID 0000.0001) use3Dsolver = /* use 3-D pressure solver on/off flag */
(PID.TID 0000.0001)                   F
(PID.TID 0000.0001)     ;
(PID.TID 0000.0001) nonHydrostatic =  /* Non-Hydrostatic on/off flag */
(PID.TID 0000.0001)                   F
(PID.TID 0000.0001)     ;
(PID.TID 0000.0001) nh_Am2 = /* Non-Hydrostatic terms scaling factor */
(PID.TID 0000.0001)                 1.000000000000000E+00
(PID.TID 0000.0001)     ;
(PID.TID 0000.0001) quasiHydrostatic = /* Quasi-Hydrostatic on/off flag */
(PID.TID 0000.0001)                   F
(PID.TID 0000.0001)     ;
(PID.TID 0000.0001) momStepping =  /* Momentum equation on/off flag */
(PID.TID 0000.0001)                   T
(PID.TID 0000.0001)     ;
(PID.TID 0000.0001) vectorInvariantMomentum= /* Vector-Invariant Momentum on/off */
(PID.TID 0000.0001)                   T
(PID.TID 0000.0001)     ;
(PID.TID 0000.0001) momAdvection =  /* Momentum advection on/off flag */
(PID.TID 0000.0001)                   T
(PID.TID 0000.0001)     ;
(PID.TID 0000.0001) momViscosity =  /* Momentum viscosity on/off flag */
(PID.TID 0000.0001)                   T
(PID.TID 0000.0001)     ;
(PID.TID 0000.0001) momImplVertAdv =/* Momentum implicit vert. advection on/off*/
(PID.TID 0000.0001)                   F
(PID.TID 0000.0001)     ;
(PID.TID 0000.0001) implicitViscosity = /* Implicit viscosity on/off flag */
(PID.TID 0000.0001)                   F
(PID.TID 0000.0001)     ;
(PID.TID 0000.0001) metricTerms =  /* metric-Terms on/off flag */
(PID.TID 0000.0001)                   F
(PID.TID 0000.0001)     ;
(PID.TID 0000.0001) useNHMTerms = /* Non-Hydrostatic Metric-Terms on/off */
(PID.TID 0000.0001)                   F
(PID.TID 0000.0001)     ;
(PID.TID 0000.0001) useConstantF =  /* use Constant f0 Coriolis flag */
(PID.TID 0000.0001)                   F
(PID.TID 0000.0001)     ;
(PID.TID 0000.0001) useBetaPlaneF = /* use Beta-Plane Coriolis flag */
(PID.TID 0000.0001)                   F
(PID.TID 0000.0001)     ;
(PID.TID 0000.0001) useSphereF  =   /* use Spherical Coriolis flag */
(PID.TID 0000.0001)                   T
(PID.TID 0000.0001)     ;
(PID.TID 0000.0001) use3dCoriolis = /* 3-D Coriolis on/off flag */
(PID.TID 0000.0001)                   F
(PID.TID 0000.0001)     ;
(PID.TID 0000.0001) useCoriolis =  /* Coriolis on/off flag */
(PID.TID 0000.0001)                   T
(PID.TID 0000.0001)     ;
(PID.TID 0000.0001) useCDscheme =  /* CD scheme on/off flag */
(PID.TID 0000.0001)                   F
(PID.TID 0000.0001)     ;
(PID.TID 0000.0001) useJamartWetPoints= /* Coriolis WetPoints method flag */
(PID.TID 0000.0001)                   F
(PID.TID 0000.0001)     ;
(PID.TID 0000.0001) useJamartMomAdv= /* V.I. Non-linear terms Jamart flag */
(PID.TID 0000.0001)                   F
(PID.TID 0000.0001)     ;
(PID.TID 0000.0001) SadournyCoriolis= /* Sadourny Coriolis discr. flag */
(PID.TID 0000.0001)                   F
(PID.TID 0000.0001)     ;
(PID.TID 0000.0001) upwindVorticity= /* Upwind bias vorticity flag */
(PID.TID 0000.0001)                   F
(PID.TID 0000.0001)     ;
(PID.TID 0000.0001) useAbsVorticity= /* Work with f+zeta in Coriolis */
(PID.TID 0000.0001)                   F
(PID.TID 0000.0001)     ;
(PID.TID 0000.0001) highOrderVorticity= /* High order interp. of vort. flag */
(PID.TID 0000.0001)                   F
(PID.TID 0000.0001)     ;
(PID.TID 0000.0001) upwindShear= /* Upwind vertical Shear advection flag */
(PID.TID 0000.0001)                   F
(PID.TID 0000.0001)     ;
(PID.TID 0000.0001) selectKEscheme= /* Kinetic Energy scheme selector */
(PID.TID 0000.0001)                       0
(PID.TID 0000.0001)     ;
(PID.TID 0000.0001) momForcing =  /* Momentum forcing on/off flag */
(PID.TID 0000.0001)                   T
(PID.TID 0000.0001)     ;
(PID.TID 0000.0001) momPressureForcing =  /* Momentum pressure term on/off flag */
(PID.TID 0000.0001)                   T
(PID.TID 0000.0001)     ;
(PID.TID 0000.0001) implicitIntGravWave= /* Implicit Internal Gravity Wave flag */
(PID.TID 0000.0001)                   F
(PID.TID 0000.0001)     ;
(PID.TID 0000.0001) staggerTimeStep =   /* Stagger time stepping on/off flag */
(PID.TID 0000.0001)                   T
(PID.TID 0000.0001)     ;
(PID.TID 0000.0001) multiDimAdvection =   /* enable/disable Multi-Dim Advection */
(PID.TID 0000.0001)                   T
(PID.TID 0000.0001)     ;
(PID.TID 0000.0001) useMultiDimAdvec =   /* Multi-Dim Advection is/is-not used */
(PID.TID 0000.0001)                   F
(PID.TID 0000.0001)     ;
(PID.TID 0000.0001) implicitDiffusion =/* Implicit Diffusion on/off flag */
(PID.TID 0000.0001)                   T
(PID.TID 0000.0001)     ;
(PID.TID 0000.0001) tempStepping =  /* Temperature equation on/off flag */
(PID.TID 0000.0001)                   T
(PID.TID 0000.0001)     ;
(PID.TID 0000.0001) tempAdvection=  /* Temperature advection on/off flag */
(PID.TID 0000.0001)                   T
(PID.TID 0000.0001)     ;
(PID.TID 0000.0001) tempImplVertAdv =/* Temp. implicit vert. advection on/off */
(PID.TID 0000.0001)                   F
(PID.TID 0000.0001)     ;
(PID.TID 0000.0001) tempForcing  =  /* Temperature forcing on/off flag */
(PID.TID 0000.0001)                   T
(PID.TID 0000.0001)     ;
(PID.TID 0000.0001) saltStepping =  /* Salinity equation on/off flag */
(PID.TID 0000.0001)                   T
(PID.TID 0000.0001)     ;
(PID.TID 0000.0001) saltAdvection=  /* Salinity advection on/off flag */
(PID.TID 0000.0001)                   T
(PID.TID 0000.0001)     ;
(PID.TID 0000.0001) saltImplVertAdv =/* Sali. implicit vert. advection on/off */
(PID.TID 0000.0001)                   F
(PID.TID 0000.0001)     ;
(PID.TID 0000.0001) saltForcing  =  /* Salinity forcing on/off flag */
(PID.TID 0000.0001)                   T
(PID.TID 0000.0001)     ;
(PID.TID 0000.0001)  readBinaryPrec = /* Precision used for reading binary files */
(PID.TID 0000.0001)                      64
(PID.TID 0000.0001)     ;
(PID.TID 0000.0001) writeBinaryPrec = /* Precision used for writing binary files */
(PID.TID 0000.0001)                      64
(PID.TID 0000.0001)     ;
(PID.TID 0000.0001)  globalFiles = /* write "global" (=not per tile) files */
(PID.TID 0000.0001)                   F
(PID.TID 0000.0001)     ;
(PID.TID 0000.0001)  useSingleCpuIO = /* only master MPI process does I/O */
(PID.TID 0000.0001)                   F
(PID.TID 0000.0001)     ;
(PID.TID 0000.0001)  debugMode  =  /* Debug Mode on/off flag */
(PID.TID 0000.0001)                   F
(PID.TID 0000.0001)     ;
(PID.TID 0000.0001)    debLevA  =  /* 1rst level of debugging */
(PID.TID 0000.0001)                       1
(PID.TID 0000.0001)     ;
(PID.TID 0000.0001)    debLevB  =  /* 2nd  level of debugging */
(PID.TID 0000.0001)                       2
(PID.TID 0000.0001)     ;
(PID.TID 0000.0001)  debugLevel =  /* select debugging level */
(PID.TID 0000.0001)                       1
(PID.TID 0000.0001)     ;
(PID.TID 0000.0001) //
(PID.TID 0000.0001) // Elliptic solver(s) paramters ( PARM02 in namelist )
(PID.TID 0000.0001) //
(PID.TID 0000.0001) cg2dMaxIters =   /* Upper limit on 2d con. grad iterations  */
(PID.TID 0000.0001)                     200
(PID.TID 0000.0001)     ;
(PID.TID 0000.0001) cg2dChkResFreq =   /* 2d con. grad convergence test frequency */
(PID.TID 0000.0001)                       1
(PID.TID 0000.0001)     ;
(PID.TID 0000.0001) cg2dTargetResidual =   /* 2d con. grad target residual  */
(PID.TID 0000.0001)                 1.000000000000000E-09
(PID.TID 0000.0001)     ;
(PID.TID 0000.0001) cg2dTargetResWunit =   /* CG2d target residual [W units] */
(PID.TID 0000.0001)                -1.000000000000000E+00
(PID.TID 0000.0001)     ;
(PID.TID 0000.0001) cg2dPreCondFreq =   /* Freq. for updating cg2d preconditioner */
(PID.TID 0000.0001)                       1
(PID.TID 0000.0001)     ;
(PID.TID 0000.0001) //
(PID.TID 0000.0001) // Time stepping paramters ( PARM03 in namelist )
(PID.TID 0000.0001) //
(PID.TID 0000.0001) nIter0 =   /* Run starting timestep number  */
(PID.TID 0000.0001)                       0
(PID.TID 0000.0001)     ;
(PID.TID 0000.0001) nTimeSteps =   /* Number of timesteps */
(PID.TID 0000.0001)                       5
(PID.TID 0000.0001)     ;
(PID.TID 0000.0001) deltaTmom =   /* Momentum equation timestep ( s ) */
(PID.TID 0000.0001)                 3.600000000000000E+03
(PID.TID 0000.0001)     ;
(PID.TID 0000.0001) deltaTfreesurf =   /* FreeSurface equation timestep ( s ) */
(PID.TID 0000.0001)                 3.600000000000000E+03
(PID.TID 0000.0001)     ;
(PID.TID 0000.0001) dTtracerLev =   /* Tracer equation timestep ( s ) */
(PID.TID 0000.0001)    15 @  3.600000000000000E+03              /* K =  1: 15 */
(PID.TID 0000.0001)     ;
(PID.TID 0000.0001) deltaTClock  =   /* Model clock timestep ( s ) */
(PID.TID 0000.0001)                 3.600000000000000E+03
(PID.TID 0000.0001)     ;
(PID.TID 0000.0001) cAdjFreq =   /* Convective adjustment interval ( s ) */
(PID.TID 0000.0001)                 0.000000000000000E+00
(PID.TID 0000.0001)     ;
(PID.TID 0000.0001) momForcingOutAB = /* =1: take Momentum Forcing out of Adams-Bash. stepping */
(PID.TID 0000.0001)                       0
(PID.TID 0000.0001)     ;
(PID.TID 0000.0001) tracForcingOutAB = /* =1: take T,S,pTr Forcing out of Adams-Bash. stepping */
(PID.TID 0000.0001)                       1
(PID.TID 0000.0001)     ;
(PID.TID 0000.0001) momDissip_In_AB = /* put Dissipation Tendency in Adams-Bash. stepping */
(PID.TID 0000.0001)                   T
(PID.TID 0000.0001)     ;
(PID.TID 0000.0001) doAB_onGtGs = /* apply AB on Tendencies (rather than on T,S)*/
(PID.TID 0000.0001)                   T
(PID.TID 0000.0001)     ;
(PID.TID 0000.0001) abEps =   /* Adams-Bashforth-2 stabilizing weight */
(PID.TID 0000.0001)                 1.000000000000000E-01
(PID.TID 0000.0001)     ;
(PID.TID 0000.0001) baseTime =   /* Model base time ( s ). */
(PID.TID 0000.0001)                 0.000000000000000E+00
(PID.TID 0000.0001)     ;
(PID.TID 0000.0001) startTime =   /* Run start time ( s ). */
(PID.TID 0000.0001)                 0.000000000000000E+00
(PID.TID 0000.0001)     ;
(PID.TID 0000.0001) endTime =   /* Integration ending time ( s ). */
(PID.TID 0000.0001)                 1.800000000000000E+04
(PID.TID 0000.0001)     ;
(PID.TID 0000.0001) pChkPtFreq =   /* Permanent restart/checkpoint file interval ( s ). */
(PID.TID 0000.0001)                 2.592000000000000E+06
(PID.TID 0000.0001)     ;
(PID.TID 0000.0001) chkPtFreq =   /* Rolling restart/checkpoint file interval ( s ). */
(PID.TID 0000.0001)                 0.000000000000000E+00
(PID.TID 0000.0001)     ;
(PID.TID 0000.0001) pickup_write_mdsio =   /* Model IO flag. */
(PID.TID 0000.0001)                   T
(PID.TID 0000.0001)     ;
(PID.TID 0000.0001) pickup_read_mdsio =   /* Model IO flag. */
(PID.TID 0000.0001)                   T
(PID.TID 0000.0001)     ;
(PID.TID 0000.0001) pickup_write_mnc =   /* Model IO flag. */
(PID.TID 0000.0001)                   F
(PID.TID 0000.0001)     ;
(PID.TID 0000.0001) pickup_read_mnc =   /* Model IO flag. */
(PID.TID 0000.0001)                   F
(PID.TID 0000.0001)     ;
(PID.TID 0000.0001) pickup_write_immed =   /* Model IO flag. */
(PID.TID 0000.0001)                   F
(PID.TID 0000.0001)     ;
(PID.TID 0000.0001) dumpFreq =   /* Model state write out interval ( s ). */
(PID.TID 0000.0001)                 8.640000000000000E+05
(PID.TID 0000.0001)     ;
(PID.TID 0000.0001) dumpInitAndLast= /* write out Initial & Last iter. model state */
(PID.TID 0000.0001)                   T
(PID.TID 0000.0001)     ;
(PID.TID 0000.0001) snapshot_mdsio =   /* Model IO flag. */
(PID.TID 0000.0001)                   T
(PID.TID 0000.0001)     ;
(PID.TID 0000.0001) snapshot_mnc =   /* Model IO flag. */
(PID.TID 0000.0001)                   F
(PID.TID 0000.0001)     ;
(PID.TID 0000.0001) monitorFreq =   /* Monitor output interval ( s ). */
(PID.TID 0000.0001)                 1.000000000000000E+00
(PID.TID 0000.0001)     ;
(PID.TID 0000.0001) monitor_stdio =   /* Model IO flag. */
(PID.TID 0000.0001)                   T
(PID.TID 0000.0001)     ;
(PID.TID 0000.0001) monitor_mnc =   /* Model IO flag. */
(PID.TID 0000.0001)                   F
(PID.TID 0000.0001)     ;
(PID.TID 0000.0001) externForcingPeriod =   /* forcing period (s) */
(PID.TID 0000.0001)                 2.592000000000000E+06
(PID.TID 0000.0001)     ;
(PID.TID 0000.0001) externForcingCycle =   /* period of the cyle (s). */
(PID.TID 0000.0001)                 3.110400000000000E+07
(PID.TID 0000.0001)     ;
(PID.TID 0000.0001) tauThetaClimRelax =   /* relaxation time scale (s) */
(PID.TID 0000.0001)                 0.000000000000000E+00
(PID.TID 0000.0001)     ;
(PID.TID 0000.0001) tauSaltClimRelax =   /* relaxation time scale (s) */
(PID.TID 0000.0001)                 6.220800000000000E+08
(PID.TID 0000.0001)     ;
(PID.TID 0000.0001) latBandClimRelax =   /* max. Lat. where relaxation */
(PID.TID 0000.0001)                 1.800000000000000E+02
(PID.TID 0000.0001)     ;
(PID.TID 0000.0001) //
(PID.TID 0000.0001) // Gridding paramters ( PARM04 in namelist )
(PID.TID 0000.0001) //
(PID.TID 0000.0001) usingCartesianGrid = /* Cartesian coordinates flag ( True/False ) */
(PID.TID 0000.0001)                   F
(PID.TID 0000.0001)     ;
(PID.TID 0000.0001) usingCylindricalGrid = /* Cylindrical coordinates flag ( True/False ) */
(PID.TID 0000.0001)                   F
(PID.TID 0000.0001)     ;
(PID.TID 0000.0001) usingSphericalPolarGrid = /* Spherical coordinates flag ( True/False ) */
(PID.TID 0000.0001)                   F
(PID.TID 0000.0001)     ;
(PID.TID 0000.0001) usingCurvilinearGrid = /* Curvilinear coordinates flag ( True/False ) */
(PID.TID 0000.0001)                   T
(PID.TID 0000.0001)     ;
(PID.TID 0000.0001) Ro_SeaLevel = /* r(1) ( units of r ) */
(PID.TID 0000.0001)                 0.000000000000000E+00
(PID.TID 0000.0001)     ;
(PID.TID 0000.0001) rkSign =   /* index orientation relative to vertical coordinate */
(PID.TID 0000.0001)                -1.000000000000000E+00
(PID.TID 0000.0001)     ;
(PID.TID 0000.0001) gravitySign = /* gravity orientation relative to vertical coordinate */
(PID.TID 0000.0001)                -1.000000000000000E+00
(PID.TID 0000.0001)     ;
(PID.TID 0000.0001) horiVertRatio =   /* Ratio on units : Horiz - Vertical */
(PID.TID 0000.0001)                 1.000000000000000E+00
(PID.TID 0000.0001)     ;
(PID.TID 0000.0001) drC =   /* C spacing ( units of r ) */
(PID.TID 0000.0001)                 2.500000000000000E+01,      /* K =  1 */
(PID.TID 0000.0001)                 6.000000000000000E+01,      /* K =  2 */
(PID.TID 0000.0001)                 8.500000000000000E+01,      /* K =  3 */
(PID.TID 0000.0001)                 1.200000000000000E+02,      /* K =  4 */
(PID.TID 0000.0001)                 1.650000000000000E+02,      /* K =  5 */
(PID.TID 0000.0001)                 2.150000000000000E+02,      /* K =  6 */
(PID.TID 0000.0001)                 2.650000000000000E+02,      /* K =  7 */
(PID.TID 0000.0001)                 3.150000000000000E+02,      /* K =  8 */
(PID.TID 0000.0001)                 3.650000000000000E+02,      /* K =  9 */
(PID.TID 0000.0001)                 4.150000000000000E+02,      /* K = 10 */
(PID.TID 0000.0001)                 4.650000000000000E+02,      /* K = 11 */
(PID.TID 0000.0001)                 5.150000000000000E+02,      /* K = 12 */
(PID.TID 0000.0001)                 5.650000000000000E+02,      /* K = 13 */
(PID.TID 0000.0001)                 6.150000000000000E+02,      /* K = 14 */
(PID.TID 0000.0001)                 6.650000000000000E+02       /* K = 15 */
(PID.TID 0000.0001)     ;
(PID.TID 0000.0001) drF =   /* W spacing ( units of r ) */
(PID.TID 0000.0001)                 5.000000000000000E+01,      /* K =  1 */
(PID.TID 0000.0001)                 7.000000000000000E+01,      /* K =  2 */
(PID.TID 0000.0001)                 1.000000000000000E+02,      /* K =  3 */
(PID.TID 0000.0001)                 1.400000000000000E+02,      /* K =  4 */
(PID.TID 0000.0001)                 1.900000000000000E+02,      /* K =  5 */
(PID.TID 0000.0001)                 2.400000000000000E+02,      /* K =  6 */
(PID.TID 0000.0001)                 2.900000000000000E+02,      /* K =  7 */
(PID.TID 0000.0001)                 3.400000000000000E+02,      /* K =  8 */
(PID.TID 0000.0001)                 3.900000000000000E+02,      /* K =  9 */
(PID.TID 0000.0001)                 4.400000000000000E+02,      /* K = 10 */
(PID.TID 0000.0001)                 4.900000000000000E+02,      /* K = 11 */
(PID.TID 0000.0001)                 5.400000000000000E+02,      /* K = 12 */
(PID.TID 0000.0001)                 5.900000000000000E+02,      /* K = 13 */
(PID.TID 0000.0001)                 6.400000000000000E+02,      /* K = 14 */
(PID.TID 0000.0001)                 6.900000000000000E+02       /* K = 15 */
(PID.TID 0000.0001)     ;
(PID.TID 0000.0001) delX =   /* U spacing ( m - cartesian, degrees - spherical ) */
(PID.TID 0000.0001)   192 @  1.234567000000000E+05              /* I =  1:192 */
(PID.TID 0000.0001)     ;
(PID.TID 0000.0001) delY =   /* V spacing ( m - cartesian, degrees - spherical ) */
(PID.TID 0000.0001)    32 @  1.234567000000000E+05              /* J =  1: 32 */
(PID.TID 0000.0001)     ;
(PID.TID 0000.0001) phiMin =    /* South edge (ignored - cartesian, degrees - spherical ) */
(PID.TID 0000.0001)                 0.000000000000000E+00
(PID.TID 0000.0001)     ;
(PID.TID 0000.0001) thetaMin =    /* West edge ( ignored - cartesian, degrees - spherical ) */
(PID.TID 0000.0001)                 0.000000000000000E+00
(PID.TID 0000.0001)     ;
(PID.TID 0000.0001) rSphere =  /* Radius ( ignored - cartesian, m - spherical ) */
(PID.TID 0000.0001)                 6.370000000000000E+06
(PID.TID 0000.0001)     ;
(PID.TID 0000.0001) deepAtmosphere = /* Deep/Shallow Atmosphere flag (True/False) */
(PID.TID 0000.0001)                   F
(PID.TID 0000.0001)     ;
(PID.TID 0000.0001) xcoord =   /* P-point X coord ( m - cartesian, degrees - spherical ) */
(PID.TID 0000.0001)                -4.439521994760536E+01,      /* I =  1 */
(PID.TID 0000.0001)                -4.295641272275883E+01,      /* I =  2 */
(PID.TID 0000.0001)                -4.122055553388957E+01,      /* I =  3 */
(PID.TID 0000.0001)                -3.923446288487304E+01,      /* I =  4 */
(PID.TID 0000.0001)                -3.702585158682200E+01,      /* I =  5 */
(PID.TID 0000.0001)                -3.461179367094151E+01,      /* I =  6 */
(PID.TID 0000.0001)                -3.200434569041793E+01,      /* I =  7 */
(PID.TID 0000.0001)                -2.921355965632675E+01,      /* I =  8 */
(PID.TID 0000.0001)                -2.624932223028290E+01,      /* I =  9 */
(PID.TID 0000.0001)                -2.312261250426344E+01,      /* I = 10 */
(PID.TID 0000.0001)                -1.984640717127058E+01,      /* I = 11 */
(PID.TID 0000.0001)                -1.643630800555134E+01,      /* I = 12 */
(PID.TID 0000.0001)                -1.291089806302069E+01,      /* I = 13 */
(PID.TID 0000.0001)                -9.291807802719402E+00,      /* I = 14 */
(PID.TID 0000.0001)                -5.603475335822332E+00,      /* I = 15 */
(PID.TID 0000.0001)                -1.872608513033445E+00,      /* I = 16 */
(PID.TID 0000.0001)                 1.872608513033445E+00,      /* I = 17 */
(PID.TID 0000.0001)                 5.603475335822332E+00,      /* I = 18 */
(PID.TID 0000.0001)                 9.291807802719402E+00,      /* I = 19 */
(PID.TID 0000.0001)                 1.291089806302069E+01,      /* I = 20 */
(PID.TID 0000.0001)                 1.643630800555134E+01,      /* I = 21 */
(PID.TID 0000.0001)                 1.984640717127058E+01,      /* I = 22 */
(PID.TID 0000.0001)                 2.312261250426344E+01,      /* I = 23 */
(PID.TID 0000.0001)                 2.624932223028290E+01,      /* I = 24 */
(PID.TID 0000.0001)                 2.921355965632675E+01,      /* I = 25 */
(PID.TID 0000.0001)                 3.200434569041793E+01,      /* I = 26 */
(PID.TID 0000.0001)                 3.461179367094151E+01,      /* I = 27 */
(PID.TID 0000.0001)                 3.702585158682200E+01,      /* I = 28 */
(PID.TID 0000.0001)                 3.923446288487304E+01,      /* I = 29 */
(PID.TID 0000.0001)                 4.122055553388957E+01,      /* I = 30 */
(PID.TID 0000.0001)                 4.295641272275883E+01,      /* I = 31 */
(PID.TID 0000.0001)                 4.439521994760536E+01,      /* I = 32 */
(PID.TID 0000.0001)                 4.560478005239464E+01,      /* I = 33 */
(PID.TID 0000.0001)                 4.704358727724117E+01,      /* I = 34 */
(PID.TID 0000.0001)                 4.877944446611043E+01,      /* I = 35 */
(PID.TID 0000.0001)                 5.076553711512697E+01,      /* I = 36 */
(PID.TID 0000.0001)                 5.297414841317801E+01,      /* I = 37 */
(PID.TID 0000.0001)                 5.538820632905850E+01,      /* I = 38 */
(PID.TID 0000.0001)                 5.799565430958209E+01,      /* I = 39 */
(PID.TID 0000.0001)                 6.078644034367325E+01,      /* I = 40 */
(PID.TID 0000.0001)                 6.375067776971711E+01,      /* I = 41 */
(PID.TID 0000.0001)                 6.687738749573657E+01,      /* I = 42 */
(PID.TID 0000.0001)                 7.015359282872943E+01,      /* I = 43 */
(PID.TID 0000.0001)                 7.356369199444866E+01,      /* I = 44 */
(PID.TID 0000.0001)                 7.708910193697932E+01,      /* I = 45 */
(PID.TID 0000.0001)                 8.070819219728060E+01,      /* I = 46 */
(PID.TID 0000.0001)                 8.439652466417766E+01,      /* I = 47 */
(PID.TID 0000.0001)                 8.812739148696656E+01,      /* I = 48 */
(PID.TID 0000.0001)                 9.187260851303344E+01,      /* I = 49 */
(PID.TID 0000.0001)                 9.560347533582234E+01,      /* I = 50 */
(PID.TID 0000.0001)                 9.929180780271940E+01,      /* I = 51 */
(PID.TID 0000.0001)                 1.029108980630207E+02,      /* I = 52 */
(PID.TID 0000.0001)                 1.064363080055513E+02,      /* I = 53 */
(PID.TID 0000.0001)                 1.098464071712706E+02,      /* I = 54 */
(PID.TID 0000.0001)                 1.131226125042634E+02,      /* I = 55 */
(PID.TID 0000.0001)                 1.162493222302829E+02,      /* I = 56 */
(PID.TID 0000.0001)                 1.192135596563268E+02,      /* I = 57 */
(PID.TID 0000.0001)                 1.220043456904179E+02,      /* I = 58 */
(PID.TID 0000.0001)                 1.246117936709415E+02,      /* I = 59 */
(PID.TID 0000.0001)                 1.270258515868220E+02,      /* I = 60 */
(PID.TID 0000.0001)                 1.292344628848730E+02,      /* I = 61 */
(PID.TID 0000.0001)                 1.312205555338896E+02,      /* I = 62 */
(PID.TID 0000.0001)                 1.329564127227588E+02,      /* I = 63 */
(PID.TID 0000.0001)                 1.343952199476053E+02,      /* I = 64 */
(PID.TID 0000.0001)                 4.500000000000000E+01,      /* I = 65 */
(PID.TID 0000.0001)                 4.620805468796297E+01,      /* I = 66 */
(PID.TID 0000.0001)                 4.781369642513039E+01,      /* I = 67 */
(PID.TID 0000.0001)                 4.971767671143929E+01,      /* I = 68 */
(PID.TID 0000.0001)                 5.187738319787235E+01,      /* I = 69 */
(PID.TID 0000.0001)                 5.427004371478710E+01,      /* I = 70 */
(PID.TID 0000.0001)                 5.688128325334060E+01,      /* I = 71 */
(PID.TID 0000.0001)                 5.970018167786760E+01,      /* I = 72 */
(PID.TID 0000.0001)                 6.271654991792347E+01,      /* I = 73 */
(PID.TID 0000.0001)                 6.591914604853015E+01,      /* I = 74 */
(PID.TID 0000.0001)                 6.929439270484148E+01,      /* I = 75 */
(PID.TID 0000.0001)                 7.282545807616151E+01,      /* I = 76 */
(PID.TID 0000.0001)                 7.649168830618933E+01,      /* I = 77 */
(PID.TID 0000.0001)                 8.026842803787176E+01,      /* I = 78 */
(PID.TID 0000.0001)                 8.412726743124185E+01,      /* I = 79 */
(PID.TID 0000.0001)                 8.803672008547504E+01,      /* I = 80 */
(PID.TID 0000.0001)                 9.196327991452496E+01,      /* I = 81 */
(PID.TID 0000.0001)                 9.587273256875815E+01,      /* I = 82 */
(PID.TID 0000.0001)                 9.973157196212824E+01,      /* I = 83 */
(PID.TID 0000.0001)                 1.035083116938107E+02,      /* I = 84 */
(PID.TID 0000.0001)                 1.071745419238385E+02,      /* I = 85 */
(PID.TID 0000.0001)                 1.107056072951585E+02,      /* I = 86 */
(PID.TID 0000.0001)                 1.140808539514698E+02,      /* I = 87 */
(PID.TID 0000.0001)                 1.172834500820765E+02,      /* I = 88 */
(PID.TID 0000.0001)                 1.202998183221324E+02,      /* I = 89 */
(PID.TID 0000.0001)                 1.231187167466594E+02,      /* I = 90 */
(PID.TID 0000.0001)                 1.257299562852129E+02,      /* I = 91 */
(PID.TID 0000.0001)                 1.281226168021277E+02,      /* I = 92 */
(PID.TID 0000.0001)                 1.302823232885607E+02,      /* I = 93 */
(PID.TID 0000.0001)                 1.321863035748696E+02,      /* I = 94 */
(PID.TID 0000.0001)                 1.337919453120370E+02,      /* I = 95 */
(PID.TID 0000.0001)                 1.350000000000000E+02,      /* I = 96 */
(PID.TID 0000.0001)                 1.356047800523947E+02,      /* I = 97 */
(PID.TID 0000.0001)                 1.358367907661329E+02,      /* I = 98 */
(PID.TID 0000.0001)                 1.359720382181193E+02,      /* I = 99 */
(PID.TID 0000.0001)                 1.360654656901789E+02,      /* I =100 */
(PID.TID 0000.0001)                 1.361344533147042E+02,      /* I =101 */
(PID.TID 0000.0001)                 1.361871219420981E+02,      /* I =102 */
(PID.TID 0000.0001)                 1.362280794509603E+02,      /* I =103 */
(PID.TID 0000.0001)                 1.362602511071934E+02,      /* I =104 */
(PID.TID 0000.0001)                 1.362856280326734E+02,      /* I =105 */
(PID.TID 0000.0001)                 1.363056266270901E+02,      /* I =106 */
(PID.TID 0000.0001)                 1.363212817739446E+02,      /* I =107 */
(PID.TID 0000.0001)                 1.363333595910255E+02,      /* I =108 */
(PID.TID 0000.0001)                 1.363424272425760E+02,      /* I =109 */
(PID.TID 0000.0001)                 1.363488978790713E+02,      /* I =110 */
(PID.TID 0000.0001)                 1.363530600590580E+02,      /* I =111 */
(PID.TID 0000.0001)     2 @  1.363550967500717E+02,             /* I =112:113 */
(PID.TID 0000.0001)                 1.363530600590580E+02,      /* I =114 */
(PID.TID 0000.0001)                 1.363488978790713E+02,      /* I =115 */
(PID.TID 0000.0001)                 1.363424272425760E+02,      /* I =116 */
(PID.TID 0000.0001)                 1.363333595910255E+02,      /* I =117 */
(PID.TID 0000.0001)                 1.363212817739446E+02,      /* I =118 */
(PID.TID 0000.0001)                 1.363056266270901E+02,      /* I =119 */
(PID.TID 0000.0001)                 1.362856280326734E+02,      /* I =120 */
(PID.TID 0000.0001)                 1.362602511071934E+02,      /* I =121 */
(PID.TID 0000.0001)                 1.362280794509603E+02,      /* I =122 */
(PID.TID 0000.0001)                 1.361871219420981E+02,      /* I =123 */
(PID.TID 0000.0001)                 1.361344533147042E+02,      /* I =124 */
(PID.TID 0000.0001)                 1.360654656901789E+02,      /* I =125 */
(PID.TID 0000.0001)                 1.359720382181193E+02,      /* I =126 */
(PID.TID 0000.0001)                 1.358367907661329E+02,      /* I =127 */
(PID.TID 0000.0001)                 1.356047800523947E+02,      /* I =128 */
(PID.TID 0000.0001)                -1.343952199476053E+02,      /* I =129 */
(PID.TID 0000.0001)                -1.341632092338671E+02,      /* I =130 */
(PID.TID 0000.0001)                -1.340279617818807E+02,      /* I =131 */
(PID.TID 0000.0001)                -1.339345343098211E+02,      /* I =132 */
(PID.TID 0000.0001)                -1.338655466852958E+02,      /* I =133 */
(PID.TID 0000.0001)                -1.338128780579019E+02,      /* I =134 */
(PID.TID 0000.0001)                -1.337719205490397E+02,      /* I =135 */
(PID.TID 0000.0001)                -1.337397488928066E+02,      /* I =136 */
(PID.TID 0000.0001)                -1.337143719673266E+02,      /* I =137 */
(PID.TID 0000.0001)                -1.336943733729099E+02,      /* I =138 */
(PID.TID 0000.0001)                -1.336787182260554E+02,      /* I =139 */
(PID.TID 0000.0001)                -1.336666404089745E+02,      /* I =140 */
(PID.TID 0000.0001)                -1.336575727574240E+02,      /* I =141 */
(PID.TID 0000.0001)                -1.336511021209287E+02,      /* I =142 */
(PID.TID 0000.0001)                -1.336469399409420E+02,      /* I =143 */
(PID.TID 0000.0001)     2 @ -1.336449032499283E+02,             /* I =144:145 */
(PID.TID 0000.0001)                -1.336469399409420E+02,      /* I =146 */
(PID.TID 0000.0001)                -1.336511021209287E+02,      /* I =147 */
(PID.TID 0000.0001)                -1.336575727574240E+02,      /* I =148 */
(PID.TID 0000.0001)                -1.336666404089745E+02,      /* I =149 */
(PID.TID 0000.0001)                -1.336787182260554E+02,      /* I =150 */
(PID.TID 0000.0001)                -1.336943733729099E+02,      /* I =151 */
(PID.TID 0000.0001)                -1.337143719673266E+02,      /* I =152 */
(PID.TID 0000.0001)                -1.337397488928066E+02,      /* I =153 */
(PID.TID 0000.0001)                -1.337719205490397E+02,      /* I =154 */
(PID.TID 0000.0001)                -1.338128780579019E+02,      /* I =155 */
(PID.TID 0000.0001)                -1.338655466852958E+02,      /* I =156 */
(PID.TID 0000.0001)                -1.339345343098211E+02,      /* I =157 */
(PID.TID 0000.0001)                -1.340279617818807E+02,      /* I =158 */
(PID.TID 0000.0001)                -1.341632092338671E+02,      /* I =159 */
(PID.TID 0000.0001)                -1.343952199476053E+02,      /* I =160 */
(PID.TID 0000.0001)                -1.350000000000000E+02,      /* I =161 */
(PID.TID 0000.0001)                -1.362080546879630E+02,      /* I =162 */
(PID.TID 0000.0001)                -1.378136964251304E+02,      /* I =163 */
(PID.TID 0000.0001)                -1.397176767114393E+02,      /* I =164 */
(PID.TID 0000.0001)                -1.418773831978723E+02,      /* I =165 */
(PID.TID 0000.0001)                -1.442700437147871E+02,      /* I =166 */
(PID.TID 0000.0001)                -1.468812832533406E+02,      /* I =167 */
(PID.TID 0000.0001)                -1.497001816778676E+02,      /* I =168 */
(PID.TID 0000.0001)                -1.527165499179235E+02,      /* I =169 */
(PID.TID 0000.0001)                -1.559191460485302E+02,      /* I =170 */
(PID.TID 0000.0001)                -1.592943927048415E+02,      /* I =171 */
(PID.TID 0000.0001)                -1.628254580761615E+02,      /* I =172 */
(PID.TID 0000.0001)                -1.664916883061893E+02,      /* I =173 */
(PID.TID 0000.0001)                -1.702684280378718E+02,      /* I =174 */
(PID.TID 0000.0001)                -1.741272674312418E+02,      /* I =175 */
(PID.TID 0000.0001)                -1.780367200854751E+02,      /* I =176 */
(PID.TID 0000.0001)                 1.780367200854751E+02,      /* I =177 */
(PID.TID 0000.0001)                 1.741272674312418E+02,      /* I =178 */
(PID.TID 0000.0001)                 1.702684280378718E+02,      /* I =179 */
(PID.TID 0000.0001)                 1.664916883061893E+02,      /* I =180 */
(PID.TID 0000.0001)                 1.628254580761615E+02,      /* I =181 */
(PID.TID 0000.0001)                 1.592943927048415E+02,      /* I =182 */
(PID.TID 0000.0001)                 1.559191460485302E+02,      /* I =183 */
(PID.TID 0000.0001)                 1.527165499179235E+02,      /* I =184 */
(PID.TID 0000.0001)                 1.497001816778676E+02,      /* I =185 */
(PID.TID 0000.0001)                 1.468812832533406E+02,      /* I =186 */
(PID.TID 0000.0001)                 1.442700437147871E+02,      /* I =187 */
(PID.TID 0000.0001)                 1.418773831978723E+02,      /* I =188 */
(PID.TID 0000.0001)                 1.397176767114393E+02,      /* I =189 */
(PID.TID 0000.0001)                 1.378136964251304E+02,      /* I =190 */
(PID.TID 0000.0001)                 1.362080546879630E+02,      /* I =191 */
(PID.TID 0000.0001)                 1.350000000000000E+02       /* I =192 */
(PID.TID 0000.0001)     ;
(PID.TID 0000.0001) ycoord =   /* P-point Y coord ( m - cartesian, degrees - spherical ) */
(PID.TID 0000.0001)                -3.497677942598243E+01,      /* J =  1 */
(PID.TID 0000.0001)                -3.374005967394886E+01,      /* J =  2 */
(PID.TID 0000.0001)                -3.220655175667454E+01,      /* J =  3 */
(PID.TID 0000.0001)                -3.045756348838641E+01,      /* J =  4 */
(PID.TID 0000.0001)                -2.853728129852918E+01,      /* J =  5 */
(PID.TID 0000.0001)                -2.647426640173173E+01,      /* J =  6 */
(PID.TID 0000.0001)                -2.428936657094636E+01,      /* J =  7 */
(PID.TID 0000.0001)                -2.199915808312262E+01,      /* J =  8 */
(PID.TID 0000.0001)                -1.961768597440146E+01,      /* J =  9 */
(PID.TID 0000.0001)                -1.715743888281371E+01,      /* J = 10 */
(PID.TID 0000.0001)                -1.462993396899330E+01,      /* J = 11 */
(PID.TID 0000.0001)                -1.204608340464756E+01,      /* J = 12 */
(PID.TID 0000.0001)                -9.416429130284818E+00,      /* J = 13 */
(PID.TID 0000.0001)                -6.751293662992216E+00,      /* J = 14 */
(PID.TID 0000.0001)                -4.060875511835959E+00,      /* J = 15 */
(PID.TID 0000.0001)                -1.355307764409121E+00,      /* J = 16 */
(PID.TID 0000.0001)                 1.355307764409121E+00,      /* J = 17 */
(PID.TID 0000.0001)                 4.060875511835959E+00,      /* J = 18 */
(PID.TID 0000.0001)                 6.751293662992216E+00,      /* J = 19 */
(PID.TID 0000.0001)                 9.416429130284818E+00,      /* J = 20 */
(PID.TID 0000.0001)                 1.204608340464756E+01,      /* J = 21 */
(PID.TID 0000.0001)                 1.462993396899330E+01,      /* J = 22 */
(PID.TID 0000.0001)                 1.715743888281371E+01,      /* J = 23 */
(PID.TID 0000.0001)                 1.961768597440146E+01,      /* J = 24 */
(PID.TID 0000.0001)                 2.199915808312262E+01,      /* J = 25 */
(PID.TID 0000.0001)                 2.428936657094636E+01,      /* J = 26 */
(PID.TID 0000.0001)                 2.647426640173173E+01,      /* J = 27 */
(PID.TID 0000.0001)                 2.853728129852918E+01,      /* J = 28 */
(PID.TID 0000.0001)                 3.045756348838641E+01,      /* J = 29 */
(PID.TID 0000.0001)                 3.220655175667454E+01,      /* J = 30 */
(PID.TID 0000.0001)                 3.374005967394886E+01,      /* J = 31 */
(PID.TID 0000.0001)                 3.497677942598243E+01       /* J = 32 */
(PID.TID 0000.0001)     ;
(PID.TID 0000.0001) rcoord =   /* P-point R coordinate (  units of r ) */
(PID.TID 0000.0001)                -2.500000000000000E+01,      /* K =  1 */
(PID.TID 0000.0001)                -8.500000000000000E+01,      /* K =  2 */
(PID.TID 0000.0001)                -1.700000000000000E+02,      /* K =  3 */
(PID.TID 0000.0001)                -2.900000000000000E+02,      /* K =  4 */
(PID.TID 0000.0001)                -4.550000000000000E+02,      /* K =  5 */
(PID.TID 0000.0001)                -6.700000000000000E+02,      /* K =  6 */
(PID.TID 0000.0001)                -9.350000000000000E+02,      /* K =  7 */
(PID.TID 0000.0001)                -1.250000000000000E+03,      /* K =  8 */
(PID.TID 0000.0001)                -1.615000000000000E+03,      /* K =  9 */
(PID.TID 0000.0001)                -2.030000000000000E+03,      /* K = 10 */
(PID.TID 0000.0001)                -2.495000000000000E+03,      /* K = 11 */
(PID.TID 0000.0001)                -3.010000000000000E+03,      /* K = 12 */
(PID.TID 0000.0001)                -3.575000000000000E+03,      /* K = 13 */
(PID.TID 0000.0001)                -4.190000000000000E+03,      /* K = 14 */
(PID.TID 0000.0001)                -4.855000000000000E+03       /* K = 15 */
(PID.TID 0000.0001)     ;
(PID.TID 0000.0001) rF =   /* W-Interf. R coordinate (  units of r ) */
(PID.TID 0000.0001)                 0.000000000000000E+00,      /* K =  1 */
(PID.TID 0000.0001)                -5.000000000000000E+01,      /* K =  2 */
(PID.TID 0000.0001)                -1.200000000000000E+02,      /* K =  3 */
(PID.TID 0000.0001)                -2.200000000000000E+02,      /* K =  4 */
(PID.TID 0000.0001)                -3.600000000000000E+02,      /* K =  5 */
(PID.TID 0000.0001)                -5.500000000000000E+02,      /* K =  6 */
(PID.TID 0000.0001)                -7.900000000000000E+02,      /* K =  7 */
(PID.TID 0000.0001)                -1.080000000000000E+03,      /* K =  8 */
(PID.TID 0000.0001)                -1.420000000000000E+03,      /* K =  9 */
(PID.TID 0000.0001)                -1.810000000000000E+03,      /* K = 10 */
(PID.TID 0000.0001)                -2.250000000000000E+03,      /* K = 11 */
(PID.TID 0000.0001)                -2.740000000000000E+03,      /* K = 12 */
(PID.TID 0000.0001)                -3.280000000000000E+03,      /* K = 13 */
(PID.TID 0000.0001)                -3.870000000000000E+03,      /* K = 14 */
(PID.TID 0000.0001)                -4.510000000000000E+03,      /* K = 15 */
(PID.TID 0000.0001)                -5.200000000000000E+03       /* K = 16 */
(PID.TID 0000.0001)     ;
(PID.TID 0000.0001) deepFacC = /* deep-model grid factor @ cell-Center (-) */
(PID.TID 0000.0001)    15 @  1.000000000000000E+00              /* K =  1: 15 */
(PID.TID 0000.0001)     ;
(PID.TID 0000.0001) deepFacF = /* deep-model grid factor @ W-Interface (-) */
(PID.TID 0000.0001)    16 @  1.000000000000000E+00              /* K =  1: 16 */
(PID.TID 0000.0001)     ;
(PID.TID 0000.0001) rVel2wUnit = /* convert units: rVel -> wSpeed (=1 if z-coord)*/
(PID.TID 0000.0001)    16 @  1.000000000000000E+00              /* K =  1: 16 */
(PID.TID 0000.0001)     ;
(PID.TID 0000.0001) wUnit2rVel = /* convert units: wSpeed -> rVel (=1 if z-coord)*/
(PID.TID 0000.0001)    16 @  1.000000000000000E+00              /* K =  1: 16 */
(PID.TID 0000.0001)     ;
(PID.TID 0000.0001) dBdrRef = /* Vertical gradient of reference boyancy [(m/s/r)^2)] */
(PID.TID 0000.0001)    15 @  0.000000000000000E+00              /* K =  1: 15 */
(PID.TID 0000.0001)     ;
(PID.TID 0000.0001) dxF =  /* dxF(:,1,:,1) ( units: m ) */
(PID.TID 0000.0001)                 1.202082051331828E+05,      /* I =  1 */
(PID.TID 0000.0001)                 1.563594089971120E+05,      /* I =  2 */
(PID.TID 0000.0001)                 1.835530058121492E+05,      /* I =  3 */
(PID.TID 0000.0001)                 2.045883481718707E+05,      /* I =  4 */
(PID.TID 0000.0001)                 2.218350349844185E+05,      /* I =  5 */
(PID.TID 0000.0001)                 2.364352994647058E+05,      /* I =  6 */
(PID.TID 0000.0001)                 2.490022710862746E+05,      /* I =  7 */
(PID.TID 0000.0001)                 2.598919724358304E+05,      /* I =  8 */
(PID.TID 0000.0001)                 2.693210245495156E+05,      /* I =  9 */
(PID.TID 0000.0001)                 2.774243179696503E+05,      /* I = 10 */
(PID.TID 0000.0001)                 2.842862532064524E+05,      /* I = 11 */
(PID.TID 0000.0001)                 2.899590699694043E+05,      /* I = 12 */
(PID.TID 0000.0001)                 2.944742915095688E+05,      /* I = 13 */
(PID.TID 0000.0001)                 2.978501920522794E+05,      /* I = 14 */
(PID.TID 0000.0001)                 3.000967749619962E+05,      /* I = 15 */
(PID.TID 0000.0001)     2 @  3.012190981969055E+05,             /* I = 16: 17 */
(PID.TID 0000.0001)                 3.000967749619962E+05,      /* I = 18 */
(PID.TID 0000.0001)                 2.978501920522794E+05,      /* I = 19 */
(PID.TID 0000.0001)                 2.944742915095688E+05,      /* I = 20 */
(PID.TID 0000.0001)                 2.899590699694043E+05,      /* I = 21 */
(PID.TID 0000.0001)                 2.842862532064524E+05,      /* I = 22 */
(PID.TID 0000.0001)                 2.774243179696503E+05,      /* I = 23 */
(PID.TID 0000.0001)                 2.693210245495156E+05,      /* I = 24 */
(PID.TID 0000.0001)                 2.598919724358304E+05,      /* I = 25 */
(PID.TID 0000.0001)                 2.490022710862746E+05,      /* I = 26 */
(PID.TID 0000.0001)                 2.364352994647058E+05,      /* I = 27 */
(PID.TID 0000.0001)                 2.218350349844185E+05,      /* I = 28 */
(PID.TID 0000.0001)                 2.045883481718707E+05,      /* I = 29 */
(PID.TID 0000.0001)                 1.835530058121492E+05,      /* I = 30 */
(PID.TID 0000.0001)                 1.563594089971120E+05,      /* I = 31 */
(PID.TID 0000.0001)     2 @  1.202082051331828E+05,             /* I = 32: 33 */
(PID.TID 0000.0001)                 1.563594089971120E+05,      /* I = 34 */
(PID.TID 0000.0001)                 1.835530058121492E+05,      /* I = 35 */
(PID.TID 0000.0001)                 2.045883481718707E+05,      /* I = 36 */
(PID.TID 0000.0001)                 2.218350349844185E+05,      /* I = 37 */
(PID.TID 0000.0001)                 2.364352994647058E+05,      /* I = 38 */
(PID.TID 0000.0001)                 2.490022710862746E+05,      /* I = 39 */
(PID.TID 0000.0001)                 2.598919724358304E+05,      /* I = 40 */
(PID.TID 0000.0001)                 2.693210245495156E+05,      /* I = 41 */
(PID.TID 0000.0001)                 2.774243179696503E+05,      /* I = 42 */
(PID.TID 0000.0001)                 2.842862532064524E+05,      /* I = 43 */
(PID.TID 0000.0001)                 2.899590699694043E+05,      /* I = 44 */
(PID.TID 0000.0001)                 2.944742915095688E+05,      /* I = 45 */
(PID.TID 0000.0001)                 2.978501920522794E+05,      /* I = 46 */
(PID.TID 0000.0001)                 3.000967749619962E+05,      /* I = 47 */
(PID.TID 0000.0001)     2 @  3.012190981969055E+05,             /* I = 48: 49 */
(PID.TID 0000.0001)                 3.000967749619962E+05,      /* I = 50 */
(PID.TID 0000.0001)                 2.978501920522794E+05,      /* I = 51 */
(PID.TID 0000.0001)                 2.944742915095688E+05,      /* I = 52 */
(PID.TID 0000.0001)                 2.899590699694043E+05,      /* I = 53 */
(PID.TID 0000.0001)                 2.842862532064524E+05,      /* I = 54 */
(PID.TID 0000.0001)                 2.774243179696503E+05,      /* I = 55 */
(PID.TID 0000.0001)                 2.693210245495156E+05,      /* I = 56 */
(PID.TID 0000.0001)                 2.598919724358304E+05,      /* I = 57 */
(PID.TID 0000.0001)                 2.490022710862746E+05,      /* I = 58 */
(PID.TID 0000.0001)                 2.364352994647058E+05,      /* I = 59 */
(PID.TID 0000.0001)                 2.218350349844185E+05,      /* I = 60 */
(PID.TID 0000.0001)                 2.045883481718707E+05,      /* I = 61 */
(PID.TID 0000.0001)                 1.835530058121492E+05,      /* I = 62 */
(PID.TID 0000.0001)                 1.563594089971120E+05,      /* I = 63 */
(PID.TID 0000.0001)     2 @  1.202082051331828E+05,             /* I = 64: 65 */
(PID.TID 0000.0001)                 1.563594089971120E+05,      /* I = 66 */
(PID.TID 0000.0001)                 1.835530058121492E+05,      /* I = 67 */
(PID.TID 0000.0001)                 2.045883481718707E+05,      /* I = 68 */
(PID.TID 0000.0001)                 2.218350349844185E+05,      /* I = 69 */
(PID.TID 0000.0001)                 2.364352994647058E+05,      /* I = 70 */
(PID.TID 0000.0001)                 2.490022710862746E+05,      /* I = 71 */
(PID.TID 0000.0001)                 2.598919724358304E+05,      /* I = 72 */
(PID.TID 0000.0001)                 2.693210245495156E+05,      /* I = 73 */
(PID.TID 0000.0001)                 2.774243179696503E+05,      /* I = 74 */
(PID.TID 0000.0001)                 2.842862532064524E+05,      /* I = 75 */
(PID.TID 0000.0001)                 2.899590699694043E+05,      /* I = 76 */
(PID.TID 0000.0001)                 2.944742915095688E+05,      /* I = 77 */
(PID.TID 0000.0001)                 2.978501920522794E+05,      /* I = 78 */
(PID.TID 0000.0001)                 3.000967749619962E+05,      /* I = 79 */
(PID.TID 0000.0001)     2 @  3.012190981969055E+05,             /* I = 80: 81 */
(PID.TID 0000.0001)                 3.000967749619962E+05,      /* I = 82 */
(PID.TID 0000.0001)                 2.978501920522794E+05,      /* I = 83 */
(PID.TID 0000.0001)                 2.944742915095688E+05,      /* I = 84 */
(PID.TID 0000.0001)                 2.899590699694043E+05,      /* I = 85 */
(PID.TID 0000.0001)                 2.842862532064524E+05,      /* I = 86 */
(PID.TID 0000.0001)                 2.774243179696503E+05,      /* I = 87 */
(PID.TID 0000.0001)                 2.693210245495156E+05,      /* I = 88 */
(PID.TID 0000.0001)                 2.598919724358304E+05,      /* I = 89 */
(PID.TID 0000.0001)                 2.490022710862746E+05,      /* I = 90 */
(PID.TID 0000.0001)                 2.364352994647058E+05,      /* I = 91 */
(PID.TID 0000.0001)                 2.218350349844185E+05,      /* I = 92 */
(PID.TID 0000.0001)                 2.045883481718707E+05,      /* I = 93 */
(PID.TID 0000.0001)                 1.835530058121492E+05,      /* I = 94 */
(PID.TID 0000.0001)                 1.563594089971120E+05,      /* I = 95 */
(PID.TID 0000.0001)     2 @  1.202082051331828E+05,             /* I = 96: 97 */
(PID.TID 0000.0001)                 1.563594089971120E+05,      /* I = 98 */
(PID.TID 0000.0001)                 1.835530058121492E+05,      /* I = 99 */
(PID.TID 0000.0001)                 2.045883481718707E+05,      /* I =100 */
(PID.TID 0000.0001)                 2.218350349844185E+05,      /* I =101 */
(PID.TID 0000.0001)                 2.364352994647058E+05,      /* I =102 */
(PID.TID 0000.0001)                 2.490022710862746E+05,      /* I =103 */
(PID.TID 0000.0001)                 2.598919724358304E+05,      /* I =104 */
(PID.TID 0000.0001)                 2.693210245495156E+05,      /* I =105 */
(PID.TID 0000.0001)                 2.774243179696503E+05,      /* I =106 */
(PID.TID 0000.0001)                 2.842862532064524E+05,      /* I =107 */
(PID.TID 0000.0001)                 2.899590699694043E+05,      /* I =108 */
(PID.TID 0000.0001)                 2.944742915095688E+05,      /* I =109 */
(PID.TID 0000.0001)                 2.978501920522794E+05,      /* I =110 */
(PID.TID 0000.0001)                 3.000967749619962E+05,      /* I =111 */
(PID.TID 0000.0001)     2 @  3.012190981969055E+05,             /* I =112:113 */
(PID.TID 0000.0001)                 3.000967749619962E+05,      /* I =114 */
(PID.TID 0000.0001)                 2.978501920522794E+05,      /* I =115 */
(PID.TID 0000.0001)                 2.944742915095688E+05,      /* I =116 */
(PID.TID 0000.0001)                 2.899590699694043E+05,      /* I =117 */
(PID.TID 0000.0001)                 2.842862532064524E+05,      /* I =118 */
(PID.TID 0000.0001)                 2.774243179696503E+05,      /* I =119 */
(PID.TID 0000.0001)                 2.693210245495156E+05,      /* I =120 */
(PID.TID 0000.0001)                 2.598919724358304E+05,      /* I =121 */
(PID.TID 0000.0001)                 2.490022710862746E+05,      /* I =122 */
(PID.TID 0000.0001)                 2.364352994647058E+05,      /* I =123 */
(PID.TID 0000.0001)                 2.218350349844185E+05,      /* I =124 */
(PID.TID 0000.0001)                 2.045883481718707E+05,      /* I =125 */
(PID.TID 0000.0001)                 1.835530058121492E+05,      /* I =126 */
(PID.TID 0000.0001)                 1.563594089971120E+05,      /* I =127 */
(PID.TID 0000.0001)     2 @  1.202082051331828E+05,             /* I =128:129 */
(PID.TID 0000.0001)                 1.563594089971120E+05,      /* I =130 */
(PID.TID 0000.0001)                 1.835530058121492E+05,      /* I =131 */
(PID.TID 0000.0001)                 2.045883481718707E+05,      /* I =132 */
(PID.TID 0000.0001)                 2.218350349844185E+05,      /* I =133 */
(PID.TID 0000.0001)                 2.364352994647058E+05,      /* I =134 */
(PID.TID 0000.0001)                 2.490022710862746E+05,      /* I =135 */
(PID.TID 0000.0001)                 2.598919724358304E+05,      /* I =136 */
(PID.TID 0000.0001)                 2.693210245495156E+05,      /* I =137 */
(PID.TID 0000.0001)                 2.774243179696503E+05,      /* I =138 */
(PID.TID 0000.0001)                 2.842862532064524E+05,      /* I =139 */
(PID.TID 0000.0001)                 2.899590699694043E+05,      /* I =140 */
(PID.TID 0000.0001)                 2.944742915095688E+05,      /* I =141 */
(PID.TID 0000.0001)                 2.978501920522794E+05,      /* I =142 */
(PID.TID 0000.0001)                 3.000967749619962E+05,      /* I =143 */
(PID.TID 0000.0001)     2 @  3.012190981969055E+05,             /* I =144:145 */
(PID.TID 0000.0001)                 3.000967749619962E+05,      /* I =146 */
(PID.TID 0000.0001)                 2.978501920522794E+05,      /* I =147 */
(PID.TID 0000.0001)                 2.944742915095688E+05,      /* I =148 */
(PID.TID 0000.0001)                 2.899590699694043E+05,      /* I =149 */
(PID.TID 0000.0001)                 2.842862532064524E+05,      /* I =150 */
(PID.TID 0000.0001)                 2.774243179696503E+05,      /* I =151 */
(PID.TID 0000.0001)                 2.693210245495156E+05,      /* I =152 */
(PID.TID 0000.0001)                 2.598919724358304E+05,      /* I =153 */
(PID.TID 0000.0001)                 2.490022710862746E+05,      /* I =154 */
(PID.TID 0000.0001)                 2.364352994647058E+05,      /* I =155 */
(PID.TID 0000.0001)                 2.218350349844185E+05,      /* I =156 */
(PID.TID 0000.0001)                 2.045883481718707E+05,      /* I =157 */
(PID.TID 0000.0001)                 1.835530058121492E+05,      /* I =158 */
(PID.TID 0000.0001)                 1.563594089971120E+05,      /* I =159 */
(PID.TID 0000.0001)     2 @  1.202082051331828E+05,             /* I =160:161 */
(PID.TID 0000.0001)                 1.563594089971120E+05,      /* I =162 */
(PID.TID 0000.0001)                 1.835530058121492E+05,      /* I =163 */
(PID.TID 0000.0001)                 2.045883481718707E+05,      /* I =164 */
(PID.TID 0000.0001)                 2.218350349844185E+05,      /* I =165 */
(PID.TID 0000.0001)                 2.364352994647058E+05,      /* I =166 */
(PID.TID 0000.0001)                 2.490022710862746E+05,      /* I =167 */
(PID.TID 0000.0001)                 2.598919724358304E+05,      /* I =168 */
(PID.TID 0000.0001)                 2.693210245495156E+05,      /* I =169 */
(PID.TID 0000.0001)                 2.774243179696503E+05,      /* I =170 */
(PID.TID 0000.0001)                 2.842862532064524E+05,      /* I =171 */
(PID.TID 0000.0001)                 2.899590699694043E+05,      /* I =172 */
(PID.TID 0000.0001)                 2.944742915095688E+05,      /* I =173 */
(PID.TID 0000.0001)                 2.978501920522794E+05,      /* I =174 */
(PID.TID 0000.0001)                 3.000967749619962E+05,      /* I =175 */
(PID.TID 0000.0001)     2 @  3.012190981969055E+05,             /* I =176:177 */
(PID.TID 0000.0001)                 3.000967749619962E+05,      /* I =178 */
(PID.TID 0000.0001)                 2.978501920522794E+05,      /* I =179 */
(PID.TID 0000.0001)                 2.944742915095688E+05,      /* I =180 */
(PID.TID 0000.0001)                 2.899590699694043E+05,      /* I =181 */
(PID.TID 0000.0001)                 2.842862532064524E+05,      /* I =182 */
(PID.TID 0000.0001)                 2.774243179696503E+05,      /* I =183 */
(PID.TID 0000.0001)                 2.693210245495156E+05,      /* I =184 */
(PID.TID 0000.0001)                 2.598919724358304E+05,      /* I =185 */
(PID.TID 0000.0001)                 2.490022710862746E+05,      /* I =186 */
(PID.TID 0000.0001)                 2.364352994647058E+05,      /* I =187 */
(PID.TID 0000.0001)                 2.218350349844185E+05,      /* I =188 */
(PID.TID 0000.0001)                 2.045883481718707E+05,      /* I =189 */
(PID.TID 0000.0001)                 1.835530058121492E+05,      /* I =190 */
(PID.TID 0000.0001)                 1.563594089971120E+05,      /* I =191 */
(PID.TID 0000.0001)                 1.202082051331828E+05       /* I =192 */
(PID.TID 0000.0001)     ;
(PID.TID 0000.0001) dxF =  /* dxF(1,:,1,:) ( units: m ) */
(PID.TID 0000.0001)                 1.202082051331828E+05,      /* J =  1 */
(PID.TID 0000.0001)                 1.572908084538706E+05,      /* J =  2 */
(PID.TID 0000.0001)                 1.840412227747703E+05,      /* J =  3 */
(PID.TID 0000.0001)                 2.048868197919576E+05,      /* J =  4 */
(PID.TID 0000.0001)                 2.220405216043041E+05,      /* J =  5 */
(PID.TID 0000.0001)                 2.365892017348392E+05,      /* J =  6 */
(PID.TID 0000.0001)                 2.491250781852558E+05,      /* J =  7 */
(PID.TID 0000.0001)                 2.599949918261881E+05,      /* J =  8 */
(PID.TID 0000.0001)                 2.694110134598581E+05,      /* J =  9 */
(PID.TID 0000.0001)                 2.775055554645015E+05,      /* J = 10 */
(PID.TID 0000.0001)                 2.843615645344775E+05,      /* J = 11 */
(PID.TID 0000.0001)                 2.900303768613599E+05,      /* J = 12 */
(PID.TID 0000.0001)                 2.945429307892709E+05,      /* J = 13 */
(PID.TID 0000.0001)                 2.979171143158405E+05,      /* J = 14 */
(PID.TID 0000.0001)                 3.001626787528886E+05,      /* J = 15 */
(PID.TID 0000.0001)     2 @  3.012844832048790E+05,             /* J = 16: 17 */
(PID.TID 0000.0001)                 3.001626787528886E+05,      /* J = 18 */
(PID.TID 0000.0001)                 2.979171143158405E+05,      /* J = 19 */
(PID.TID 0000.0001)                 2.945429307892709E+05,      /* J = 20 */
(PID.TID 0000.0001)                 2.900303768613599E+05,      /* J = 21 */
(PID.TID 0000.0001)                 2.843615645344775E+05,      /* J = 22 */
(PID.TID 0000.0001)                 2.775055554645015E+05,      /* J = 23 */
(PID.TID 0000.0001)                 2.694110134598581E+05,      /* J = 24 */
(PID.TID 0000.0001)                 2.599949918261881E+05,      /* J = 25 */
(PID.TID 0000.0001)                 2.491250781852558E+05,      /* J = 26 */
(PID.TID 0000.0001)                 2.365892017348392E+05,      /* J = 27 */
(PID.TID 0000.0001)                 2.220405216043041E+05,      /* J = 28 */
(PID.TID 0000.0001)                 2.048868197919576E+05,      /* J = 29 */
(PID.TID 0000.0001)                 1.840412227747703E+05,      /* J = 30 */
(PID.TID 0000.0001)                 1.572908084538706E+05,      /* J = 31 */
(PID.TID 0000.0001)                 1.202082051331828E+05       /* J = 32 */
(PID.TID 0000.0001)     ;
(PID.TID 0000.0001) dyF =  /* dyF(:,1,:,1) ( units: m ) */
(PID.TID 0000.0001)                 1.202082051331828E+05,      /* I =  1 */
(PID.TID 0000.0001)                 1.572908084538706E+05,      /* I =  2 */
(PID.TID 0000.0001)                 1.840412227747703E+05,      /* I =  3 */
(PID.TID 0000.0001)                 2.048868197919576E+05,      /* I =  4 */
(PID.TID 0000.0001)                 2.220405216043041E+05,      /* I =  5 */
(PID.TID 0000.0001)                 2.365892017348392E+05,      /* I =  6 */
(PID.TID 0000.0001)                 2.491250781852558E+05,      /* I =  7 */
(PID.TID 0000.0001)                 2.599949918261881E+05,      /* I =  8 */
(PID.TID 0000.0001)                 2.694110134598581E+05,      /* I =  9 */
(PID.TID 0000.0001)                 2.775055554645015E+05,      /* I = 10 */
(PID.TID 0000.0001)                 2.843615645344775E+05,      /* I = 11 */
(PID.TID 0000.0001)                 2.900303768613599E+05,      /* I = 12 */
(PID.TID 0000.0001)                 2.945429307892709E+05,      /* I = 13 */
(PID.TID 0000.0001)                 2.979171143158405E+05,      /* I = 14 */
(PID.TID 0000.0001)                 3.001626787528886E+05,      /* I = 15 */
(PID.TID 0000.0001)     2 @  3.012844832048790E+05,             /* I = 16: 17 */
(PID.TID 0000.0001)                 3.001626787528886E+05,      /* I = 18 */
(PID.TID 0000.0001)                 2.979171143158405E+05,      /* I = 19 */
(PID.TID 0000.0001)                 2.945429307892709E+05,      /* I = 20 */
(PID.TID 0000.0001)                 2.900303768613599E+05,      /* I = 21 */
(PID.TID 0000.0001)                 2.843615645344775E+05,      /* I = 22 */
(PID.TID 0000.0001)                 2.775055554645015E+05,      /* I = 23 */
(PID.TID 0000.0001)                 2.694110134598581E+05,      /* I = 24 */
(PID.TID 0000.0001)                 2.599949918261881E+05,      /* I = 25 */
(PID.TID 0000.0001)                 2.491250781852558E+05,      /* I = 26 */
(PID.TID 0000.0001)                 2.365892017348392E+05,      /* I = 27 */
(PID.TID 0000.0001)                 2.220405216043041E+05,      /* I = 28 */
(PID.TID 0000.0001)                 2.048868197919576E+05,      /* I = 29 */
(PID.TID 0000.0001)                 1.840412227747703E+05,      /* I = 30 */
(PID.TID 0000.0001)                 1.572908084538706E+05,      /* I = 31 */
(PID.TID 0000.0001)     2 @  1.202082051331828E+05,             /* I = 32: 33 */
(PID.TID 0000.0001)                 1.572908084538706E+05,      /* I = 34 */
(PID.TID 0000.0001)                 1.840412227747703E+05,      /* I = 35 */
(PID.TID 0000.0001)                 2.048868197919576E+05,      /* I = 36 */
(PID.TID 0000.0001)                 2.220405216043041E+05,      /* I = 37 */
(PID.TID 0000.0001)                 2.365892017348392E+05,      /* I = 38 */
(PID.TID 0000.0001)                 2.491250781852558E+05,      /* I = 39 */
(PID.TID 0000.0001)                 2.599949918261881E+05,      /* I = 40 */
(PID.TID 0000.0001)                 2.694110134598581E+05,      /* I = 41 */
(PID.TID 0000.0001)                 2.775055554645015E+05,      /* I = 42 */
(PID.TID 0000.0001)                 2.843615645344775E+05,      /* I = 43 */
(PID.TID 0000.0001)                 2.900303768613599E+05,      /* I = 44 */
(PID.TID 0000.0001)                 2.945429307892709E+05,      /* I = 45 */
(PID.TID 0000.0001)                 2.979171143158405E+05,      /* I = 46 */
(PID.TID 0000.0001)                 3.001626787528886E+05,      /* I = 47 */
(PID.TID 0000.0001)     2 @  3.012844832048790E+05,             /* I = 48: 49 */
(PID.TID 0000.0001)                 3.001626787528886E+05,      /* I = 50 */
(PID.TID 0000.0001)                 2.979171143158405E+05,      /* I = 51 */
(PID.TID 0000.0001)                 2.945429307892709E+05,      /* I = 52 */
(PID.TID 0000.0001)                 2.900303768613599E+05,      /* I = 53 */
(PID.TID 0000.0001)                 2.843615645344775E+05,      /* I = 54 */
(PID.TID 0000.0001)                 2.775055554645015E+05,      /* I = 55 */
(PID.TID 0000.0001)                 2.694110134598581E+05,      /* I = 56 */
(PID.TID 0000.0001)                 2.599949918261881E+05,      /* I = 57 */
(PID.TID 0000.0001)                 2.491250781852558E+05,      /* I = 58 */
(PID.TID 0000.0001)                 2.365892017348392E+05,      /* I = 59 */
(PID.TID 0000.0001)                 2.220405216043041E+05,      /* I = 60 */
(PID.TID 0000.0001)                 2.048868197919576E+05,      /* I = 61 */
(PID.TID 0000.0001)                 1.840412227747703E+05,      /* I = 62 */
(PID.TID 0000.0001)                 1.572908084538706E+05,      /* I = 63 */
(PID.TID 0000.0001)     2 @  1.202082051331828E+05,             /* I = 64: 65 */
(PID.TID 0000.0001)                 1.572908084538706E+05,      /* I = 66 */
(PID.TID 0000.0001)                 1.840412227747703E+05,      /* I = 67 */
(PID.TID 0000.0001)                 2.048868197919576E+05,      /* I = 68 */
(PID.TID 0000.0001)                 2.220405216043041E+05,      /* I = 69 */
(PID.TID 0000.0001)                 2.365892017348392E+05,      /* I = 70 */
(PID.TID 0000.0001)                 2.491250781852558E+05,      /* I = 71 */
(PID.TID 0000.0001)                 2.599949918261881E+05,      /* I = 72 */
(PID.TID 0000.0001)                 2.694110134598581E+05,      /* I = 73 */
(PID.TID 0000.0001)                 2.775055554645015E+05,      /* I = 74 */
(PID.TID 0000.0001)                 2.843615645344775E+05,      /* I = 75 */
(PID.TID 0000.0001)                 2.900303768613599E+05,      /* I = 76 */
(PID.TID 0000.0001)                 2.945429307892709E+05,      /* I = 77 */
(PID.TID 0000.0001)                 2.979171143158405E+05,      /* I = 78 */
(PID.TID 0000.0001)                 3.001626787528886E+05,      /* I = 79 */
(PID.TID 0000.0001)     2 @  3.012844832048790E+05,             /* I = 80: 81 */
(PID.TID 0000.0001)                 3.001626787528886E+05,      /* I = 82 */
(PID.TID 0000.0001)                 2.979171143158405E+05,      /* I = 83 */
(PID.TID 0000.0001)                 2.945429307892709E+05,      /* I = 84 */
(PID.TID 0000.0001)                 2.900303768613599E+05,      /* I = 85 */
(PID.TID 0000.0001)                 2.843615645344775E+05,      /* I = 86 */
(PID.TID 0000.0001)                 2.775055554645015E+05,      /* I = 87 */
(PID.TID 0000.0001)                 2.694110134598581E+05,      /* I = 88 */
(PID.TID 0000.0001)                 2.599949918261881E+05,      /* I = 89 */
(PID.TID 0000.0001)                 2.491250781852558E+05,      /* I = 90 */
(PID.TID 0000.0001)                 2.365892017348392E+05,      /* I = 91 */
(PID.TID 0000.0001)                 2.220405216043041E+05,      /* I = 92 */
(PID.TID 0000.0001)                 2.048868197919576E+05,      /* I = 93 */
(PID.TID 0000.0001)                 1.840412227747703E+05,      /* I = 94 */
(PID.TID 0000.0001)                 1.572908084538706E+05,      /* I = 95 */
(PID.TID 0000.0001)     2 @  1.202082051331828E+05,             /* I = 96: 97 */
(PID.TID 0000.0001)                 1.572908084538706E+05,      /* I = 98 */
(PID.TID 0000.0001)                 1.840412227747703E+05,      /* I = 99 */
(PID.TID 0000.0001)                 2.048868197919576E+05,      /* I =100 */
(PID.TID 0000.0001)                 2.220405216043041E+05,      /* I =101 */
(PID.TID 0000.0001)                 2.365892017348392E+05,      /* I =102 */
(PID.TID 0000.0001)                 2.491250781852558E+05,      /* I =103 */
(PID.TID 0000.0001)                 2.599949918261881E+05,      /* I =104 */
(PID.TID 0000.0001)                 2.694110134598581E+05,      /* I =105 */
(PID.TID 0000.0001)                 2.775055554645015E+05,      /* I =106 */
(PID.TID 0000.0001)                 2.843615645344775E+05,      /* I =107 */
(PID.TID 0000.0001)                 2.900303768613599E+05,      /* I =108 */
(PID.TID 0000.0001)                 2.945429307892709E+05,      /* I =109 */
(PID.TID 0000.0001)                 2.979171143158405E+05,      /* I =110 */
(PID.TID 0000.0001)                 3.001626787528886E+05,      /* I =111 */
(PID.TID 0000.0001)     2 @  3.012844832048790E+05,             /* I =112:113 */
(PID.TID 0000.0001)                 3.001626787528886E+05,      /* I =114 */
(PID.TID 0000.0001)                 2.979171143158405E+05,      /* I =115 */
(PID.TID 0000.0001)                 2.945429307892709E+05,      /* I =116 */
(PID.TID 0000.0001)                 2.900303768613599E+05,      /* I =117 */
(PID.TID 0000.0001)                 2.843615645344775E+05,      /* I =118 */
(PID.TID 0000.0001)                 2.775055554645015E+05,      /* I =119 */
(PID.TID 0000.0001)                 2.694110134598581E+05,      /* I =120 */
(PID.TID 0000.0001)                 2.599949918261881E+05,      /* I =121 */
(PID.TID 0000.0001)                 2.491250781852558E+05,      /* I =122 */
(PID.TID 0000.0001)                 2.365892017348392E+05,      /* I =123 */
(PID.TID 0000.0001)                 2.220405216043041E+05,      /* I =124 */
(PID.TID 0000.0001)                 2.048868197919576E+05,      /* I =125 */
(PID.TID 0000.0001)                 1.840412227747703E+05,      /* I =126 */
(PID.TID 0000.0001)                 1.572908084538706E+05,      /* I =127 */
(PID.TID 0000.0001)     2 @  1.202082051331828E+05,             /* I =128:129 */
(PID.TID 0000.0001)                 1.572908084538706E+05,      /* I =130 */
(PID.TID 0000.0001)                 1.840412227747703E+05,      /* I =131 */
(PID.TID 0000.0001)                 2.048868197919576E+05,      /* I =132 */
(PID.TID 0000.0001)                 2.220405216043041E+05,      /* I =133 */
(PID.TID 0000.0001)                 2.365892017348392E+05,      /* I =134 */
(PID.TID 0000.0001)                 2.491250781852558E+05,      /* I =135 */
(PID.TID 0000.0001)                 2.599949918261881E+05,      /* I =136 */
(PID.TID 0000.0001)                 2.694110134598581E+05,      /* I =137 */
(PID.TID 0000.0001)                 2.775055554645015E+05,      /* I =138 */
(PID.TID 0000.0001)                 2.843615645344775E+05,      /* I =139 */
(PID.TID 0000.0001)                 2.900303768613599E+05,      /* I =140 */
(PID.TID 0000.0001)                 2.945429307892709E+05,      /* I =141 */
(PID.TID 0000.0001)                 2.979171143158405E+05,      /* I =142 */
(PID.TID 0000.0001)                 3.001626787528886E+05,      /* I =143 */
(PID.TID 0000.0001)     2 @  3.012844832048790E+05,             /* I =144:145 */
(PID.TID 0000.0001)                 3.001626787528886E+05,      /* I =146 */
(PID.TID 0000.0001)                 2.979171143158405E+05,      /* I =147 */
(PID.TID 0000.0001)                 2.945429307892709E+05,      /* I =148 */
(PID.TID 0000.0001)                 2.900303768613599E+05,      /* I =149 */
(PID.TID 0000.0001)                 2.843615645344775E+05,      /* I =150 */
(PID.TID 0000.0001)                 2.775055554645015E+05,      /* I =151 */
(PID.TID 0000.0001)                 2.694110134598581E+05,      /* I =152 */
(PID.TID 0000.0001)                 2.599949918261881E+05,      /* I =153 */
(PID.TID 0000.0001)                 2.491250781852558E+05,      /* I =154 */
(PID.TID 0000.0001)                 2.365892017348392E+05,      /* I =155 */
(PID.TID 0000.0001)                 2.220405216043041E+05,      /* I =156 */
(PID.TID 0000.0001)                 2.048868197919576E+05,      /* I =157 */
(PID.TID 0000.0001)                 1.840412227747703E+05,      /* I =158 */
(PID.TID 0000.0001)                 1.572908084538706E+05,      /* I =159 */
(PID.TID 0000.0001)     2 @  1.202082051331828E+05,             /* I =160:161 */
(PID.TID 0000.0001)                 1.572908084538706E+05,      /* I =162 */
(PID.TID 0000.0001)                 1.840412227747703E+05,      /* I =163 */
(PID.TID 0000.0001)                 2.048868197919576E+05,      /* I =164 */
(PID.TID 0000.0001)                 2.220405216043041E+05,      /* I =165 */
(PID.TID 0000.0001)                 2.365892017348392E+05,      /* I =166 */
(PID.TID 0000.0001)                 2.491250781852558E+05,      /* I =167 */
(PID.TID 0000.0001)                 2.599949918261881E+05,      /* I =168 */
(PID.TID 0000.0001)                 2.694110134598581E+05,      /* I =169 */
(PID.TID 0000.0001)                 2.775055554645015E+05,      /* I =170 */
(PID.TID 0000.0001)                 2.843615645344775E+05,      /* I =171 */
(PID.TID 0000.0001)                 2.900303768613599E+05,      /* I =172 */
(PID.TID 0000.0001)                 2.945429307892709E+05,      /* I =173 */
(PID.TID 0000.0001)                 2.979171143158405E+05,      /* I =174 */
(PID.TID 0000.0001)                 3.001626787528886E+05,      /* I =175 */
(PID.TID 0000.0001)     2 @  3.012844832048790E+05,             /* I =176:177 */
(PID.TID 0000.0001)                 3.001626787528886E+05,      /* I =178 */
(PID.TID 0000.0001)                 2.979171143158405E+05,      /* I =179 */
(PID.TID 0000.0001)                 2.945429307892709E+05,      /* I =180 */
(PID.TID 0000.0001)                 2.900303768613599E+05,      /* I =181 */
(PID.TID 0000.0001)                 2.843615645344775E+05,      /* I =182 */
(PID.TID 0000.0001)                 2.775055554645015E+05,      /* I =183 */
(PID.TID 0000.0001)                 2.694110134598581E+05,      /* I =184 */
(PID.TID 0000.0001)                 2.599949918261881E+05,      /* I =185 */
(PID.TID 0000.0001)                 2.491250781852558E+05,      /* I =186 */
(PID.TID 0000.0001)                 2.365892017348392E+05,      /* I =187 */
(PID.TID 0000.0001)                 2.220405216043041E+05,      /* I =188 */
(PID.TID 0000.0001)                 2.048868197919576E+05,      /* I =189 */
(PID.TID 0000.0001)                 1.840412227747703E+05,      /* I =190 */
(PID.TID 0000.0001)                 1.572908084538706E+05,      /* I =191 */
(PID.TID 0000.0001)                 1.202082051331828E+05       /* I =192 */
(PID.TID 0000.0001)     ;
(PID.TID 0000.0001) dyF =  /* dyF(1,:,1,:) ( units: m ) */
(PID.TID 0000.0001)                 1.202082051331828E+05,      /* J =  1 */
(PID.TID 0000.0001)                 1.563594089971120E+05,      /* J =  2 */
(PID.TID 0000.0001)                 1.835530058121492E+05,      /* J =  3 */
(PID.TID 0000.0001)                 2.045883481718707E+05,      /* J =  4 */
(PID.TID 0000.0001)                 2.218350349844185E+05,      /* J =  5 */
(PID.TID 0000.0001)                 2.364352994647058E+05,      /* J =  6 */
(PID.TID 0000.0001)                 2.490022710862746E+05,      /* J =  7 */
(PID.TID 0000.0001)                 2.598919724358304E+05,      /* J =  8 */
(PID.TID 0000.0001)                 2.693210245495156E+05,      /* J =  9 */
(PID.TID 0000.0001)                 2.774243179696503E+05,      /* J = 10 */
(PID.TID 0000.0001)                 2.842862532064524E+05,      /* J = 11 */
(PID.TID 0000.0001)                 2.899590699694043E+05,      /* J = 12 */
(PID.TID 0000.0001)                 2.944742915095688E+05,      /* J = 13 */
(PID.TID 0000.0001)                 2.978501920522794E+05,      /* J = 14 */
(PID.TID 0000.0001)                 3.000967749619962E+05,      /* J = 15 */
(PID.TID 0000.0001)     2 @  3.012190981969055E+05,             /* J = 16: 17 */
(PID.TID 0000.0001)                 3.000967749619962E+05,      /* J = 18 */
(PID.TID 0000.0001)                 2.978501920522794E+05,      /* J = 19 */
(PID.TID 0000.0001)                 2.944742915095688E+05,      /* J = 20 */
(PID.TID 0000.0001)                 2.899590699694043E+05,      /* J = 21 */
(PID.TID 0000.0001)                 2.842862532064524E+05,      /* J = 22 */
(PID.TID 0000.0001)                 2.774243179696503E+05,      /* J = 23 */
(PID.TID 0000.0001)                 2.693210245495156E+05,      /* J = 24 */
(PID.TID 0000.0001)                 2.598919724358304E+05,      /* J = 25 */
(PID.TID 0000.0001)                 2.490022710862746E+05,      /* J = 26 */
(PID.TID 0000.0001)                 2.364352994647058E+05,      /* J = 27 */
(PID.TID 0000.0001)                 2.218350349844185E+05,      /* J = 28 */
(PID.TID 0000.0001)                 2.045883481718707E+05,      /* J = 29 */
(PID.TID 0000.0001)                 1.835530058121492E+05,      /* J = 30 */
(PID.TID 0000.0001)                 1.563594089971120E+05,      /* J = 31 */
(PID.TID 0000.0001)                 1.202082051331828E+05       /* J = 32 */
(PID.TID 0000.0001)     ;
(PID.TID 0000.0001) dxG =  /* dxG(:,1,:,1) ( units: m ) */
(PID.TID 0000.0001)                 1.009837800879055E+05,      /* I =  1 */
(PID.TID 0000.0001)                 1.534505834330338E+05,      /* I =  2 */
(PID.TID 0000.0001)                 1.823321598773926E+05,      /* I =  3 */
(PID.TID 0000.0001)                 2.038999045536999E+05,      /* I =  4 */
(PID.TID 0000.0001)                 2.213884732245467E+05,      /* I =  5 */
(PID.TID 0000.0001)                 2.361211699596122E+05,      /* I =  6 */
(PID.TID 0000.0001)                 2.487693460283865E+05,      /* I =  7 */
(PID.TID 0000.0001)                 2.597126963772147E+05,      /* I =  8 */
(PID.TID 0000.0001)                 2.691790288994575E+05,      /* I =  9 */
(PID.TID 0000.0001)                 2.773091043277394E+05,      /* I = 10 */
(PID.TID 0000.0001)                 2.841906470085516E+05,      /* I = 11 */
(PID.TID 0000.0001)                 2.898778860929753E+05,      /* I = 12 */
(PID.TID 0000.0001)                 2.944035815526416E+05,      /* I = 13 */
(PID.TID 0000.0001)                 2.977867909042096E+05,      /* I = 14 */
(PID.TID 0000.0001)                 3.000380090330854E+05,      /* I = 15 */
(PID.TID 0000.0001)     2 @  3.011625828699101E+05,             /* I = 16: 17 */
(PID.TID 0000.0001)                 3.000380090330854E+05,      /* I = 18 */
(PID.TID 0000.0001)                 2.977867909042096E+05,      /* I = 19 */
(PID.TID 0000.0001)                 2.944035815526416E+05,      /* I = 20 */
(PID.TID 0000.0001)                 2.898778860929753E+05,      /* I = 21 */
(PID.TID 0000.0001)                 2.841906470085516E+05,      /* I = 22 */
(PID.TID 0000.0001)                 2.773091043277394E+05,      /* I = 23 */
(PID.TID 0000.0001)                 2.691790288994575E+05,      /* I = 24 */
(PID.TID 0000.0001)                 2.597126963772147E+05,      /* I = 25 */
(PID.TID 0000.0001)                 2.487693460283865E+05,      /* I = 26 */
(PID.TID 0000.0001)                 2.361211699596122E+05,      /* I = 27 */
(PID.TID 0000.0001)                 2.213884732245467E+05,      /* I = 28 */
(PID.TID 0000.0001)                 2.038999045536999E+05,      /* I = 29 */
(PID.TID 0000.0001)                 1.823321598773926E+05,      /* I = 30 */
(PID.TID 0000.0001)                 1.534505834330338E+05,      /* I = 31 */
(PID.TID 0000.0001)     2 @  1.009837800879055E+05,             /* I = 32: 33 */
(PID.TID 0000.0001)                 1.534505834330338E+05,      /* I = 34 */
(PID.TID 0000.0001)                 1.823321598773926E+05,      /* I = 35 */
(PID.TID 0000.0001)                 2.038999045536999E+05,      /* I = 36 */
(PID.TID 0000.0001)                 2.213884732245467E+05,      /* I = 37 */
(PID.TID 0000.0001)                 2.361211699596122E+05,      /* I = 38 */
(PID.TID 0000.0001)                 2.487693460283865E+05,      /* I = 39 */
(PID.TID 0000.0001)                 2.597126963772147E+05,      /* I = 40 */
(PID.TID 0000.0001)                 2.691790288994575E+05,      /* I = 41 */
(PID.TID 0000.0001)                 2.773091043277394E+05,      /* I = 42 */
(PID.TID 0000.0001)                 2.841906470085516E+05,      /* I = 43 */
(PID.TID 0000.0001)                 2.898778860929753E+05,      /* I = 44 */
(PID.TID 0000.0001)                 2.944035815526416E+05,      /* I = 45 */
(PID.TID 0000.0001)                 2.977867909042096E+05,      /* I = 46 */
(PID.TID 0000.0001)                 3.000380090330854E+05,      /* I = 47 */
(PID.TID 0000.0001)     2 @  3.011625828699101E+05,             /* I = 48: 49 */
(PID.TID 0000.0001)                 3.000380090330854E+05,      /* I = 50 */
(PID.TID 0000.0001)                 2.977867909042096E+05,      /* I = 51 */
(PID.TID 0000.0001)                 2.944035815526416E+05,      /* I = 52 */
(PID.TID 0000.0001)                 2.898778860929753E+05,      /* I = 53 */
(PID.TID 0000.0001)                 2.841906470085516E+05,      /* I = 54 */
(PID.TID 0000.0001)                 2.773091043277394E+05,      /* I = 55 */
(PID.TID 0000.0001)                 2.691790288994575E+05,      /* I = 56 */
(PID.TID 0000.0001)                 2.597126963772147E+05,      /* I = 57 */
(PID.TID 0000.0001)                 2.487693460283865E+05,      /* I = 58 */
(PID.TID 0000.0001)                 2.361211699596122E+05,      /* I = 59 */
(PID.TID 0000.0001)                 2.213884732245467E+05,      /* I = 60 */
(PID.TID 0000.0001)                 2.038999045536999E+05,      /* I = 61 */
(PID.TID 0000.0001)                 1.823321598773926E+05,      /* I = 62 */
(PID.TID 0000.0001)                 1.534505834330338E+05,      /* I = 63 */
(PID.TID 0000.0001)     2 @  1.009837800879055E+05,             /* I = 64: 65 */
(PID.TID 0000.0001)                 1.534505834330338E+05,      /* I = 66 */
(PID.TID 0000.0001)                 1.823321598773926E+05,      /* I = 67 */
(PID.TID 0000.0001)                 2.038999045536999E+05,      /* I = 68 */
(PID.TID 0000.0001)                 2.213884732245467E+05,      /* I = 69 */
(PID.TID 0000.0001)                 2.361211699596122E+05,      /* I = 70 */
(PID.TID 0000.0001)                 2.487693460283865E+05,      /* I = 71 */
(PID.TID 0000.0001)                 2.597126963772147E+05,      /* I = 72 */
(PID.TID 0000.0001)                 2.691790288994575E+05,      /* I = 73 */
(PID.TID 0000.0001)                 2.773091043277394E+05,      /* I = 74 */
(PID.TID 0000.0001)                 2.841906470085516E+05,      /* I = 75 */
(PID.TID 0000.0001)                 2.898778860929753E+05,      /* I = 76 */
(PID.TID 0000.0001)                 2.944035815526416E+05,      /* I = 77 */
(PID.TID 0000.0001)                 2.977867909042096E+05,      /* I = 78 */
(PID.TID 0000.0001)                 3.000380090330854E+05,      /* I = 79 */
(PID.TID 0000.0001)     2 @  3.011625828699101E+05,             /* I = 80: 81 */
(PID.TID 0000.0001)                 3.000380090330854E+05,      /* I = 82 */
(PID.TID 0000.0001)                 2.977867909042096E+05,      /* I = 83 */
(PID.TID 0000.0001)                 2.944035815526416E+05,      /* I = 84 */
(PID.TID 0000.0001)                 2.898778860929753E+05,      /* I = 85 */
(PID.TID 0000.0001)                 2.841906470085516E+05,      /* I = 86 */
(PID.TID 0000.0001)                 2.773091043277394E+05,      /* I = 87 */
(PID.TID 0000.0001)                 2.691790288994575E+05,      /* I = 88 */
(PID.TID 0000.0001)                 2.597126963772147E+05,      /* I = 89 */
(PID.TID 0000.0001)                 2.487693460283865E+05,      /* I = 90 */
(PID.TID 0000.0001)                 2.361211699596122E+05,      /* I = 91 */
(PID.TID 0000.0001)                 2.213884732245467E+05,      /* I = 92 */
(PID.TID 0000.0001)                 2.038999045536999E+05,      /* I = 93 */
(PID.TID 0000.0001)                 1.823321598773926E+05,      /* I = 94 */
(PID.TID 0000.0001)                 1.534505834330338E+05,      /* I = 95 */
(PID.TID 0000.0001)     2 @  1.009837800879055E+05,             /* I = 96: 97 */
(PID.TID 0000.0001)                 1.534505834330338E+05,      /* I = 98 */
(PID.TID 0000.0001)                 1.823321598773926E+05,      /* I = 99 */
(PID.TID 0000.0001)                 2.038999045536999E+05,      /* I =100 */
(PID.TID 0000.0001)                 2.213884732245467E+05,      /* I =101 */
(PID.TID 0000.0001)                 2.361211699596122E+05,      /* I =102 */
(PID.TID 0000.0001)                 2.487693460283865E+05,      /* I =103 */
(PID.TID 0000.0001)                 2.597126963772147E+05,      /* I =104 */
(PID.TID 0000.0001)                 2.691790288994575E+05,      /* I =105 */
(PID.TID 0000.0001)                 2.773091043277394E+05,      /* I =106 */
(PID.TID 0000.0001)                 2.841906470085516E+05,      /* I =107 */
(PID.TID 0000.0001)                 2.898778860929753E+05,      /* I =108 */
(PID.TID 0000.0001)                 2.944035815526416E+05,      /* I =109 */
(PID.TID 0000.0001)                 2.977867909042096E+05,      /* I =110 */
(PID.TID 0000.0001)                 3.000380090330854E+05,      /* I =111 */
(PID.TID 0000.0001)     2 @  3.011625828699101E+05,             /* I =112:113 */
(PID.TID 0000.0001)                 3.000380090330854E+05,      /* I =114 */
(PID.TID 0000.0001)                 2.977867909042096E+05,      /* I =115 */
(PID.TID 0000.0001)                 2.944035815526416E+05,      /* I =116 */
(PID.TID 0000.0001)                 2.898778860929753E+05,      /* I =117 */
(PID.TID 0000.0001)                 2.841906470085516E+05,      /* I =118 */
(PID.TID 0000.0001)                 2.773091043277394E+05,      /* I =119 */
(PID.TID 0000.0001)                 2.691790288994575E+05,      /* I =120 */
(PID.TID 0000.0001)                 2.597126963772147E+05,      /* I =121 */
(PID.TID 0000.0001)                 2.487693460283865E+05,      /* I =122 */
(PID.TID 0000.0001)                 2.361211699596122E+05,      /* I =123 */
(PID.TID 0000.0001)                 2.213884732245467E+05,      /* I =124 */
(PID.TID 0000.0001)                 2.038999045536999E+05,      /* I =125 */
(PID.TID 0000.0001)                 1.823321598773926E+05,      /* I =126 */
(PID.TID 0000.0001)                 1.534505834330338E+05,      /* I =127 */
(PID.TID 0000.0001)     2 @  1.009837800879055E+05,             /* I =128:129 */
(PID.TID 0000.0001)                 1.534505834330338E+05,      /* I =130 */
(PID.TID 0000.0001)                 1.823321598773926E+05,      /* I =131 */
(PID.TID 0000.0001)                 2.038999045536999E+05,      /* I =132 */
(PID.TID 0000.0001)                 2.213884732245467E+05,      /* I =133 */
(PID.TID 0000.0001)                 2.361211699596122E+05,      /* I =134 */
(PID.TID 0000.0001)                 2.487693460283865E+05,      /* I =135 */
(PID.TID 0000.0001)                 2.597126963772147E+05,      /* I =136 */
(PID.TID 0000.0001)                 2.691790288994575E+05,      /* I =137 */
(PID.TID 0000.0001)                 2.773091043277394E+05,      /* I =138 */
(PID.TID 0000.0001)                 2.841906470085516E+05,      /* I =139 */
(PID.TID 0000.0001)                 2.898778860929753E+05,      /* I =140 */
(PID.TID 0000.0001)                 2.944035815526416E+05,      /* I =141 */
(PID.TID 0000.0001)                 2.977867909042096E+05,      /* I =142 */
(PID.TID 0000.0001)                 3.000380090330854E+05,      /* I =143 */
(PID.TID 0000.0001)     2 @  3.011625828699101E+05,             /* I =144:145 */
(PID.TID 0000.0001)                 3.000380090330854E+05,      /* I =146 */
(PID.TID 0000.0001)                 2.977867909042096E+05,      /* I =147 */
(PID.TID 0000.0001)                 2.944035815526416E+05,      /* I =148 */
(PID.TID 0000.0001)                 2.898778860929753E+05,      /* I =149 */
(PID.TID 0000.0001)                 2.841906470085516E+05,      /* I =150 */
(PID.TID 0000.0001)                 2.773091043277394E+05,      /* I =151 */
(PID.TID 0000.0001)                 2.691790288994575E+05,      /* I =152 */
(PID.TID 0000.0001)                 2.597126963772147E+05,      /* I =153 */
(PID.TID 0000.0001)                 2.487693460283865E+05,      /* I =154 */
(PID.TID 0000.0001)                 2.361211699596122E+05,      /* I =155 */
(PID.TID 0000.0001)                 2.213884732245467E+05,      /* I =156 */
(PID.TID 0000.0001)                 2.038999045536999E+05,      /* I =157 */
(PID.TID 0000.0001)                 1.823321598773926E+05,      /* I =158 */
(PID.TID 0000.0001)                 1.534505834330338E+05,      /* I =159 */
(PID.TID 0000.0001)     2 @  1.009837800879055E+05,             /* I =160:161 */
(PID.TID 0000.0001)                 1.534505834330338E+05,      /* I =162 */
(PID.TID 0000.0001)                 1.823321598773926E+05,      /* I =163 */
(PID.TID 0000.0001)                 2.038999045536999E+05,      /* I =164 */
(PID.TID 0000.0001)                 2.213884732245467E+05,      /* I =165 */
(PID.TID 0000.0001)                 2.361211699596122E+05,      /* I =166 */
(PID.TID 0000.0001)                 2.487693460283865E+05,      /* I =167 */
(PID.TID 0000.0001)                 2.597126963772147E+05,      /* I =168 */
(PID.TID 0000.0001)                 2.691790288994575E+05,      /* I =169 */
(PID.TID 0000.0001)                 2.773091043277394E+05,      /* I =170 */
(PID.TID 0000.0001)                 2.841906470085516E+05,      /* I =171 */
(PID.TID 0000.0001)                 2.898778860929753E+05,      /* I =172 */
(PID.TID 0000.0001)                 2.944035815526416E+05,      /* I =173 */
(PID.TID 0000.0001)                 2.977867909042096E+05,      /* I =174 */
(PID.TID 0000.0001)                 3.000380090330854E+05,      /* I =175 */
(PID.TID 0000.0001)     2 @  3.011625828699101E+05,             /* I =176:177 */
(PID.TID 0000.0001)                 3.000380090330854E+05,      /* I =178 */
(PID.TID 0000.0001)                 2.977867909042096E+05,      /* I =179 */
(PID.TID 0000.0001)                 2.944035815526416E+05,      /* I =180 */
(PID.TID 0000.0001)                 2.898778860929753E+05,      /* I =181 */
(PID.TID 0000.0001)                 2.841906470085516E+05,      /* I =182 */
(PID.TID 0000.0001)                 2.773091043277394E+05,      /* I =183 */
(PID.TID 0000.0001)                 2.691790288994575E+05,      /* I =184 */
(PID.TID 0000.0001)                 2.597126963772147E+05,      /* I =185 */
(PID.TID 0000.0001)                 2.487693460283865E+05,      /* I =186 */
(PID.TID 0000.0001)                 2.361211699596122E+05,      /* I =187 */
(PID.TID 0000.0001)                 2.213884732245467E+05,      /* I =188 */
(PID.TID 0000.0001)                 2.038999045536999E+05,      /* I =189 */
(PID.TID 0000.0001)                 1.823321598773926E+05,      /* I =190 */
(PID.TID 0000.0001)                 1.534505834330338E+05,      /* I =191 */
(PID.TID 0000.0001)                 1.009837800879055E+05       /* I =192 */
(PID.TID 0000.0001)     ;
(PID.TID 0000.0001) dxG =  /* dxG(1,:,1,:) ( units: m ) */
(PID.TID 0000.0001)                 1.009837800879055E+05,      /* J =  1 */
(PID.TID 0000.0001)                 1.403701524205398E+05,      /* J =  2 */
(PID.TID 0000.0001)                 1.716197227386011E+05,      /* J =  3 */
(PID.TID 0000.0001)                 1.950254041626018E+05,      /* J =  4 */
(PID.TID 0000.0001)                 2.138410773065497E+05,      /* J =  5 */
(PID.TID 0000.0001)                 2.295958105911512E+05,      /* J =  6 */
(PID.TID 0000.0001)                 2.430829951739083E+05,      /* J =  7 */
(PID.TID 0000.0001)                 2.547526806712889E+05,      /* J =  8 */
(PID.TID 0000.0001)                 2.648750305193301E+05,      /* J =  9 */
(PID.TID 0000.0001)                 2.736173771018112E+05,      /* J = 10 */
(PID.TID 0000.0001)                 2.810845823202647E+05,      /* J = 11 */
(PID.TID 0000.0001)                 2.873420591008078E+05,      /* J = 12 */
(PID.TID 0000.0001)                 2.924298293668651E+05,      /* J = 13 */
(PID.TID 0000.0001)                 2.963715635865306E+05,      /* J = 14 */
(PID.TID 0000.0001)                 2.991805843171258E+05,      /* J = 15 */
(PID.TID 0000.0001)                 3.008638765647886E+05,      /* J = 16 */
(PID.TID 0000.0001)                 3.014246674484008E+05,      /* J = 17 */
(PID.TID 0000.0001)                 3.008638765647886E+05,      /* J = 18 */
(PID.TID 0000.0001)                 2.991805843171258E+05,      /* J = 19 */
(PID.TID 0000.0001)                 2.963715635865306E+05,      /* J = 20 */
(PID.TID 0000.0001)                 2.924298293668651E+05,      /* J = 21 */
(PID.TID 0000.0001)                 2.873420591008078E+05,      /* J = 22 */
(PID.TID 0000.0001)                 2.810845823202647E+05,      /* J = 23 */
(PID.TID 0000.0001)                 2.736173771018112E+05,      /* J = 24 */
(PID.TID 0000.0001)                 2.648750305193301E+05,      /* J = 25 */
(PID.TID 0000.0001)                 2.547526806712889E+05,      /* J = 26 */
(PID.TID 0000.0001)                 2.430829951739083E+05,      /* J = 27 */
(PID.TID 0000.0001)                 2.295958105911512E+05,      /* J = 28 */
(PID.TID 0000.0001)                 2.138410773065497E+05,      /* J = 29 */
(PID.TID 0000.0001)                 1.950254041626018E+05,      /* J = 30 */
(PID.TID 0000.0001)                 1.716197227386011E+05,      /* J = 31 */
(PID.TID 0000.0001)                 1.403701524205398E+05       /* J = 32 */
(PID.TID 0000.0001)     ;
(PID.TID 0000.0001) dyG =  /* dyG(:,1,:,1) ( units: m ) */
(PID.TID 0000.0001)                 1.009837800879055E+05,      /* I =  1 */
(PID.TID 0000.0001)                 1.403701524205398E+05,      /* I =  2 */
(PID.TID 0000.0001)                 1.716197227386011E+05,      /* I =  3 */
(PID.TID 0000.0001)                 1.950254041626018E+05,      /* I =  4 */
(PID.TID 0000.0001)                 2.138410773065497E+05,      /* I =  5 */
(PID.TID 0000.0001)                 2.295958105911512E+05,      /* I =  6 */
(PID.TID 0000.0001)                 2.430829951739083E+05,      /* I =  7 */
(PID.TID 0000.0001)                 2.547526806712889E+05,      /* I =  8 */
(PID.TID 0000.0001)                 2.648750305193301E+05,      /* I =  9 */
(PID.TID 0000.0001)                 2.736173771018112E+05,      /* I = 10 */
(PID.TID 0000.0001)                 2.810845823202647E+05,      /* I = 11 */
(PID.TID 0000.0001)                 2.873420591008078E+05,      /* I = 12 */
(PID.TID 0000.0001)                 2.924298293668651E+05,      /* I = 13 */
(PID.TID 0000.0001)                 2.963715635865306E+05,      /* I = 14 */
(PID.TID 0000.0001)                 2.991805843171258E+05,      /* I = 15 */
(PID.TID 0000.0001)                 3.008638765647886E+05,      /* I = 16 */
(PID.TID 0000.0001)                 3.014246674484008E+05,      /* I = 17 */
(PID.TID 0000.0001)                 3.008638765647886E+05,      /* I = 18 */
(PID.TID 0000.0001)                 2.991805843171258E+05,      /* I = 19 */
(PID.TID 0000.0001)                 2.963715635865306E+05,      /* I = 20 */
(PID.TID 0000.0001)                 2.924298293668651E+05,      /* I = 21 */
(PID.TID 0000.0001)                 2.873420591008078E+05,      /* I = 22 */
(PID.TID 0000.0001)                 2.810845823202647E+05,      /* I = 23 */
(PID.TID 0000.0001)                 2.736173771018112E+05,      /* I = 24 */
(PID.TID 0000.0001)                 2.648750305193301E+05,      /* I = 25 */
(PID.TID 0000.0001)                 2.547526806712889E+05,      /* I = 26 */
(PID.TID 0000.0001)                 2.430829951739083E+05,      /* I = 27 */
(PID.TID 0000.0001)                 2.295958105911512E+05,      /* I = 28 */
(PID.TID 0000.0001)                 2.138410773065497E+05,      /* I = 29 */
(PID.TID 0000.0001)                 1.950254041626018E+05,      /* I = 30 */
(PID.TID 0000.0001)                 1.716197227386011E+05,      /* I = 31 */
(PID.TID 0000.0001)                 1.403701524205398E+05,      /* I = 32 */
(PID.TID 0000.0001)                 1.009837800879055E+05,      /* I = 33 */
(PID.TID 0000.0001)                 1.403701524205398E+05,      /* I = 34 */
(PID.TID 0000.0001)                 1.716197227386011E+05,      /* I = 35 */
(PID.TID 0000.0001)                 1.950254041626018E+05,      /* I = 36 */
(PID.TID 0000.0001)                 2.138410773065497E+05,      /* I = 37 */
(PID.TID 0000.0001)                 2.295958105911512E+05,      /* I = 38 */
(PID.TID 0000.0001)                 2.430829951739083E+05,      /* I = 39 */
(PID.TID 0000.0001)                 2.547526806712889E+05,      /* I = 40 */
(PID.TID 0000.0001)                 2.648750305193301E+05,      /* I = 41 */
(PID.TID 0000.0001)                 2.736173771018112E+05,      /* I = 42 */
(PID.TID 0000.0001)                 2.810845823202647E+05,      /* I = 43 */
(PID.TID 0000.0001)                 2.873420591008078E+05,      /* I = 44 */
(PID.TID 0000.0001)                 2.924298293668651E+05,      /* I = 45 */
(PID.TID 0000.0001)                 2.963715635865306E+05,      /* I = 46 */
(PID.TID 0000.0001)                 2.991805843171258E+05,      /* I = 47 */
(PID.TID 0000.0001)                 3.008638765647886E+05,      /* I = 48 */
(PID.TID 0000.0001)                 3.014246674484008E+05,      /* I = 49 */
(PID.TID 0000.0001)                 3.008638765647886E+05,      /* I = 50 */
(PID.TID 0000.0001)                 2.991805843171258E+05,      /* I = 51 */
(PID.TID 0000.0001)                 2.963715635865306E+05,      /* I = 52 */
(PID.TID 0000.0001)                 2.924298293668651E+05,      /* I = 53 */
(PID.TID 0000.0001)                 2.873420591008078E+05,      /* I = 54 */
(PID.TID 0000.0001)                 2.810845823202647E+05,      /* I = 55 */
(PID.TID 0000.0001)                 2.736173771018112E+05,      /* I = 56 */
(PID.TID 0000.0001)                 2.648750305193301E+05,      /* I = 57 */
(PID.TID 0000.0001)                 2.547526806712889E+05,      /* I = 58 */
(PID.TID 0000.0001)                 2.430829951739083E+05,      /* I = 59 */
(PID.TID 0000.0001)                 2.295958105911512E+05,      /* I = 60 */
(PID.TID 0000.0001)                 2.138410773065497E+05,      /* I = 61 */
(PID.TID 0000.0001)                 1.950254041626018E+05,      /* I = 62 */
(PID.TID 0000.0001)                 1.716197227386011E+05,      /* I = 63 */
(PID.TID 0000.0001)                 1.403701524205398E+05,      /* I = 64 */
(PID.TID 0000.0001)                 1.009837800879055E+05,      /* I = 65 */
(PID.TID 0000.0001)                 1.403701524205398E+05,      /* I = 66 */
(PID.TID 0000.0001)                 1.716197227386011E+05,      /* I = 67 */
(PID.TID 0000.0001)                 1.950254041626018E+05,      /* I = 68 */
(PID.TID 0000.0001)                 2.138410773065497E+05,      /* I = 69 */
(PID.TID 0000.0001)                 2.295958105911512E+05,      /* I = 70 */
(PID.TID 0000.0001)                 2.430829951739083E+05,      /* I = 71 */
(PID.TID 0000.0001)                 2.547526806712889E+05,      /* I = 72 */
(PID.TID 0000.0001)                 2.648750305193301E+05,      /* I = 73 */
(PID.TID 0000.0001)                 2.736173771018112E+05,      /* I = 74 */
(PID.TID 0000.0001)                 2.810845823202647E+05,      /* I = 75 */
(PID.TID 0000.0001)                 2.873420591008078E+05,      /* I = 76 */
(PID.TID 0000.0001)                 2.924298293668651E+05,      /* I = 77 */
(PID.TID 0000.0001)                 2.963715635865306E+05,      /* I = 78 */
(PID.TID 0000.0001)                 2.991805843171258E+05,      /* I = 79 */
(PID.TID 0000.0001)                 3.008638765647886E+05,      /* I = 80 */
(PID.TID 0000.0001)                 3.014246674484008E+05,      /* I = 81 */
(PID.TID 0000.0001)                 3.008638765647886E+05,      /* I = 82 */
(PID.TID 0000.0001)                 2.991805843171258E+05,      /* I = 83 */
(PID.TID 0000.0001)                 2.963715635865306E+05,      /* I = 84 */
(PID.TID 0000.0001)                 2.924298293668651E+05,      /* I = 85 */
(PID.TID 0000.0001)                 2.873420591008078E+05,      /* I = 86 */
(PID.TID 0000.0001)                 2.810845823202647E+05,      /* I = 87 */
(PID.TID 0000.0001)                 2.736173771018112E+05,      /* I = 88 */
(PID.TID 0000.0001)                 2.648750305193301E+05,      /* I = 89 */
(PID.TID 0000.0001)                 2.547526806712889E+05,      /* I = 90 */
(PID.TID 0000.0001)                 2.430829951739083E+05,      /* I = 91 */
(PID.TID 0000.0001)                 2.295958105911512E+05,      /* I = 92 */
(PID.TID 0000.0001)                 2.138410773065497E+05,      /* I = 93 */
(PID.TID 0000.0001)                 1.950254041626018E+05,      /* I = 94 */
(PID.TID 0000.0001)                 1.716197227386011E+05,      /* I = 95 */
(PID.TID 0000.0001)                 1.403701524205398E+05,      /* I = 96 */
(PID.TID 0000.0001)                 1.009837800879055E+05,      /* I = 97 */
(PID.TID 0000.0001)                 1.403701524205398E+05,      /* I = 98 */
(PID.TID 0000.0001)                 1.716197227386011E+05,      /* I = 99 */
(PID.TID 0000.0001)                 1.950254041626018E+05,      /* I =100 */
(PID.TID 0000.0001)                 2.138410773065497E+05,      /* I =101 */
(PID.TID 0000.0001)                 2.295958105911512E+05,      /* I =102 */
(PID.TID 0000.0001)                 2.430829951739083E+05,      /* I =103 */
(PID.TID 0000.0001)                 2.547526806712889E+05,      /* I =104 */
(PID.TID 0000.0001)                 2.648750305193301E+05,      /* I =105 */
(PID.TID 0000.0001)                 2.736173771018112E+05,      /* I =106 */
(PID.TID 0000.0001)                 2.810845823202647E+05,      /* I =107 */
(PID.TID 0000.0001)                 2.873420591008078E+05,      /* I =108 */
(PID.TID 0000.0001)                 2.924298293668651E+05,      /* I =109 */
(PID.TID 0000.0001)                 2.963715635865306E+05,      /* I =110 */
(PID.TID 0000.0001)                 2.991805843171258E+05,      /* I =111 */
(PID.TID 0000.0001)                 3.008638765647886E+05,      /* I =112 */
(PID.TID 0000.0001)                 3.014246674484008E+05,      /* I =113 */
(PID.TID 0000.0001)                 3.008638765647886E+05,      /* I =114 */
(PID.TID 0000.0001)                 2.991805843171258E+05,      /* I =115 */
(PID.TID 0000.0001)                 2.963715635865306E+05,      /* I =116 */
(PID.TID 0000.0001)                 2.924298293668651E+05,      /* I =117 */
(PID.TID 0000.0001)                 2.873420591008078E+05,      /* I =118 */
(PID.TID 0000.0001)                 2.810845823202647E+05,      /* I =119 */
(PID.TID 0000.0001)                 2.736173771018112E+05,      /* I =120 */
(PID.TID 0000.0001)                 2.648750305193301E+05,      /* I =121 */
(PID.TID 0000.0001)                 2.547526806712889E+05,      /* I =122 */
(PID.TID 0000.0001)                 2.430829951739083E+05,      /* I =123 */
(PID.TID 0000.0001)                 2.295958105911512E+05,      /* I =124 */
(PID.TID 0000.0001)                 2.138410773065497E+05,      /* I =125 */
(PID.TID 0000.0001)                 1.950254041626018E+05,      /* I =126 */
(PID.TID 0000.0001)                 1.716197227386011E+05,      /* I =127 */
(PID.TID 0000.0001)                 1.403701524205398E+05,      /* I =128 */
(PID.TID 0000.0001)                 1.009837800879055E+05,      /* I =129 */
(PID.TID 0000.0001)                 1.403701524205398E+05,      /* I =130 */
(PID.TID 0000.0001)                 1.716197227386011E+05,      /* I =131 */
(PID.TID 0000.0001)                 1.950254041626018E+05,      /* I =132 */
(PID.TID 0000.0001)                 2.138410773065497E+05,      /* I =133 */
(PID.TID 0000.0001)                 2.295958105911512E+05,      /* I =134 */
(PID.TID 0000.0001)                 2.430829951739083E+05,      /* I =135 */
(PID.TID 0000.0001)                 2.547526806712889E+05,      /* I =136 */
(PID.TID 0000.0001)                 2.648750305193301E+05,      /* I =137 */
(PID.TID 0000.0001)                 2.736173771018112E+05,      /* I =138 */
(PID.TID 0000.0001)                 2.810845823202647E+05,      /* I =139 */
(PID.TID 0000.0001)                 2.873420591008078E+05,      /* I =140 */
(PID.TID 0000.0001)                 2.924298293668651E+05,      /* I =141 */
(PID.TID 0000.0001)                 2.963715635865306E+05,      /* I =142 */
(PID.TID 0000.0001)                 2.991805843171258E+05,      /* I =143 */
(PID.TID 0000.0001)                 3.008638765647886E+05,      /* I =144 */
(PID.TID 0000.0001)                 3.014246674484008E+05,      /* I =145 */
(PID.TID 0000.0001)                 3.008638765647886E+05,      /* I =146 */
(PID.TID 0000.0001)                 2.991805843171258E+05,      /* I =147 */
(PID.TID 0000.0001)                 2.963715635865306E+05,      /* I =148 */
(PID.TID 0000.0001)                 2.924298293668651E+05,      /* I =149 */
(PID.TID 0000.0001)                 2.873420591008078E+05,      /* I =150 */
(PID.TID 0000.0001)                 2.810845823202647E+05,      /* I =151 */
(PID.TID 0000.0001)                 2.736173771018112E+05,      /* I =152 */
(PID.TID 0000.0001)                 2.648750305193301E+05,      /* I =153 */
(PID.TID 0000.0001)                 2.547526806712889E+05,      /* I =154 */
(PID.TID 0000.0001)                 2.430829951739083E+05,      /* I =155 */
(PID.TID 0000.0001)                 2.295958105911512E+05,      /* I =156 */
(PID.TID 0000.0001)                 2.138410773065497E+05,      /* I =157 */
(PID.TID 0000.0001)                 1.950254041626018E+05,      /* I =158 */
(PID.TID 0000.0001)                 1.716197227386011E+05,      /* I =159 */
(PID.TID 0000.0001)                 1.403701524205398E+05,      /* I =160 */
(PID.TID 0000.0001)                 1.009837800879055E+05,      /* I =161 */
(PID.TID 0000.0001)                 1.403701524205398E+05,      /* I =162 */
(PID.TID 0000.0001)                 1.716197227386011E+05,      /* I =163 */
(PID.TID 0000.0001)                 1.950254041626018E+05,      /* I =164 */
(PID.TID 0000.0001)                 2.138410773065497E+05,      /* I =165 */
(PID.TID 0000.0001)                 2.295958105911512E+05,      /* I =166 */
(PID.TID 0000.0001)                 2.430829951739083E+05,      /* I =167 */
(PID.TID 0000.0001)                 2.547526806712889E+05,      /* I =168 */
(PID.TID 0000.0001)                 2.648750305193301E+05,      /* I =169 */
(PID.TID 0000.0001)                 2.736173771018112E+05,      /* I =170 */
(PID.TID 0000.0001)                 2.810845823202647E+05,      /* I =171 */
(PID.TID 0000.0001)                 2.873420591008078E+05,      /* I =172 */
(PID.TID 0000.0001)                 2.924298293668651E+05,      /* I =173 */
(PID.TID 0000.0001)                 2.963715635865306E+05,      /* I =174 */
(PID.TID 0000.0001)                 2.991805843171258E+05,      /* I =175 */
(PID.TID 0000.0001)                 3.008638765647886E+05,      /* I =176 */
(PID.TID 0000.0001)                 3.014246674484008E+05,      /* I =177 */
(PID.TID 0000.0001)                 3.008638765647886E+05,      /* I =178 */
(PID.TID 0000.0001)                 2.991805843171258E+05,      /* I =179 */
(PID.TID 0000.0001)                 2.963715635865306E+05,      /* I =180 */
(PID.TID 0000.0001)                 2.924298293668651E+05,      /* I =181 */
(PID.TID 0000.0001)                 2.873420591008078E+05,      /* I =182 */
(PID.TID 0000.0001)                 2.810845823202647E+05,      /* I =183 */
(PID.TID 0000.0001)                 2.736173771018112E+05,      /* I =184 */
(PID.TID 0000.0001)                 2.648750305193301E+05,      /* I =185 */
(PID.TID 0000.0001)                 2.547526806712889E+05,      /* I =186 */
(PID.TID 0000.0001)                 2.430829951739083E+05,      /* I =187 */
(PID.TID 0000.0001)                 2.295958105911512E+05,      /* I =188 */
(PID.TID 0000.0001)                 2.138410773065497E+05,      /* I =189 */
(PID.TID 0000.0001)                 1.950254041626018E+05,      /* I =190 */
(PID.TID 0000.0001)                 1.716197227386011E+05,      /* I =191 */
(PID.TID 0000.0001)                 1.403701524205398E+05       /* I =192 */
(PID.TID 0000.0001)     ;
(PID.TID 0000.0001) dyG =  /* dyG(1,:,1,:) ( units: m ) */
(PID.TID 0000.0001)                 1.009837800879055E+05,      /* J =  1 */
(PID.TID 0000.0001)                 1.534505834330338E+05,      /* J =  2 */
(PID.TID 0000.0001)                 1.823321598773926E+05,      /* J =  3 */
(PID.TID 0000.0001)                 2.038999045536999E+05,      /* J =  4 */
(PID.TID 0000.0001)                 2.213884732245467E+05,      /* J =  5 */
(PID.TID 0000.0001)                 2.361211699596122E+05,      /* J =  6 */
(PID.TID 0000.0001)                 2.487693460283865E+05,      /* J =  7 */
(PID.TID 0000.0001)                 2.597126963772147E+05,      /* J =  8 */
(PID.TID 0000.0001)                 2.691790288994575E+05,      /* J =  9 */
(PID.TID 0000.0001)                 2.773091043277394E+05,      /* J = 10 */
(PID.TID 0000.0001)                 2.841906470085516E+05,      /* J = 11 */
(PID.TID 0000.0001)                 2.898778860929753E+05,      /* J = 12 */
(PID.TID 0000.0001)                 2.944035815526416E+05,      /* J = 13 */
(PID.TID 0000.0001)                 2.977867909042096E+05,      /* J = 14 */
(PID.TID 0000.0001)                 3.000380090330854E+05,      /* J = 15 */
(PID.TID 0000.0001)     2 @  3.011625828699101E+05,             /* J = 16: 17 */
(PID.TID 0000.0001)                 3.000380090330854E+05,      /* J = 18 */
(PID.TID 0000.0001)                 2.977867909042096E+05,      /* J = 19 */
(PID.TID 0000.0001)                 2.944035815526416E+05,      /* J = 20 */
(PID.TID 0000.0001)                 2.898778860929753E+05,      /* J = 21 */
(PID.TID 0000.0001)                 2.841906470085516E+05,      /* J = 22 */
(PID.TID 0000.0001)                 2.773091043277394E+05,      /* J = 23 */
(PID.TID 0000.0001)                 2.691790288994575E+05,      /* J = 24 */
(PID.TID 0000.0001)                 2.597126963772147E+05,      /* J = 25 */
(PID.TID 0000.0001)                 2.487693460283865E+05,      /* J = 26 */
(PID.TID 0000.0001)                 2.361211699596122E+05,      /* J = 27 */
(PID.TID 0000.0001)                 2.213884732245467E+05,      /* J = 28 */
(PID.TID 0000.0001)                 2.038999045536999E+05,      /* J = 29 */
(PID.TID 0000.0001)                 1.823321598773926E+05,      /* J = 30 */
(PID.TID 0000.0001)                 1.534505834330338E+05,      /* J = 31 */
(PID.TID 0000.0001)                 1.009837800879055E+05       /* J = 32 */
(PID.TID 0000.0001)     ;
(PID.TID 0000.0001) dxC =  /* dxC(:,1,:,1) ( units: m ) */
(PID.TID 0000.0001)                 1.114203141013064E+05,      /* I =  1 */
(PID.TID 0000.0001)                 1.391343389937106E+05,      /* I =  2 */
(PID.TID 0000.0001)                 1.709574999026266E+05,      /* I =  3 */
(PID.TID 0000.0001)                 1.946503699269892E+05,      /* I =  4 */
(PID.TID 0000.0001)                 2.135964483342134E+05,      /* I =  5 */
(PID.TID 0000.0001)                 2.294195678257306E+05,      /* I =  6 */
(PID.TID 0000.0001)                 2.429464709770498E+05,      /* I =  7 */
(PID.TID 0000.0001)                 2.546408290696998E+05,      /* I =  8 */
(PID.TID 0000.0001)                 2.647791839299727E+05,      /* I =  9 */
(PID.TID 0000.0001)                 2.735321911346108E+05,      /* I = 10 */
(PID.TID 0000.0001)                 2.810065951609633E+05,      /* I = 11 */
(PID.TID 0000.0001)                 2.872689479506990E+05,      /* I = 12 */
(PID.TID 0000.0001)                 2.923599955312932E+05,      /* I = 13 */
(PID.TID 0000.0001)                 2.963038832565530E+05,      /* I = 14 */
(PID.TID 0000.0001)                 2.991142470004740E+05,      /* I = 15 */
(PID.TID 0000.0001)                 3.007982711627968E+05,      /* I = 16 */
(PID.TID 0000.0001)                 3.013593857228136E+05,      /* I = 17 */
(PID.TID 0000.0001)                 3.007982711627968E+05,      /* I = 18 */
(PID.TID 0000.0001)                 2.991142470004740E+05,      /* I = 19 */
(PID.TID 0000.0001)                 2.963038832565530E+05,      /* I = 20 */
(PID.TID 0000.0001)                 2.923599955312932E+05,      /* I = 21 */
(PID.TID 0000.0001)                 2.872689479506990E+05,      /* I = 22 */
(PID.TID 0000.0001)                 2.810065951609633E+05,      /* I = 23 */
(PID.TID 0000.0001)                 2.735321911346108E+05,      /* I = 24 */
(PID.TID 0000.0001)                 2.647791839299727E+05,      /* I = 25 */
(PID.TID 0000.0001)                 2.546408290696998E+05,      /* I = 26 */
(PID.TID 0000.0001)                 2.429464709770498E+05,      /* I = 27 */
(PID.TID 0000.0001)                 2.294195678257306E+05,      /* I = 28 */
(PID.TID 0000.0001)                 2.135964483342134E+05,      /* I = 29 */
(PID.TID 0000.0001)                 1.946503699269892E+05,      /* I = 30 */
(PID.TID 0000.0001)                 1.709574999026266E+05,      /* I = 31 */
(PID.TID 0000.0001)                 1.391343389937106E+05,      /* I = 32 */
(PID.TID 0000.0001)                 1.114203141013064E+05,      /* I = 33 */
(PID.TID 0000.0001)                 1.391343389937106E+05,      /* I = 34 */
(PID.TID 0000.0001)                 1.709574999026266E+05,      /* I = 35 */
(PID.TID 0000.0001)                 1.946503699269892E+05,      /* I = 36 */
(PID.TID 0000.0001)                 2.135964483342134E+05,      /* I = 37 */
(PID.TID 0000.0001)                 2.294195678257306E+05,      /* I = 38 */
(PID.TID 0000.0001)                 2.429464709770498E+05,      /* I = 39 */
(PID.TID 0000.0001)                 2.546408290696998E+05,      /* I = 40 */
(PID.TID 0000.0001)                 2.647791839299727E+05,      /* I = 41 */
(PID.TID 0000.0001)                 2.735321911346108E+05,      /* I = 42 */
(PID.TID 0000.0001)                 2.810065951609633E+05,      /* I = 43 */
(PID.TID 0000.0001)                 2.872689479506990E+05,      /* I = 44 */
(PID.TID 0000.0001)                 2.923599955312932E+05,      /* I = 45 */
(PID.TID 0000.0001)                 2.963038832565530E+05,      /* I = 46 */
(PID.TID 0000.0001)                 2.991142470004740E+05,      /* I = 47 */
(PID.TID 0000.0001)                 3.007982711627968E+05,      /* I = 48 */
(PID.TID 0000.0001)                 3.013593857228136E+05,      /* I = 49 */
(PID.TID 0000.0001)                 3.007982711627968E+05,      /* I = 50 */
(PID.TID 0000.0001)                 2.991142470004740E+05,      /* I = 51 */
(PID.TID 0000.0001)                 2.963038832565530E+05,      /* I = 52 */
(PID.TID 0000.0001)                 2.923599955312932E+05,      /* I = 53 */
(PID.TID 0000.0001)                 2.872689479506990E+05,      /* I = 54 */
(PID.TID 0000.0001)                 2.810065951609633E+05,      /* I = 55 */
(PID.TID 0000.0001)                 2.735321911346108E+05,      /* I = 56 */
(PID.TID 0000.0001)                 2.647791839299727E+05,      /* I = 57 */
(PID.TID 0000.0001)                 2.546408290696998E+05,      /* I = 58 */
(PID.TID 0000.0001)                 2.429464709770498E+05,      /* I = 59 */
(PID.TID 0000.0001)                 2.294195678257306E+05,      /* I = 60 */
(PID.TID 0000.0001)                 2.135964483342134E+05,      /* I = 61 */
(PID.TID 0000.0001)                 1.946503699269892E+05,      /* I = 62 */
(PID.TID 0000.0001)                 1.709574999026266E+05,      /* I = 63 */
(PID.TID 0000.0001)                 1.391343389937106E+05,      /* I = 64 */
(PID.TID 0000.0001)                 1.114203141013064E+05,      /* I = 65 */
(PID.TID 0000.0001)                 1.391343389937106E+05,      /* I = 66 */
(PID.TID 0000.0001)                 1.709574999026266E+05,      /* I = 67 */
(PID.TID 0000.0001)                 1.946503699269892E+05,      /* I = 68 */
(PID.TID 0000.0001)                 2.135964483342134E+05,      /* I = 69 */
(PID.TID 0000.0001)                 2.294195678257306E+05,      /* I = 70 */
(PID.TID 0000.0001)                 2.429464709770498E+05,      /* I = 71 */
(PID.TID 0000.0001)                 2.546408290696998E+05,      /* I = 72 */
(PID.TID 0000.0001)                 2.647791839299727E+05,      /* I = 73 */
(PID.TID 0000.0001)                 2.735321911346108E+05,      /* I = 74 */
(PID.TID 0000.0001)                 2.810065951609633E+05,      /* I = 75 */
(PID.TID 0000.0001)                 2.872689479506990E+05,      /* I = 76 */
(PID.TID 0000.0001)                 2.923599955312932E+05,      /* I = 77 */
(PID.TID 0000.0001)                 2.963038832565530E+05,      /* I = 78 */
(PID.TID 0000.0001)                 2.991142470004740E+05,      /* I = 79 */
(PID.TID 0000.0001)                 3.007982711627968E+05,      /* I = 80 */
(PID.TID 0000.0001)                 3.013593857228136E+05,      /* I = 81 */
(PID.TID 0000.0001)                 3.007982711627968E+05,      /* I = 82 */
(PID.TID 0000.0001)                 2.991142470004740E+05,      /* I = 83 */
(PID.TID 0000.0001)                 2.963038832565530E+05,      /* I = 84 */
(PID.TID 0000.0001)                 2.923599955312932E+05,      /* I = 85 */
(PID.TID 0000.0001)                 2.872689479506990E+05,      /* I = 86 */
(PID.TID 0000.0001)                 2.810065951609633E+05,      /* I = 87 */
(PID.TID 0000.0001)                 2.735321911346108E+05,      /* I = 88 */
(PID.TID 0000.0001)                 2.647791839299727E+05,      /* I = 89 */
(PID.TID 0000.0001)                 2.546408290696998E+05,      /* I = 90 */
(PID.TID 0000.0001)                 2.429464709770498E+05,      /* I = 91 */
(PID.TID 0000.0001)                 2.294195678257306E+05,      /* I = 92 */
(PID.TID 0000.0001)                 2.135964483342134E+05,      /* I = 93 */
(PID.TID 0000.0001)                 1.946503699269892E+05,      /* I = 94 */
(PID.TID 0000.0001)                 1.709574999026266E+05,      /* I = 95 */
(PID.TID 0000.0001)                 1.391343389937106E+05,      /* I = 96 */
(PID.TID 0000.0001)                 1.114203141013064E+05,      /* I = 97 */
(PID.TID 0000.0001)                 1.391343389937106E+05,      /* I = 98 */
(PID.TID 0000.0001)                 1.709574999026266E+05,      /* I = 99 */
(PID.TID 0000.0001)                 1.946503699269892E+05,      /* I =100 */
(PID.TID 0000.0001)                 2.135964483342134E+05,      /* I =101 */
(PID.TID 0000.0001)                 2.294195678257306E+05,      /* I =102 */
(PID.TID 0000.0001)                 2.429464709770498E+05,      /* I =103 */
(PID.TID 0000.0001)                 2.546408290696998E+05,      /* I =104 */
(PID.TID 0000.0001)                 2.647791839299727E+05,      /* I =105 */
(PID.TID 0000.0001)                 2.735321911346108E+05,      /* I =106 */
(PID.TID 0000.0001)                 2.810065951609633E+05,      /* I =107 */
(PID.TID 0000.0001)                 2.872689479506990E+05,      /* I =108 */
(PID.TID 0000.0001)                 2.923599955312932E+05,      /* I =109 */
(PID.TID 0000.0001)                 2.963038832565530E+05,      /* I =110 */
(PID.TID 0000.0001)                 2.991142470004740E+05,      /* I =111 */
(PID.TID 0000.0001)                 3.007982711627968E+05,      /* I =112 */
(PID.TID 0000.0001)                 3.013593857228136E+05,      /* I =113 */
(PID.TID 0000.0001)                 3.007982711627968E+05,      /* I =114 */
(PID.TID 0000.0001)                 2.991142470004740E+05,      /* I =115 */
(PID.TID 0000.0001)                 2.963038832565530E+05,      /* I =116 */
(PID.TID 0000.0001)                 2.923599955312932E+05,      /* I =117 */
(PID.TID 0000.0001)                 2.872689479506990E+05,      /* I =118 */
(PID.TID 0000.0001)                 2.810065951609633E+05,      /* I =119 */
(PID.TID 0000.0001)                 2.735321911346108E+05,      /* I =120 */
(PID.TID 0000.0001)                 2.647791839299727E+05,      /* I =121 */
(PID.TID 0000.0001)                 2.546408290696998E+05,      /* I =122 */
(PID.TID 0000.0001)                 2.429464709770498E+05,      /* I =123 */
(PID.TID 0000.0001)                 2.294195678257306E+05,      /* I =124 */
(PID.TID 0000.0001)                 2.135964483342134E+05,      /* I =125 */
(PID.TID 0000.0001)                 1.946503699269892E+05,      /* I =126 */
(PID.TID 0000.0001)                 1.709574999026266E+05,      /* I =127 */
(PID.TID 0000.0001)                 1.391343389937106E+05,      /* I =128 */
(PID.TID 0000.0001)                 1.114203141013064E+05,      /* I =129 */
(PID.TID 0000.0001)                 1.391343389937106E+05,      /* I =130 */
(PID.TID 0000.0001)                 1.709574999026266E+05,      /* I =131 */
(PID.TID 0000.0001)                 1.946503699269892E+05,      /* I =132 */
(PID.TID 0000.0001)                 2.135964483342134E+05,      /* I =133 */
(PID.TID 0000.0001)                 2.294195678257306E+05,      /* I =134 */
(PID.TID 0000.0001)                 2.429464709770498E+05,      /* I =135 */
(PID.TID 0000.0001)                 2.546408290696998E+05,      /* I =136 */
(PID.TID 0000.0001)                 2.647791839299727E+05,      /* I =137 */
(PID.TID 0000.0001)                 2.735321911346108E+05,      /* I =138 */
(PID.TID 0000.0001)                 2.810065951609633E+05,      /* I =139 */
(PID.TID 0000.0001)                 2.872689479506990E+05,      /* I =140 */
(PID.TID 0000.0001)                 2.923599955312932E+05,      /* I =141 */
(PID.TID 0000.0001)                 2.963038832565530E+05,      /* I =142 */
(PID.TID 0000.0001)                 2.991142470004740E+05,      /* I =143 */
(PID.TID 0000.0001)                 3.007982711627968E+05,      /* I =144 */
(PID.TID 0000.0001)                 3.013593857228136E+05,      /* I =145 */
(PID.TID 0000.0001)                 3.007982711627968E+05,      /* I =146 */
(PID.TID 0000.0001)                 2.991142470004740E+05,      /* I =147 */
(PID.TID 0000.0001)                 2.963038832565530E+05,      /* I =148 */
(PID.TID 0000.0001)                 2.923599955312932E+05,      /* I =149 */
(PID.TID 0000.0001)                 2.872689479506990E+05,      /* I =150 */
(PID.TID 0000.0001)                 2.810065951609633E+05,      /* I =151 */
(PID.TID 0000.0001)                 2.735321911346108E+05,      /* I =152 */
(PID.TID 0000.0001)                 2.647791839299727E+05,      /* I =153 */
(PID.TID 0000.0001)                 2.546408290696998E+05,      /* I =154 */
(PID.TID 0000.0001)                 2.429464709770498E+05,      /* I =155 */
(PID.TID 0000.0001)                 2.294195678257306E+05,      /* I =156 */
(PID.TID 0000.0001)                 2.135964483342134E+05,      /* I =157 */
(PID.TID 0000.0001)                 1.946503699269892E+05,      /* I =158 */
(PID.TID 0000.0001)                 1.709574999026266E+05,      /* I =159 */
(PID.TID 0000.0001)                 1.391343389937106E+05,      /* I =160 */
(PID.TID 0000.0001)                 1.114203141013064E+05,      /* I =161 */
(PID.TID 0000.0001)                 1.391343389937106E+05,      /* I =162 */
(PID.TID 0000.0001)                 1.709574999026266E+05,      /* I =163 */
(PID.TID 0000.0001)                 1.946503699269892E+05,      /* I =164 */
(PID.TID 0000.0001)                 2.135964483342134E+05,      /* I =165 */
(PID.TID 0000.0001)                 2.294195678257306E+05,      /* I =166 */
(PID.TID 0000.0001)                 2.429464709770498E+05,      /* I =167 */
(PID.TID 0000.0001)                 2.546408290696998E+05,      /* I =168 */
(PID.TID 0000.0001)                 2.647791839299727E+05,      /* I =169 */
(PID.TID 0000.0001)                 2.735321911346108E+05,      /* I =170 */
(PID.TID 0000.0001)                 2.810065951609633E+05,      /* I =171 */
(PID.TID 0000.0001)                 2.872689479506990E+05,      /* I =172 */
(PID.TID 0000.0001)                 2.923599955312932E+05,      /* I =173 */
(PID.TID 0000.0001)                 2.963038832565530E+05,      /* I =174 */
(PID.TID 0000.0001)                 2.991142470004740E+05,      /* I =175 */
(PID.TID 0000.0001)                 3.007982711627968E+05,      /* I =176 */
(PID.TID 0000.0001)                 3.013593857228136E+05,      /* I =177 */
(PID.TID 0000.0001)                 3.007982711627968E+05,      /* I =178 */
(PID.TID 0000.0001)                 2.991142470004740E+05,      /* I =179 */
(PID.TID 0000.0001)                 2.963038832565530E+05,      /* I =180 */
(PID.TID 0000.0001)                 2.923599955312932E+05,      /* I =181 */
(PID.TID 0000.0001)                 2.872689479506990E+05,      /* I =182 */
(PID.TID 0000.0001)                 2.810065951609633E+05,      /* I =183 */
(PID.TID 0000.0001)                 2.735321911346108E+05,      /* I =184 */
(PID.TID 0000.0001)                 2.647791839299727E+05,      /* I =185 */
(PID.TID 0000.0001)                 2.546408290696998E+05,      /* I =186 */
(PID.TID 0000.0001)                 2.429464709770498E+05,      /* I =187 */
(PID.TID 0000.0001)                 2.294195678257306E+05,      /* I =188 */
(PID.TID 0000.0001)                 2.135964483342134E+05,      /* I =189 */
(PID.TID 0000.0001)                 1.946503699269892E+05,      /* I =190 */
(PID.TID 0000.0001)                 1.709574999026266E+05,      /* I =191 */
(PID.TID 0000.0001)                 1.391343389937106E+05       /* I =192 */
(PID.TID 0000.0001)     ;
(PID.TID 0000.0001) dxC =  /* dxC(1,:,1,:) ( units: m ) */
(PID.TID 0000.0001)                 1.114203141013064E+05,      /* J =  1 */
(PID.TID 0000.0001)                 1.549545757850771E+05,      /* J =  2 */
(PID.TID 0000.0001)                 1.829777599966776E+05,      /* J =  3 */
(PID.TID 0000.0001)                 2.042717761866506E+05,      /* J =  4 */
(PID.TID 0000.0001)                 2.216367828252819E+05,      /* J =  5 */
(PID.TID 0000.0001)                 2.363029564123586E+05,      /* J =  6 */
(PID.TID 0000.0001)                 2.489113743322025E+05,      /* J =  7 */
(PID.TID 0000.0001)                 2.598293319150326E+05,      /* J =  8 */
(PID.TID 0000.0001)                 2.692787333338535E+05,      /* J =  9 */
(PID.TID 0000.0001)                 2.773972106720365E+05,      /* J = 10 */
(PID.TID 0000.0001)                 2.842706922224557E+05,      /* J = 11 */
(PID.TID 0000.0001)                 2.899523122489403E+05,      /* J = 12 */
(PID.TID 0000.0001)                 2.944741346384699E+05,      /* J = 13 */
(PID.TID 0000.0001)                 2.978547649292580E+05,      /* J = 14 */
(PID.TID 0000.0001)                 3.001044073506459E+05,      /* J = 15 */
(PID.TID 0000.0001)     2 @  3.012281885409289E+05,             /* J = 16: 17 */
(PID.TID 0000.0001)                 3.001044073506459E+05,      /* J = 18 */
(PID.TID 0000.0001)                 2.978547649292580E+05,      /* J = 19 */
(PID.TID 0000.0001)                 2.944741346384699E+05,      /* J = 20 */
(PID.TID 0000.0001)                 2.899523122489403E+05,      /* J = 21 */
(PID.TID 0000.0001)                 2.842706922224557E+05,      /* J = 22 */
(PID.TID 0000.0001)                 2.773972106720365E+05,      /* J = 23 */
(PID.TID 0000.0001)                 2.692787333338535E+05,      /* J = 24 */
(PID.TID 0000.0001)                 2.598293319150326E+05,      /* J = 25 */
(PID.TID 0000.0001)                 2.489113743322025E+05,      /* J = 26 */
(PID.TID 0000.0001)                 2.363029564123586E+05,      /* J = 27 */
(PID.TID 0000.0001)                 2.216367828252819E+05,      /* J = 28 */
(PID.TID 0000.0001)                 2.042717761866506E+05,      /* J = 29 */
(PID.TID 0000.0001)                 1.829777599966776E+05,      /* J = 30 */
(PID.TID 0000.0001)                 1.549545757850771E+05,      /* J = 31 */
(PID.TID 0000.0001)                 1.114203141013064E+05       /* J = 32 */
(PID.TID 0000.0001)     ;
(PID.TID 0000.0001) dyC =  /* dyC(:,1,:,1) ( units: m ) */
(PID.TID 0000.0001)                 1.114203141013064E+05,      /* I =  1 */
(PID.TID 0000.0001)                 1.549545757850771E+05,      /* I =  2 */
(PID.TID 0000.0001)                 1.829777599966776E+05,      /* I =  3 */
(PID.TID 0000.0001)                 2.042717761866506E+05,      /* I =  4 */
(PID.TID 0000.0001)                 2.216367828252819E+05,      /* I =  5 */
(PID.TID 0000.0001)                 2.363029564123586E+05,      /* I =  6 */
(PID.TID 0000.0001)                 2.489113743322025E+05,      /* I =  7 */
(PID.TID 0000.0001)                 2.598293319150326E+05,      /* I =  8 */
(PID.TID 0000.0001)                 2.692787333338535E+05,      /* I =  9 */
(PID.TID 0000.0001)                 2.773972106720365E+05,      /* I = 10 */
(PID.TID 0000.0001)                 2.842706922224557E+05,      /* I = 11 */
(PID.TID 0000.0001)                 2.899523122489403E+05,      /* I = 12 */
(PID.TID 0000.0001)                 2.944741346384699E+05,      /* I = 13 */
(PID.TID 0000.0001)                 2.978547649292580E+05,      /* I = 14 */
(PID.TID 0000.0001)                 3.001044073506459E+05,      /* I = 15 */
(PID.TID 0000.0001)     2 @  3.012281885409289E+05,             /* I = 16: 17 */
(PID.TID 0000.0001)                 3.001044073506459E+05,      /* I = 18 */
(PID.TID 0000.0001)                 2.978547649292580E+05,      /* I = 19 */
(PID.TID 0000.0001)                 2.944741346384699E+05,      /* I = 20 */
(PID.TID 0000.0001)                 2.899523122489403E+05,      /* I = 21 */
(PID.TID 0000.0001)                 2.842706922224557E+05,      /* I = 22 */
(PID.TID 0000.0001)                 2.773972106720365E+05,      /* I = 23 */
(PID.TID 0000.0001)                 2.692787333338535E+05,      /* I = 24 */
(PID.TID 0000.0001)                 2.598293319150326E+05,      /* I = 25 */
(PID.TID 0000.0001)                 2.489113743322025E+05,      /* I = 26 */
(PID.TID 0000.0001)                 2.363029564123586E+05,      /* I = 27 */
(PID.TID 0000.0001)                 2.216367828252819E+05,      /* I = 28 */
(PID.TID 0000.0001)                 2.042717761866506E+05,      /* I = 29 */
(PID.TID 0000.0001)                 1.829777599966776E+05,      /* I = 30 */
(PID.TID 0000.0001)                 1.549545757850771E+05,      /* I = 31 */
(PID.TID 0000.0001)     2 @  1.114203141013064E+05,             /* I = 32: 33 */
(PID.TID 0000.0001)                 1.549545757850771E+05,      /* I = 34 */
(PID.TID 0000.0001)                 1.829777599966776E+05,      /* I = 35 */
(PID.TID 0000.0001)                 2.042717761866506E+05,      /* I = 36 */
(PID.TID 0000.0001)                 2.216367828252819E+05,      /* I = 37 */
(PID.TID 0000.0001)                 2.363029564123586E+05,      /* I = 38 */
(PID.TID 0000.0001)                 2.489113743322025E+05,      /* I = 39 */
(PID.TID 0000.0001)                 2.598293319150326E+05,      /* I = 40 */
(PID.TID 0000.0001)                 2.692787333338535E+05,      /* I = 41 */
(PID.TID 0000.0001)                 2.773972106720365E+05,      /* I = 42 */
(PID.TID 0000.0001)                 2.842706922224557E+05,      /* I = 43 */
(PID.TID 0000.0001)                 2.899523122489403E+05,      /* I = 44 */
(PID.TID 0000.0001)                 2.944741346384699E+05,      /* I = 45 */
(PID.TID 0000.0001)                 2.978547649292580E+05,      /* I = 46 */
(PID.TID 0000.0001)                 3.001044073506459E+05,      /* I = 47 */
(PID.TID 0000.0001)     2 @  3.012281885409289E+05,             /* I = 48: 49 */
(PID.TID 0000.0001)                 3.001044073506459E+05,      /* I = 50 */
(PID.TID 0000.0001)                 2.978547649292580E+05,      /* I = 51 */
(PID.TID 0000.0001)                 2.944741346384699E+05,      /* I = 52 */
(PID.TID 0000.0001)                 2.899523122489403E+05,      /* I = 53 */
(PID.TID 0000.0001)                 2.842706922224557E+05,      /* I = 54 */
(PID.TID 0000.0001)                 2.773972106720365E+05,      /* I = 55 */
(PID.TID 0000.0001)                 2.692787333338535E+05,      /* I = 56 */
(PID.TID 0000.0001)                 2.598293319150326E+05,      /* I = 57 */
(PID.TID 0000.0001)                 2.489113743322025E+05,      /* I = 58 */
(PID.TID 0000.0001)                 2.363029564123586E+05,      /* I = 59 */
(PID.TID 0000.0001)                 2.216367828252819E+05,      /* I = 60 */
(PID.TID 0000.0001)                 2.042717761866506E+05,      /* I = 61 */
(PID.TID 0000.0001)                 1.829777599966776E+05,      /* I = 62 */
(PID.TID 0000.0001)                 1.549545757850771E+05,      /* I = 63 */
(PID.TID 0000.0001)     2 @  1.114203141013064E+05,             /* I = 64: 65 */
(PID.TID 0000.0001)                 1.549545757850771E+05,      /* I = 66 */
(PID.TID 0000.0001)                 1.829777599966776E+05,      /* I = 67 */
(PID.TID 0000.0001)                 2.042717761866506E+05,      /* I = 68 */
(PID.TID 0000.0001)                 2.216367828252819E+05,      /* I = 69 */
(PID.TID 0000.0001)                 2.363029564123586E+05,      /* I = 70 */
(PID.TID 0000.0001)                 2.489113743322025E+05,      /* I = 71 */
(PID.TID 0000.0001)                 2.598293319150326E+05,      /* I = 72 */
(PID.TID 0000.0001)                 2.692787333338535E+05,      /* I = 73 */
(PID.TID 0000.0001)                 2.773972106720365E+05,      /* I = 74 */
(PID.TID 0000.0001)                 2.842706922224557E+05,      /* I = 75 */
(PID.TID 0000.0001)                 2.899523122489403E+05,      /* I = 76 */
(PID.TID 0000.0001)                 2.944741346384699E+05,      /* I = 77 */
(PID.TID 0000.0001)                 2.978547649292580E+05,      /* I = 78 */
(PID.TID 0000.0001)                 3.001044073506459E+05,      /* I = 79 */
(PID.TID 0000.0001)     2 @  3.012281885409289E+05,             /* I = 80: 81 */
(PID.TID 0000.0001)                 3.001044073506459E+05,      /* I = 82 */
(PID.TID 0000.0001)                 2.978547649292580E+05,      /* I = 83 */
(PID.TID 0000.0001)                 2.944741346384699E+05,      /* I = 84 */
(PID.TID 0000.0001)                 2.899523122489403E+05,      /* I = 85 */
(PID.TID 0000.0001)                 2.842706922224557E+05,      /* I = 86 */
(PID.TID 0000.0001)                 2.773972106720365E+05,      /* I = 87 */
(PID.TID 0000.0001)                 2.692787333338535E+05,      /* I = 88 */
(PID.TID 0000.0001)                 2.598293319150326E+05,      /* I = 89 */
(PID.TID 0000.0001)                 2.489113743322025E+05,      /* I = 90 */
(PID.TID 0000.0001)                 2.363029564123586E+05,      /* I = 91 */
(PID.TID 0000.0001)                 2.216367828252819E+05,      /* I = 92 */
(PID.TID 0000.0001)                 2.042717761866506E+05,      /* I = 93 */
(PID.TID 0000.0001)                 1.829777599966776E+05,      /* I = 94 */
(PID.TID 0000.0001)                 1.549545757850771E+05,      /* I = 95 */
(PID.TID 0000.0001)     2 @  1.114203141013064E+05,             /* I = 96: 97 */
(PID.TID 0000.0001)                 1.549545757850771E+05,      /* I = 98 */
(PID.TID 0000.0001)                 1.829777599966776E+05,      /* I = 99 */
(PID.TID 0000.0001)                 2.042717761866506E+05,      /* I =100 */
(PID.TID 0000.0001)                 2.216367828252819E+05,      /* I =101 */
(PID.TID 0000.0001)                 2.363029564123586E+05,      /* I =102 */
(PID.TID 0000.0001)                 2.489113743322025E+05,      /* I =103 */
(PID.TID 0000.0001)                 2.598293319150326E+05,      /* I =104 */
(PID.TID 0000.0001)                 2.692787333338535E+05,      /* I =105 */
(PID.TID 0000.0001)                 2.773972106720365E+05,      /* I =106 */
(PID.TID 0000.0001)                 2.842706922224557E+05,      /* I =107 */
(PID.TID 0000.0001)                 2.899523122489403E+05,      /* I =108 */
(PID.TID 0000.0001)                 2.944741346384699E+05,      /* I =109 */
(PID.TID 0000.0001)                 2.978547649292580E+05,      /* I =110 */
(PID.TID 0000.0001)                 3.001044073506459E+05,      /* I =111 */
(PID.TID 0000.0001)     2 @  3.012281885409289E+05,             /* I =112:113 */
(PID.TID 0000.0001)                 3.001044073506459E+05,      /* I =114 */
(PID.TID 0000.0001)                 2.978547649292580E+05,      /* I =115 */
(PID.TID 0000.0001)                 2.944741346384699E+05,      /* I =116 */
(PID.TID 0000.0001)                 2.899523122489403E+05,      /* I =117 */
(PID.TID 0000.0001)                 2.842706922224557E+05,      /* I =118 */
(PID.TID 0000.0001)                 2.773972106720365E+05,      /* I =119 */
(PID.TID 0000.0001)                 2.692787333338535E+05,      /* I =120 */
(PID.TID 0000.0001)                 2.598293319150326E+05,      /* I =121 */
(PID.TID 0000.0001)                 2.489113743322025E+05,      /* I =122 */
(PID.TID 0000.0001)                 2.363029564123586E+05,      /* I =123 */
(PID.TID 0000.0001)                 2.216367828252819E+05,      /* I =124 */
(PID.TID 0000.0001)                 2.042717761866506E+05,      /* I =125 */
(PID.TID 0000.0001)                 1.829777599966776E+05,      /* I =126 */
(PID.TID 0000.0001)                 1.549545757850771E+05,      /* I =127 */
(PID.TID 0000.0001)     2 @  1.114203141013064E+05,             /* I =128:129 */
(PID.TID 0000.0001)                 1.549545757850771E+05,      /* I =130 */
(PID.TID 0000.0001)                 1.829777599966776E+05,      /* I =131 */
(PID.TID 0000.0001)                 2.042717761866506E+05,      /* I =132 */
(PID.TID 0000.0001)                 2.216367828252819E+05,      /* I =133 */
(PID.TID 0000.0001)                 2.363029564123586E+05,      /* I =134 */
(PID.TID 0000.0001)                 2.489113743322025E+05,      /* I =135 */
(PID.TID 0000.0001)                 2.598293319150326E+05,      /* I =136 */
(PID.TID 0000.0001)                 2.692787333338535E+05,      /* I =137 */
(PID.TID 0000.0001)                 2.773972106720365E+05,      /* I =138 */
(PID.TID 0000.0001)                 2.842706922224557E+05,      /* I =139 */
(PID.TID 0000.0001)                 2.899523122489403E+05,      /* I =140 */
(PID.TID 0000.0001)                 2.944741346384699E+05,      /* I =141 */
(PID.TID 0000.0001)                 2.978547649292580E+05,      /* I =142 */
(PID.TID 0000.0001)                 3.001044073506459E+05,      /* I =143 */
(PID.TID 0000.0001)     2 @  3.012281885409289E+05,             /* I =144:145 */
(PID.TID 0000.0001)                 3.001044073506459E+05,      /* I =146 */
(PID.TID 0000.0001)                 2.978547649292580E+05,      /* I =147 */
(PID.TID 0000.0001)                 2.944741346384699E+05,      /* I =148 */
(PID.TID 0000.0001)                 2.899523122489403E+05,      /* I =149 */
(PID.TID 0000.0001)                 2.842706922224557E+05,      /* I =150 */
(PID.TID 0000.0001)                 2.773972106720365E+05,      /* I =151 */
(PID.TID 0000.0001)                 2.692787333338535E+05,      /* I =152 */
(PID.TID 0000.0001)                 2.598293319150326E+05,      /* I =153 */
(PID.TID 0000.0001)                 2.489113743322025E+05,      /* I =154 */
(PID.TID 0000.0001)                 2.363029564123586E+05,      /* I =155 */
(PID.TID 0000.0001)                 2.216367828252819E+05,      /* I =156 */
(PID.TID 0000.0001)                 2.042717761866506E+05,      /* I =157 */
(PID.TID 0000.0001)                 1.829777599966776E+05,      /* I =158 */
(PID.TID 0000.0001)                 1.549545757850771E+05,      /* I =159 */
(PID.TID 0000.0001)     2 @  1.114203141013064E+05,             /* I =160:161 */
(PID.TID 0000.0001)                 1.549545757850771E+05,      /* I =162 */
(PID.TID 0000.0001)                 1.829777599966776E+05,      /* I =163 */
(PID.TID 0000.0001)                 2.042717761866506E+05,      /* I =164 */
(PID.TID 0000.0001)                 2.216367828252819E+05,      /* I =165 */
(PID.TID 0000.0001)                 2.363029564123586E+05,      /* I =166 */
(PID.TID 0000.0001)                 2.489113743322025E+05,      /* I =167 */
(PID.TID 0000.0001)                 2.598293319150326E+05,      /* I =168 */
(PID.TID 0000.0001)                 2.692787333338535E+05,      /* I =169 */
(PID.TID 0000.0001)                 2.773972106720365E+05,      /* I =170 */
(PID.TID 0000.0001)                 2.842706922224557E+05,      /* I =171 */
(PID.TID 0000.0001)                 2.899523122489403E+05,      /* I =172 */
(PID.TID 0000.0001)                 2.944741346384699E+05,      /* I =173 */
(PID.TID 0000.0001)                 2.978547649292580E+05,      /* I =174 */
(PID.TID 0000.0001)                 3.001044073506459E+05,      /* I =175 */
(PID.TID 0000.0001)     2 @  3.012281885409289E+05,             /* I =176:177 */
(PID.TID 0000.0001)                 3.001044073506459E+05,      /* I =178 */
(PID.TID 0000.0001)                 2.978547649292580E+05,      /* I =179 */
(PID.TID 0000.0001)                 2.944741346384699E+05,      /* I =180 */
(PID.TID 0000.0001)                 2.899523122489403E+05,      /* I =181 */
(PID.TID 0000.0001)                 2.842706922224557E+05,      /* I =182 */
(PID.TID 0000.0001)                 2.773972106720365E+05,      /* I =183 */
(PID.TID 0000.0001)                 2.692787333338535E+05,      /* I =184 */
(PID.TID 0000.0001)                 2.598293319150326E+05,      /* I =185 */
(PID.TID 0000.0001)                 2.489113743322025E+05,      /* I =186 */
(PID.TID 0000.0001)                 2.363029564123586E+05,      /* I =187 */
(PID.TID 0000.0001)                 2.216367828252819E+05,      /* I =188 */
(PID.TID 0000.0001)                 2.042717761866506E+05,      /* I =189 */
(PID.TID 0000.0001)                 1.829777599966776E+05,      /* I =190 */
(PID.TID 0000.0001)                 1.549545757850771E+05,      /* I =191 */
(PID.TID 0000.0001)                 1.114203141013064E+05       /* I =192 */
(PID.TID 0000.0001)     ;
(PID.TID 0000.0001) dyC =  /* dyC(1,:,1,:) ( units: m ) */
(PID.TID 0000.0001)                 1.114203141013064E+05,      /* J =  1 */
(PID.TID 0000.0001)                 1.391343389937106E+05,      /* J =  2 */
(PID.TID 0000.0001)                 1.709574999026266E+05,      /* J =  3 */
(PID.TID 0000.0001)                 1.946503699269892E+05,      /* J =  4 */
(PID.TID 0000.0001)                 2.135964483342134E+05,      /* J =  5 */
(PID.TID 0000.0001)                 2.294195678257306E+05,      /* J =  6 */
(PID.TID 0000.0001)                 2.429464709770498E+05,      /* J =  7 */
(PID.TID 0000.0001)                 2.546408290696998E+05,      /* J =  8 */
(PID.TID 0000.0001)                 2.647791839299727E+05,      /* J =  9 */
(PID.TID 0000.0001)                 2.735321911346108E+05,      /* J = 10 */
(PID.TID 0000.0001)                 2.810065951609633E+05,      /* J = 11 */
(PID.TID 0000.0001)                 2.872689479506990E+05,      /* J = 12 */
(PID.TID 0000.0001)                 2.923599955312932E+05,      /* J = 13 */
(PID.TID 0000.0001)                 2.963038832565530E+05,      /* J = 14 */
(PID.TID 0000.0001)                 2.991142470004740E+05,      /* J = 15 */
(PID.TID 0000.0001)                 3.007982711627968E+05,      /* J = 16 */
(PID.TID 0000.0001)                 3.013593857228136E+05,      /* J = 17 */
(PID.TID 0000.0001)                 3.007982711627968E+05,      /* J = 18 */
(PID.TID 0000.0001)                 2.991142470004740E+05,      /* J = 19 */
(PID.TID 0000.0001)                 2.963038832565530E+05,      /* J = 20 */
(PID.TID 0000.0001)                 2.923599955312932E+05,      /* J = 21 */
(PID.TID 0000.0001)                 2.872689479506990E+05,      /* J = 22 */
(PID.TID 0000.0001)                 2.810065951609633E+05,      /* J = 23 */
(PID.TID 0000.0001)                 2.735321911346108E+05,      /* J = 24 */
(PID.TID 0000.0001)                 2.647791839299727E+05,      /* J = 25 */
(PID.TID 0000.0001)                 2.546408290696998E+05,      /* J = 26 */
(PID.TID 0000.0001)                 2.429464709770498E+05,      /* J = 27 */
(PID.TID 0000.0001)                 2.294195678257306E+05,      /* J = 28 */
(PID.TID 0000.0001)                 2.135964483342134E+05,      /* J = 29 */
(PID.TID 0000.0001)                 1.946503699269892E+05,      /* J = 30 */
(PID.TID 0000.0001)                 1.709574999026266E+05,      /* J = 31 */
(PID.TID 0000.0001)                 1.391343389937106E+05       /* J = 32 */
(PID.TID 0000.0001)     ;
(PID.TID 0000.0001) dxV =  /* dxV(:,1,:,1) ( units: m ) */
(PID.TID 0000.0001)                 8.015229982413632E+04,      /* I =  1 */
(PID.TID 0000.0001)                 1.333130744933864E+05,      /* I =  2 */
(PID.TID 0000.0001)                 1.691744868129062E+05,      /* I =  3 */
(PID.TID 0000.0001)                 1.937548202849060E+05,      /* I =  4 */
(PID.TID 0000.0001)                 2.130490056267208E+05,      /* I =  5 */
(PID.TID 0000.0001)                 2.290479919481738E+05,      /* I =  6 */
(PID.TID 0000.0001)                 2.426774358027003E+05,      /* I =  7 */
(PID.TID 0000.0001)                 2.544372984215561E+05,      /* I =  8 */
(PID.TID 0000.0001)                 2.646201463834826E+05,      /* I =  9 */
(PID.TID 0000.0001)                 2.734046499619031E+05,      /* I = 10 */
(PID.TID 0000.0001)                 2.809019351693761E+05,      /* I = 11 */
(PID.TID 0000.0001)                 2.871811105274442E+05,      /* I = 12 */
(PID.TID 0000.0001)                 2.922844849381675E+05,      /* I = 13 */
(PID.TID 0000.0001)                 2.962371870847826E+05,      /* I = 14 */
(PID.TID 0000.0001)                 2.990534755671296E+05,      /* I = 15 */
(PID.TID 0000.0001)                 3.007409169495504E+05,      /* I = 16 */
(PID.TID 0000.0001)                 3.013031486919771E+05,      /* I = 17 */
(PID.TID 0000.0001)                 3.007409169495504E+05,      /* I = 18 */
(PID.TID 0000.0001)                 2.990534755671296E+05,      /* I = 19 */
(PID.TID 0000.0001)                 2.962371870847826E+05,      /* I = 20 */
(PID.TID 0000.0001)                 2.922844849381675E+05,      /* I = 21 */
(PID.TID 0000.0001)                 2.871811105274442E+05,      /* I = 22 */
(PID.TID 0000.0001)                 2.809019351693761E+05,      /* I = 23 */
(PID.TID 0000.0001)                 2.734046499619031E+05,      /* I = 24 */
(PID.TID 0000.0001)                 2.646201463834826E+05,      /* I = 25 */
(PID.TID 0000.0001)                 2.544372984215561E+05,      /* I = 26 */
(PID.TID 0000.0001)                 2.426774358027003E+05,      /* I = 27 */
(PID.TID 0000.0001)                 2.290479919481738E+05,      /* I = 28 */
(PID.TID 0000.0001)                 2.130490056267208E+05,      /* I = 29 */
(PID.TID 0000.0001)                 1.937548202849060E+05,      /* I = 30 */
(PID.TID 0000.0001)                 1.691744868129062E+05,      /* I = 31 */
(PID.TID 0000.0001)                 1.333130744933864E+05,      /* I = 32 */
(PID.TID 0000.0001)                 8.015229982413632E+04,      /* I = 33 */
(PID.TID 0000.0001)                 1.333130744933864E+05,      /* I = 34 */
(PID.TID 0000.0001)                 1.691744868129062E+05,      /* I = 35 */
(PID.TID 0000.0001)                 1.937548202849060E+05,      /* I = 36 */
(PID.TID 0000.0001)                 2.130490056267208E+05,      /* I = 37 */
(PID.TID 0000.0001)                 2.290479919481738E+05,      /* I = 38 */
(PID.TID 0000.0001)                 2.426774358027003E+05,      /* I = 39 */
(PID.TID 0000.0001)                 2.544372984215561E+05,      /* I = 40 */
(PID.TID 0000.0001)                 2.646201463834826E+05,      /* I = 41 */
(PID.TID 0000.0001)                 2.734046499619031E+05,      /* I = 42 */
(PID.TID 0000.0001)                 2.809019351693761E+05,      /* I = 43 */
(PID.TID 0000.0001)                 2.871811105274442E+05,      /* I = 44 */
(PID.TID 0000.0001)                 2.922844849381675E+05,      /* I = 45 */
(PID.TID 0000.0001)                 2.962371870847826E+05,      /* I = 46 */
(PID.TID 0000.0001)                 2.990534755671296E+05,      /* I = 47 */
(PID.TID 0000.0001)                 3.007409169495504E+05,      /* I = 48 */
(PID.TID 0000.0001)                 3.013031486919771E+05,      /* I = 49 */
(PID.TID 0000.0001)                 3.007409169495504E+05,      /* I = 50 */
(PID.TID 0000.0001)                 2.990534755671296E+05,      /* I = 51 */
(PID.TID 0000.0001)                 2.962371870847826E+05,      /* I = 52 */
(PID.TID 0000.0001)                 2.922844849381675E+05,      /* I = 53 */
(PID.TID 0000.0001)                 2.871811105274442E+05,      /* I = 54 */
(PID.TID 0000.0001)                 2.809019351693761E+05,      /* I = 55 */
(PID.TID 0000.0001)                 2.734046499619031E+05,      /* I = 56 */
(PID.TID 0000.0001)                 2.646201463834826E+05,      /* I = 57 */
(PID.TID 0000.0001)                 2.544372984215561E+05,      /* I = 58 */
(PID.TID 0000.0001)                 2.426774358027003E+05,      /* I = 59 */
(PID.TID 0000.0001)                 2.290479919481738E+05,      /* I = 60 */
(PID.TID 0000.0001)                 2.130490056267208E+05,      /* I = 61 */
(PID.TID 0000.0001)                 1.937548202849060E+05,      /* I = 62 */
(PID.TID 0000.0001)                 1.691744868129062E+05,      /* I = 63 */
(PID.TID 0000.0001)                 1.333130744933864E+05,      /* I = 64 */
(PID.TID 0000.0001)                 8.015229982413632E+04,      /* I = 65 */
(PID.TID 0000.0001)                 1.333130744933864E+05,      /* I = 66 */
(PID.TID 0000.0001)                 1.691744868129062E+05,      /* I = 67 */
(PID.TID 0000.0001)                 1.937548202849060E+05,      /* I = 68 */
(PID.TID 0000.0001)                 2.130490056267208E+05,      /* I = 69 */
(PID.TID 0000.0001)                 2.290479919481738E+05,      /* I = 70 */
(PID.TID 0000.0001)                 2.426774358027003E+05,      /* I = 71 */
(PID.TID 0000.0001)                 2.544372984215561E+05,      /* I = 72 */
(PID.TID 0000.0001)                 2.646201463834826E+05,      /* I = 73 */
(PID.TID 0000.0001)                 2.734046499619031E+05,      /* I = 74 */
(PID.TID 0000.0001)                 2.809019351693761E+05,      /* I = 75 */
(PID.TID 0000.0001)                 2.871811105274442E+05,      /* I = 76 */
(PID.TID 0000.0001)                 2.922844849381675E+05,      /* I = 77 */
(PID.TID 0000.0001)                 2.962371870847826E+05,      /* I = 78 */
(PID.TID 0000.0001)                 2.990534755671296E+05,      /* I = 79 */
(PID.TID 0000.0001)                 3.007409169495504E+05,      /* I = 80 */
(PID.TID 0000.0001)                 3.013031486919771E+05,      /* I = 81 */
(PID.TID 0000.0001)                 3.007409169495504E+05,      /* I = 82 */
(PID.TID 0000.0001)                 2.990534755671296E+05,      /* I = 83 */
(PID.TID 0000.0001)                 2.962371870847826E+05,      /* I = 84 */
(PID.TID 0000.0001)                 2.922844849381675E+05,      /* I = 85 */
(PID.TID 0000.0001)                 2.871811105274442E+05,      /* I = 86 */
(PID.TID 0000.0001)                 2.809019351693761E+05,      /* I = 87 */
(PID.TID 0000.0001)                 2.734046499619031E+05,      /* I = 88 */
(PID.TID 0000.0001)                 2.646201463834826E+05,      /* I = 89 */
(PID.TID 0000.0001)                 2.544372984215561E+05,      /* I = 90 */
(PID.TID 0000.0001)                 2.426774358027003E+05,      /* I = 91 */
(PID.TID 0000.0001)                 2.290479919481738E+05,      /* I = 92 */
(PID.TID 0000.0001)                 2.130490056267208E+05,      /* I = 93 */
(PID.TID 0000.0001)                 1.937548202849060E+05,      /* I = 94 */
(PID.TID 0000.0001)                 1.691744868129062E+05,      /* I = 95 */
(PID.TID 0000.0001)                 1.333130744933864E+05,      /* I = 96 */
(PID.TID 0000.0001)                 8.015229982413632E+04,      /* I = 97 */
(PID.TID 0000.0001)                 1.333130744933864E+05,      /* I = 98 */
(PID.TID 0000.0001)                 1.691744868129062E+05,      /* I = 99 */
(PID.TID 0000.0001)                 1.937548202849060E+05,      /* I =100 */
(PID.TID 0000.0001)                 2.130490056267208E+05,      /* I =101 */
(PID.TID 0000.0001)                 2.290479919481738E+05,      /* I =102 */
(PID.TID 0000.0001)                 2.426774358027003E+05,      /* I =103 */
(PID.TID 0000.0001)                 2.544372984215561E+05,      /* I =104 */
(PID.TID 0000.0001)                 2.646201463834826E+05,      /* I =105 */
(PID.TID 0000.0001)                 2.734046499619031E+05,      /* I =106 */
(PID.TID 0000.0001)                 2.809019351693761E+05,      /* I =107 */
(PID.TID 0000.0001)                 2.871811105274442E+05,      /* I =108 */
(PID.TID 0000.0001)                 2.922844849381675E+05,      /* I =109 */
(PID.TID 0000.0001)                 2.962371870847826E+05,      /* I =110 */
(PID.TID 0000.0001)                 2.990534755671296E+05,      /* I =111 */
(PID.TID 0000.0001)                 3.007409169495504E+05,      /* I =112 */
(PID.TID 0000.0001)                 3.013031486919771E+05,      /* I =113 */
(PID.TID 0000.0001)                 3.007409169495504E+05,      /* I =114 */
(PID.TID 0000.0001)                 2.990534755671296E+05,      /* I =115 */
(PID.TID 0000.0001)                 2.962371870847826E+05,      /* I =116 */
(PID.TID 0000.0001)                 2.922844849381675E+05,      /* I =117 */
(PID.TID 0000.0001)                 2.871811105274442E+05,      /* I =118 */
(PID.TID 0000.0001)                 2.809019351693761E+05,      /* I =119 */
(PID.TID 0000.0001)                 2.734046499619031E+05,      /* I =120 */
(PID.TID 0000.0001)                 2.646201463834826E+05,      /* I =121 */
(PID.TID 0000.0001)                 2.544372984215561E+05,      /* I =122 */
(PID.TID 0000.0001)                 2.426774358027003E+05,      /* I =123 */
(PID.TID 0000.0001)                 2.290479919481738E+05,      /* I =124 */
(PID.TID 0000.0001)                 2.130490056267208E+05,      /* I =125 */
(PID.TID 0000.0001)                 1.937548202849060E+05,      /* I =126 */
(PID.TID 0000.0001)                 1.691744868129062E+05,      /* I =127 */
(PID.TID 0000.0001)                 1.333130744933864E+05,      /* I =128 */
(PID.TID 0000.0001)                 8.015229982413632E+04,      /* I =129 */
(PID.TID 0000.0001)                 1.333130744933864E+05,      /* I =130 */
(PID.TID 0000.0001)                 1.691744868129062E+05,      /* I =131 */
(PID.TID 0000.0001)                 1.937548202849060E+05,      /* I =132 */
(PID.TID 0000.0001)                 2.130490056267208E+05,      /* I =133 */
(PID.TID 0000.0001)                 2.290479919481738E+05,      /* I =134 */
(PID.TID 0000.0001)                 2.426774358027003E+05,      /* I =135 */
(PID.TID 0000.0001)                 2.544372984215561E+05,      /* I =136 */
(PID.TID 0000.0001)                 2.646201463834826E+05,      /* I =137 */
(PID.TID 0000.0001)                 2.734046499619031E+05,      /* I =138 */
(PID.TID 0000.0001)                 2.809019351693761E+05,      /* I =139 */
(PID.TID 0000.0001)                 2.871811105274442E+05,      /* I =140 */
(PID.TID 0000.0001)                 2.922844849381675E+05,      /* I =141 */
(PID.TID 0000.0001)                 2.962371870847826E+05,      /* I =142 */
(PID.TID 0000.0001)                 2.990534755671296E+05,      /* I =143 */
(PID.TID 0000.0001)                 3.007409169495504E+05,      /* I =144 */
(PID.TID 0000.0001)                 3.013031486919771E+05,      /* I =145 */
(PID.TID 0000.0001)                 3.007409169495504E+05,      /* I =146 */
(PID.TID 0000.0001)                 2.990534755671296E+05,      /* I =147 */
(PID.TID 0000.0001)                 2.962371870847826E+05,      /* I =148 */
(PID.TID 0000.0001)                 2.922844849381675E+05,      /* I =149 */
(PID.TID 0000.0001)                 2.871811105274442E+05,      /* I =150 */
(PID.TID 0000.0001)                 2.809019351693761E+05,      /* I =151 */
(PID.TID 0000.0001)                 2.734046499619031E+05,      /* I =152 */
(PID.TID 0000.0001)                 2.646201463834826E+05,      /* I =153 */
(PID.TID 0000.0001)                 2.544372984215561E+05,      /* I =154 */
(PID.TID 0000.0001)                 2.426774358027003E+05,      /* I =155 */
(PID.TID 0000.0001)                 2.290479919481738E+05,      /* I =156 */
(PID.TID 0000.0001)                 2.130490056267208E+05,      /* I =157 */
(PID.TID 0000.0001)                 1.937548202849060E+05,      /* I =158 */
(PID.TID 0000.0001)                 1.691744868129062E+05,      /* I =159 */
(PID.TID 0000.0001)                 1.333130744933864E+05,      /* I =160 */
(PID.TID 0000.0001)                 8.015229982413632E+04,      /* I =161 */
(PID.TID 0000.0001)                 1.333130744933864E+05,      /* I =162 */
(PID.TID 0000.0001)                 1.691744868129062E+05,      /* I =163 */
(PID.TID 0000.0001)                 1.937548202849060E+05,      /* I =164 */
(PID.TID 0000.0001)                 2.130490056267208E+05,      /* I =165 */
(PID.TID 0000.0001)                 2.290479919481738E+05,      /* I =166 */
(PID.TID 0000.0001)                 2.426774358027003E+05,      /* I =167 */
(PID.TID 0000.0001)                 2.544372984215561E+05,      /* I =168 */
(PID.TID 0000.0001)                 2.646201463834826E+05,      /* I =169 */
(PID.TID 0000.0001)                 2.734046499619031E+05,      /* I =170 */
(PID.TID 0000.0001)                 2.809019351693761E+05,      /* I =171 */
(PID.TID 0000.0001)                 2.871811105274442E+05,      /* I =172 */
(PID.TID 0000.0001)                 2.922844849381675E+05,      /* I =173 */
(PID.TID 0000.0001)                 2.962371870847826E+05,      /* I =174 */
(PID.TID 0000.0001)                 2.990534755671296E+05,      /* I =175 */
(PID.TID 0000.0001)                 3.007409169495504E+05,      /* I =176 */
(PID.TID 0000.0001)                 3.013031486919771E+05,      /* I =177 */
(PID.TID 0000.0001)                 3.007409169495504E+05,      /* I =178 */
(PID.TID 0000.0001)                 2.990534755671296E+05,      /* I =179 */
(PID.TID 0000.0001)                 2.962371870847826E+05,      /* I =180 */
(PID.TID 0000.0001)                 2.922844849381675E+05,      /* I =181 */
(PID.TID 0000.0001)                 2.871811105274442E+05,      /* I =182 */
(PID.TID 0000.0001)                 2.809019351693761E+05,      /* I =183 */
(PID.TID 0000.0001)                 2.734046499619031E+05,      /* I =184 */
(PID.TID 0000.0001)                 2.646201463834826E+05,      /* I =185 */
(PID.TID 0000.0001)                 2.544372984215561E+05,      /* I =186 */
(PID.TID 0000.0001)                 2.426774358027003E+05,      /* I =187 */
(PID.TID 0000.0001)                 2.290479919481738E+05,      /* I =188 */
(PID.TID 0000.0001)                 2.130490056267208E+05,      /* I =189 */
(PID.TID 0000.0001)                 1.937548202849060E+05,      /* I =190 */
(PID.TID 0000.0001)                 1.691744868129062E+05,      /* I =191 */
(PID.TID 0000.0001)                 1.333130744933864E+05       /* I =192 */
(PID.TID 0000.0001)     ;
(PID.TID 0000.0001) dxV =  /* dxV(1,:,1,:) ( units: m ) */
(PID.TID 0000.0001)                 8.015229982413632E+04,      /* J =  1 */
(PID.TID 0000.0001)                 1.362652340208229E+05,      /* J =  2 */
(PID.TID 0000.0001)                 1.701080315742101E+05,      /* J =  3 */
(PID.TID 0000.0001)                 1.942331448101592E+05,      /* J =  4 */
(PID.TID 0000.0001)                 2.133486626971531E+05,      /* J =  5 */
(PID.TID 0000.0001)                 2.292584591272880E+05,      /* J =  6 */
(PID.TID 0000.0001)                 2.428369969078989E+05,      /* J =  7 */
(PID.TID 0000.0001)                 2.545652950875683E+05,      /* J =  8 */
(PID.TID 0000.0001)                 2.647274964828301E+05,      /* J =  9 */
(PID.TID 0000.0001)                 2.734980225206389E+05,      /* J = 10 */
(PID.TID 0000.0001)                 2.809856491525217E+05,      /* J = 11 */
(PID.TID 0000.0001)                 2.872580915202295E+05,      /* J = 12 */
(PID.TID 0000.0001)                 2.923567890694162E+05,      /* J = 13 */
(PID.TID 0000.0001)                 2.963063101754721E+05,      /* J = 14 */
(PID.TID 0000.0001)                 2.991205495886625E+05,      /* J = 15 */
(PID.TID 0000.0001)                 3.008068453676764E+05,      /* J = 16 */
(PID.TID 0000.0001)                 3.013686170436881E+05,      /* J = 17 */
(PID.TID 0000.0001)                 3.008068453676764E+05,      /* J = 18 */
(PID.TID 0000.0001)                 2.991205495886625E+05,      /* J = 19 */
(PID.TID 0000.0001)                 2.963063101754721E+05,      /* J = 20 */
(PID.TID 0000.0001)                 2.923567890694162E+05,      /* J = 21 */
(PID.TID 0000.0001)                 2.872580915202295E+05,      /* J = 22 */
(PID.TID 0000.0001)                 2.809856491525217E+05,      /* J = 23 */
(PID.TID 0000.0001)                 2.734980225206389E+05,      /* J = 24 */
(PID.TID 0000.0001)                 2.647274964828301E+05,      /* J = 25 */
(PID.TID 0000.0001)                 2.545652950875683E+05,      /* J = 26 */
(PID.TID 0000.0001)                 2.428369969078989E+05,      /* J = 27 */
(PID.TID 0000.0001)                 2.292584591272880E+05,      /* J = 28 */
(PID.TID 0000.0001)                 2.133486626971531E+05,      /* J = 29 */
(PID.TID 0000.0001)                 1.942331448101592E+05,      /* J = 30 */
(PID.TID 0000.0001)                 1.701080315742101E+05,      /* J = 31 */
(PID.TID 0000.0001)                 1.362652340208229E+05       /* J = 32 */
(PID.TID 0000.0001)     ;
(PID.TID 0000.0001) dyU =  /* dyU(:,1,:,1) ( units: m ) */
(PID.TID 0000.0001)                 8.015229982413632E+04,      /* I =  1 */
(PID.TID 0000.0001)                 1.362652340208229E+05,      /* I =  2 */
(PID.TID 0000.0001)                 1.701080315742101E+05,      /* I =  3 */
(PID.TID 0000.0001)                 1.942331448101592E+05,      /* I =  4 */
(PID.TID 0000.0001)                 2.133486626971531E+05,      /* I =  5 */
(PID.TID 0000.0001)                 2.292584591272880E+05,      /* I =  6 */
(PID.TID 0000.0001)                 2.428369969078989E+05,      /* I =  7 */
(PID.TID 0000.0001)                 2.545652950875683E+05,      /* I =  8 */
(PID.TID 0000.0001)                 2.647274964828301E+05,      /* I =  9 */
(PID.TID 0000.0001)                 2.734980225206389E+05,      /* I = 10 */
(PID.TID 0000.0001)                 2.809856491525217E+05,      /* I = 11 */
(PID.TID 0000.0001)                 2.872580915202295E+05,      /* I = 12 */
(PID.TID 0000.0001)                 2.923567890694162E+05,      /* I = 13 */
(PID.TID 0000.0001)                 2.963063101754721E+05,      /* I = 14 */
(PID.TID 0000.0001)                 2.991205495886625E+05,      /* I = 15 */
(PID.TID 0000.0001)                 3.008068453676764E+05,      /* I = 16 */
(PID.TID 0000.0001)                 3.013686170436881E+05,      /* I = 17 */
(PID.TID 0000.0001)                 3.008068453676764E+05,      /* I = 18 */
(PID.TID 0000.0001)                 2.991205495886625E+05,      /* I = 19 */
(PID.TID 0000.0001)                 2.963063101754721E+05,      /* I = 20 */
(PID.TID 0000.0001)                 2.923567890694162E+05,      /* I = 21 */
(PID.TID 0000.0001)                 2.872580915202295E+05,      /* I = 22 */
(PID.TID 0000.0001)                 2.809856491525217E+05,      /* I = 23 */
(PID.TID 0000.0001)                 2.734980225206389E+05,      /* I = 24 */
(PID.TID 0000.0001)                 2.647274964828301E+05,      /* I = 25 */
(PID.TID 0000.0001)                 2.545652950875683E+05,      /* I = 26 */
(PID.TID 0000.0001)                 2.428369969078989E+05,      /* I = 27 */
(PID.TID 0000.0001)                 2.292584591272880E+05,      /* I = 28 */
(PID.TID 0000.0001)                 2.133486626971531E+05,      /* I = 29 */
(PID.TID 0000.0001)                 1.942331448101592E+05,      /* I = 30 */
(PID.TID 0000.0001)                 1.701080315742101E+05,      /* I = 31 */
(PID.TID 0000.0001)                 1.362652340208229E+05,      /* I = 32 */
(PID.TID 0000.0001)                 8.015229982413632E+04,      /* I = 33 */
(PID.TID 0000.0001)                 1.362652340208229E+05,      /* I = 34 */
(PID.TID 0000.0001)                 1.701080315742101E+05,      /* I = 35 */
(PID.TID 0000.0001)                 1.942331448101592E+05,      /* I = 36 */
(PID.TID 0000.0001)                 2.133486626971531E+05,      /* I = 37 */
(PID.TID 0000.0001)                 2.292584591272880E+05,      /* I = 38 */
(PID.TID 0000.0001)                 2.428369969078989E+05,      /* I = 39 */
(PID.TID 0000.0001)                 2.545652950875683E+05,      /* I = 40 */
(PID.TID 0000.0001)                 2.647274964828301E+05,      /* I = 41 */
(PID.TID 0000.0001)                 2.734980225206389E+05,      /* I = 42 */
(PID.TID 0000.0001)                 2.809856491525217E+05,      /* I = 43 */
(PID.TID 0000.0001)                 2.872580915202295E+05,      /* I = 44 */
(PID.TID 0000.0001)                 2.923567890694162E+05,      /* I = 45 */
(PID.TID 0000.0001)                 2.963063101754721E+05,      /* I = 46 */
(PID.TID 0000.0001)                 2.991205495886625E+05,      /* I = 47 */
(PID.TID 0000.0001)                 3.008068453676764E+05,      /* I = 48 */
(PID.TID 0000.0001)                 3.013686170436881E+05,      /* I = 49 */
(PID.TID 0000.0001)                 3.008068453676764E+05,      /* I = 50 */
(PID.TID 0000.0001)                 2.991205495886625E+05,      /* I = 51 */
(PID.TID 0000.0001)                 2.963063101754721E+05,      /* I = 52 */
(PID.TID 0000.0001)                 2.923567890694162E+05,      /* I = 53 */
(PID.TID 0000.0001)                 2.872580915202295E+05,      /* I = 54 */
(PID.TID 0000.0001)                 2.809856491525217E+05,      /* I = 55 */
(PID.TID 0000.0001)                 2.734980225206389E+05,      /* I = 56 */
(PID.TID 0000.0001)                 2.647274964828301E+05,      /* I = 57 */
(PID.TID 0000.0001)                 2.545652950875683E+05,      /* I = 58 */
(PID.TID 0000.0001)                 2.428369969078989E+05,      /* I = 59 */
(PID.TID 0000.0001)                 2.292584591272880E+05,      /* I = 60 */
(PID.TID 0000.0001)                 2.133486626971531E+05,      /* I = 61 */
(PID.TID 0000.0001)                 1.942331448101592E+05,      /* I = 62 */
(PID.TID 0000.0001)                 1.701080315742101E+05,      /* I = 63 */
(PID.TID 0000.0001)                 1.362652340208229E+05,      /* I = 64 */
(PID.TID 0000.0001)                 8.015229982413632E+04,      /* I = 65 */
(PID.TID 0000.0001)                 1.362652340208229E+05,      /* I = 66 */
(PID.TID 0000.0001)                 1.701080315742101E+05,      /* I = 67 */
(PID.TID 0000.0001)                 1.942331448101592E+05,      /* I = 68 */
(PID.TID 0000.0001)                 2.133486626971531E+05,      /* I = 69 */
(PID.TID 0000.0001)                 2.292584591272880E+05,      /* I = 70 */
(PID.TID 0000.0001)                 2.428369969078989E+05,      /* I = 71 */
(PID.TID 0000.0001)                 2.545652950875683E+05,      /* I = 72 */
(PID.TID 0000.0001)                 2.647274964828301E+05,      /* I = 73 */
(PID.TID 0000.0001)                 2.734980225206389E+05,      /* I = 74 */
(PID.TID 0000.0001)                 2.809856491525217E+05,      /* I = 75 */
(PID.TID 0000.0001)                 2.872580915202295E+05,      /* I = 76 */
(PID.TID 0000.0001)                 2.923567890694162E+05,      /* I = 77 */
(PID.TID 0000.0001)                 2.963063101754721E+05,      /* I = 78 */
(PID.TID 0000.0001)                 2.991205495886625E+05,      /* I = 79 */
(PID.TID 0000.0001)                 3.008068453676764E+05,      /* I = 80 */
(PID.TID 0000.0001)                 3.013686170436881E+05,      /* I = 81 */
(PID.TID 0000.0001)                 3.008068453676764E+05,      /* I = 82 */
(PID.TID 0000.0001)                 2.991205495886625E+05,      /* I = 83 */
(PID.TID 0000.0001)                 2.963063101754721E+05,      /* I = 84 */
(PID.TID 0000.0001)                 2.923567890694162E+05,      /* I = 85 */
(PID.TID 0000.0001)                 2.872580915202295E+05,      /* I = 86 */
(PID.TID 0000.0001)                 2.809856491525217E+05,      /* I = 87 */
(PID.TID 0000.0001)                 2.734980225206389E+05,      /* I = 88 */
(PID.TID 0000.0001)                 2.647274964828301E+05,      /* I = 89 */
(PID.TID 0000.0001)                 2.545652950875683E+05,      /* I = 90 */
(PID.TID 0000.0001)                 2.428369969078989E+05,      /* I = 91 */
(PID.TID 0000.0001)                 2.292584591272880E+05,      /* I = 92 */
(PID.TID 0000.0001)                 2.133486626971531E+05,      /* I = 93 */
(PID.TID 0000.0001)                 1.942331448101592E+05,      /* I = 94 */
(PID.TID 0000.0001)                 1.701080315742101E+05,      /* I = 95 */
(PID.TID 0000.0001)                 1.362652340208229E+05,      /* I = 96 */
(PID.TID 0000.0001)                 8.015229982413632E+04,      /* I = 97 */
(PID.TID 0000.0001)                 1.362652340208229E+05,      /* I = 98 */
(PID.TID 0000.0001)                 1.701080315742101E+05,      /* I = 99 */
(PID.TID 0000.0001)                 1.942331448101592E+05,      /* I =100 */
(PID.TID 0000.0001)                 2.133486626971531E+05,      /* I =101 */
(PID.TID 0000.0001)                 2.292584591272880E+05,      /* I =102 */
(PID.TID 0000.0001)                 2.428369969078989E+05,      /* I =103 */
(PID.TID 0000.0001)                 2.545652950875683E+05,      /* I =104 */
(PID.TID 0000.0001)                 2.647274964828301E+05,      /* I =105 */
(PID.TID 0000.0001)                 2.734980225206389E+05,      /* I =106 */
(PID.TID 0000.0001)                 2.809856491525217E+05,      /* I =107 */
(PID.TID 0000.0001)                 2.872580915202295E+05,      /* I =108 */
(PID.TID 0000.0001)                 2.923567890694162E+05,      /* I =109 */
(PID.TID 0000.0001)                 2.963063101754721E+05,      /* I =110 */
(PID.TID 0000.0001)                 2.991205495886625E+05,      /* I =111 */
(PID.TID 0000.0001)                 3.008068453676764E+05,      /* I =112 */
(PID.TID 0000.0001)                 3.013686170436881E+05,      /* I =113 */
(PID.TID 0000.0001)                 3.008068453676764E+05,      /* I =114 */
(PID.TID 0000.0001)                 2.991205495886625E+05,      /* I =115 */
(PID.TID 0000.0001)                 2.963063101754721E+05,      /* I =116 */
(PID.TID 0000.0001)                 2.923567890694162E+05,      /* I =117 */
(PID.TID 0000.0001)                 2.872580915202295E+05,      /* I =118 */
(PID.TID 0000.0001)                 2.809856491525217E+05,      /* I =119 */
(PID.TID 0000.0001)                 2.734980225206389E+05,      /* I =120 */
(PID.TID 0000.0001)                 2.647274964828301E+05,      /* I =121 */
(PID.TID 0000.0001)                 2.545652950875683E+05,      /* I =122 */
(PID.TID 0000.0001)                 2.428369969078989E+05,      /* I =123 */
(PID.TID 0000.0001)                 2.292584591272880E+05,      /* I =124 */
(PID.TID 0000.0001)                 2.133486626971531E+05,      /* I =125 */
(PID.TID 0000.0001)                 1.942331448101592E+05,      /* I =126 */
(PID.TID 0000.0001)                 1.701080315742101E+05,      /* I =127 */
(PID.TID 0000.0001)                 1.362652340208229E+05,      /* I =128 */
(PID.TID 0000.0001)                 8.015229982413632E+04,      /* I =129 */
(PID.TID 0000.0001)                 1.362652340208229E+05,      /* I =130 */
(PID.TID 0000.0001)                 1.701080315742101E+05,      /* I =131 */
(PID.TID 0000.0001)                 1.942331448101592E+05,      /* I =132 */
(PID.TID 0000.0001)                 2.133486626971531E+05,      /* I =133 */
(PID.TID 0000.0001)                 2.292584591272880E+05,      /* I =134 */
(PID.TID 0000.0001)                 2.428369969078989E+05,      /* I =135 */
(PID.TID 0000.0001)                 2.545652950875683E+05,      /* I =136 */
(PID.TID 0000.0001)                 2.647274964828301E+05,      /* I =137 */
(PID.TID 0000.0001)                 2.734980225206389E+05,      /* I =138 */
(PID.TID 0000.0001)                 2.809856491525217E+05,      /* I =139 */
(PID.TID 0000.0001)                 2.872580915202295E+05,      /* I =140 */
(PID.TID 0000.0001)                 2.923567890694162E+05,      /* I =141 */
(PID.TID 0000.0001)                 2.963063101754721E+05,      /* I =142 */
(PID.TID 0000.0001)                 2.991205495886625E+05,      /* I =143 */
(PID.TID 0000.0001)                 3.008068453676764E+05,      /* I =144 */
(PID.TID 0000.0001)                 3.013686170436881E+05,      /* I =145 */
(PID.TID 0000.0001)                 3.008068453676764E+05,      /* I =146 */
(PID.TID 0000.0001)                 2.991205495886625E+05,      /* I =147 */
(PID.TID 0000.0001)                 2.963063101754721E+05,      /* I =148 */
(PID.TID 0000.0001)                 2.923567890694162E+05,      /* I =149 */
(PID.TID 0000.0001)                 2.872580915202295E+05,      /* I =150 */
(PID.TID 0000.0001)                 2.809856491525217E+05,      /* I =151 */
(PID.TID 0000.0001)                 2.734980225206389E+05,      /* I =152 */
(PID.TID 0000.0001)                 2.647274964828301E+05,      /* I =153 */
(PID.TID 0000.0001)                 2.545652950875683E+05,      /* I =154 */
(PID.TID 0000.0001)                 2.428369969078989E+05,      /* I =155 */
(PID.TID 0000.0001)                 2.292584591272880E+05,      /* I =156 */
(PID.TID 0000.0001)                 2.133486626971531E+05,      /* I =157 */
(PID.TID 0000.0001)                 1.942331448101592E+05,      /* I =158 */
(PID.TID 0000.0001)                 1.701080315742101E+05,      /* I =159 */
(PID.TID 0000.0001)                 1.362652340208229E+05,      /* I =160 */
(PID.TID 0000.0001)                 8.015229982413632E+04,      /* I =161 */
(PID.TID 0000.0001)                 1.362652340208229E+05,      /* I =162 */
(PID.TID 0000.0001)                 1.701080315742101E+05,      /* I =163 */
(PID.TID 0000.0001)                 1.942331448101592E+05,      /* I =164 */
(PID.TID 0000.0001)                 2.133486626971531E+05,      /* I =165 */
(PID.TID 0000.0001)                 2.292584591272880E+05,      /* I =166 */
(PID.TID 0000.0001)                 2.428369969078989E+05,      /* I =167 */
(PID.TID 0000.0001)                 2.545652950875683E+05,      /* I =168 */
(PID.TID 0000.0001)                 2.647274964828301E+05,      /* I =169 */
(PID.TID 0000.0001)                 2.734980225206389E+05,      /* I =170 */
(PID.TID 0000.0001)                 2.809856491525217E+05,      /* I =171 */
(PID.TID 0000.0001)                 2.872580915202295E+05,      /* I =172 */
(PID.TID 0000.0001)                 2.923567890694162E+05,      /* I =173 */
(PID.TID 0000.0001)                 2.963063101754721E+05,      /* I =174 */
(PID.TID 0000.0001)                 2.991205495886625E+05,      /* I =175 */
(PID.TID 0000.0001)                 3.008068453676764E+05,      /* I =176 */
(PID.TID 0000.0001)                 3.013686170436881E+05,      /* I =177 */
(PID.TID 0000.0001)                 3.008068453676764E+05,      /* I =178 */
(PID.TID 0000.0001)                 2.991205495886625E+05,      /* I =179 */
(PID.TID 0000.0001)                 2.963063101754721E+05,      /* I =180 */
(PID.TID 0000.0001)                 2.923567890694162E+05,      /* I =181 */
(PID.TID 0000.0001)                 2.872580915202295E+05,      /* I =182 */
(PID.TID 0000.0001)                 2.809856491525217E+05,      /* I =183 */
(PID.TID 0000.0001)                 2.734980225206389E+05,      /* I =184 */
(PID.TID 0000.0001)                 2.647274964828301E+05,      /* I =185 */
(PID.TID 0000.0001)                 2.545652950875683E+05,      /* I =186 */
(PID.TID 0000.0001)                 2.428369969078989E+05,      /* I =187 */
(PID.TID 0000.0001)                 2.292584591272880E+05,      /* I =188 */
(PID.TID 0000.0001)                 2.133486626971531E+05,      /* I =189 */
(PID.TID 0000.0001)                 1.942331448101592E+05,      /* I =190 */
(PID.TID 0000.0001)                 1.701080315742101E+05,      /* I =191 */
(PID.TID 0000.0001)                 1.362652340208229E+05       /* I =192 */
(PID.TID 0000.0001)     ;
(PID.TID 0000.0001) dyU =  /* dyU(1,:,1,:) ( units: m ) */
(PID.TID 0000.0001)                 8.015229982413632E+04,      /* J =  1 */
(PID.TID 0000.0001)                 1.333130744933864E+05,      /* J =  2 */
(PID.TID 0000.0001)                 1.691744868129062E+05,      /* J =  3 */
(PID.TID 0000.0001)                 1.937548202849060E+05,      /* J =  4 */
(PID.TID 0000.0001)                 2.130490056267208E+05,      /* J =  5 */
(PID.TID 0000.0001)                 2.290479919481738E+05,      /* J =  6 */
(PID.TID 0000.0001)                 2.426774358027003E+05,      /* J =  7 */
(PID.TID 0000.0001)                 2.544372984215561E+05,      /* J =  8 */
(PID.TID 0000.0001)                 2.646201463834826E+05,      /* J =  9 */
(PID.TID 0000.0001)                 2.734046499619031E+05,      /* J = 10 */
(PID.TID 0000.0001)                 2.809019351693761E+05,      /* J = 11 */
(PID.TID 0000.0001)                 2.871811105274442E+05,      /* J = 12 */
(PID.TID 0000.0001)                 2.922844849381675E+05,      /* J = 13 */
(PID.TID 0000.0001)                 2.962371870847826E+05,      /* J = 14 */
(PID.TID 0000.0001)                 2.990534755671296E+05,      /* J = 15 */
(PID.TID 0000.0001)                 3.007409169495504E+05,      /* J = 16 */
(PID.TID 0000.0001)                 3.013031486919771E+05,      /* J = 17 */
(PID.TID 0000.0001)                 3.007409169495504E+05,      /* J = 18 */
(PID.TID 0000.0001)                 2.990534755671296E+05,      /* J = 19 */
(PID.TID 0000.0001)                 2.962371870847826E+05,      /* J = 20 */
(PID.TID 0000.0001)                 2.922844849381675E+05,      /* J = 21 */
(PID.TID 0000.0001)                 2.871811105274442E+05,      /* J = 22 */
(PID.TID 0000.0001)                 2.809019351693761E+05,      /* J = 23 */
(PID.TID 0000.0001)                 2.734046499619031E+05,      /* J = 24 */
(PID.TID 0000.0001)                 2.646201463834826E+05,      /* J = 25 */
(PID.TID 0000.0001)                 2.544372984215561E+05,      /* J = 26 */
(PID.TID 0000.0001)                 2.426774358027003E+05,      /* J = 27 */
(PID.TID 0000.0001)                 2.290479919481738E+05,      /* J = 28 */
(PID.TID 0000.0001)                 2.130490056267208E+05,      /* J = 29 */
(PID.TID 0000.0001)                 1.937548202849060E+05,      /* J = 30 */
(PID.TID 0000.0001)                 1.691744868129062E+05,      /* J = 31 */
(PID.TID 0000.0001)                 1.333130744933864E+05       /* J = 32 */
(PID.TID 0000.0001)     ;
(PID.TID 0000.0001) rA  =  /* rA (:,1,:,1) ( units: m^2 ) */
(PID.TID 0000.0001)                 1.401900702255611E+10,      /* I =  1 */
(PID.TID 0000.0001)                 2.459906945574446E+10,      /* I =  2 */
(PID.TID 0000.0001)                 3.378518544307869E+10,      /* I =  3 */
(PID.TID 0000.0001)                 4.192037169898667E+10,      /* I =  4 */
(PID.TID 0000.0001)                 4.925938996118163E+10,      /* I =  5 */
(PID.TID 0000.0001)                 5.594154126607553E+10,      /* I =  6 */
(PID.TID 0000.0001)                 6.203683527772523E+10,      /* I =  7 */
(PID.TID 0000.0001)                 6.757541173817516E+10,      /* I =  8 */
(PID.TID 0000.0001)                 7.256353271748119E+10,      /* I =  9 */
(PID.TID 0000.0001)                 7.699293007098555E+10,      /* I = 10 */
(PID.TID 0000.0001)                 8.084683449728902E+10,      /* I = 11 */
(PID.TID 0000.0001)                 8.410423102796223E+10,      /* I = 12 */
(PID.TID 0000.0001)                 8.674306976737517E+10,      /* I = 13 */
(PID.TID 0000.0001)                 8.874277443041928E+10,      /* I = 14 */
(PID.TID 0000.0001)                 9.008620045350865E+10,      /* I = 15 */
(PID.TID 0000.0001)                 9.076111290418457E+10,      /* I = 16 */
(PID.TID 0000.0001)                 9.076111290422060E+10,      /* I = 17 */
(PID.TID 0000.0001)                 9.008620045354469E+10,      /* I = 18 */
(PID.TID 0000.0001)                 8.874277443041928E+10,      /* I = 19 */
(PID.TID 0000.0001)                 8.674306976741121E+10,      /* I = 20 */
(PID.TID 0000.0001)                 8.410423102799828E+10,      /* I = 21 */
(PID.TID 0000.0001)                 8.084683449728902E+10,      /* I = 22 */
(PID.TID 0000.0001)                 7.699293007098555E+10,      /* I = 23 */
(PID.TID 0000.0001)                 7.256353271748119E+10,      /* I = 24 */
(PID.TID 0000.0001)                 6.757541173817516E+10,      /* I = 25 */
(PID.TID 0000.0001)                 6.203683527772523E+10,      /* I = 26 */
(PID.TID 0000.0001)                 5.594154126611156E+10,      /* I = 27 */
(PID.TID 0000.0001)                 4.925938996118163E+10,      /* I = 28 */
(PID.TID 0000.0001)                 4.192037169898667E+10,      /* I = 29 */
(PID.TID 0000.0001)                 3.378518544304265E+10,      /* I = 30 */
(PID.TID 0000.0001)                 2.459906945574446E+10,      /* I = 31 */
(PID.TID 0000.0001)                 1.401900702259215E+10,      /* I = 32 */
(PID.TID 0000.0001)                 1.401900702255611E+10,      /* I = 33 */
(PID.TID 0000.0001)                 2.459906945574446E+10,      /* I = 34 */
(PID.TID 0000.0001)                 3.378518544307869E+10,      /* I = 35 */
(PID.TID 0000.0001)                 4.192037169898667E+10,      /* I = 36 */
(PID.TID 0000.0001)                 4.925938996118163E+10,      /* I = 37 */
(PID.TID 0000.0001)                 5.594154126607553E+10,      /* I = 38 */
(PID.TID 0000.0001)                 6.203683527772523E+10,      /* I = 39 */
(PID.TID 0000.0001)                 6.757541173817516E+10,      /* I = 40 */
(PID.TID 0000.0001)                 7.256353271748119E+10,      /* I = 41 */
(PID.TID 0000.0001)                 7.699293007098555E+10,      /* I = 42 */
(PID.TID 0000.0001)                 8.084683449728902E+10,      /* I = 43 */
(PID.TID 0000.0001)                 8.410423102796223E+10,      /* I = 44 */
(PID.TID 0000.0001)                 8.674306976737517E+10,      /* I = 45 */
(PID.TID 0000.0001)                 8.874277443041928E+10,      /* I = 46 */
(PID.TID 0000.0001)                 9.008620045350865E+10,      /* I = 47 */
(PID.TID 0000.0001)                 9.076111290418457E+10,      /* I = 48 */
(PID.TID 0000.0001)                 9.076111290422060E+10,      /* I = 49 */
(PID.TID 0000.0001)                 9.008620045354469E+10,      /* I = 50 */
(PID.TID 0000.0001)                 8.874277443041928E+10,      /* I = 51 */
(PID.TID 0000.0001)                 8.674306976741121E+10,      /* I = 52 */
(PID.TID 0000.0001)                 8.410423102799828E+10,      /* I = 53 */
(PID.TID 0000.0001)                 8.084683449728902E+10,      /* I = 54 */
(PID.TID 0000.0001)                 7.699293007098555E+10,      /* I = 55 */
(PID.TID 0000.0001)                 7.256353271748119E+10,      /* I = 56 */
(PID.TID 0000.0001)                 6.757541173817516E+10,      /* I = 57 */
(PID.TID 0000.0001)                 6.203683527772523E+10,      /* I = 58 */
(PID.TID 0000.0001)                 5.594154126611156E+10,      /* I = 59 */
(PID.TID 0000.0001)                 4.925938996118163E+10,      /* I = 60 */
(PID.TID 0000.0001)                 4.192037169898667E+10,      /* I = 61 */
(PID.TID 0000.0001)                 3.378518544304265E+10,      /* I = 62 */
(PID.TID 0000.0001)                 2.459906945574446E+10,      /* I = 63 */
(PID.TID 0000.0001)                 1.401900702259215E+10,      /* I = 64 */
(PID.TID 0000.0001)                 1.401900702255611E+10,      /* I = 65 */
(PID.TID 0000.0001)                 2.459906945574446E+10,      /* I = 66 */
(PID.TID 0000.0001)                 3.378518544307869E+10,      /* I = 67 */
(PID.TID 0000.0001)                 4.192037169898667E+10,      /* I = 68 */
(PID.TID 0000.0001)                 4.925938996118163E+10,      /* I = 69 */
(PID.TID 0000.0001)                 5.594154126607553E+10,      /* I = 70 */
(PID.TID 0000.0001)                 6.203683527772523E+10,      /* I = 71 */
(PID.TID 0000.0001)                 6.757541173817516E+10,      /* I = 72 */
(PID.TID 0000.0001)                 7.256353271748119E+10,      /* I = 73 */
(PID.TID 0000.0001)                 7.699293007098555E+10,      /* I = 74 */
(PID.TID 0000.0001)                 8.084683449728902E+10,      /* I = 75 */
(PID.TID 0000.0001)                 8.410423102796223E+10,      /* I = 76 */
(PID.TID 0000.0001)                 8.674306976737517E+10,      /* I = 77 */
(PID.TID 0000.0001)                 8.874277443041928E+10,      /* I = 78 */
(PID.TID 0000.0001)                 9.008620045350865E+10,      /* I = 79 */
(PID.TID 0000.0001)                 9.076111290418457E+10,      /* I = 80 */
(PID.TID 0000.0001)                 9.076111290422060E+10,      /* I = 81 */
(PID.TID 0000.0001)                 9.008620045354469E+10,      /* I = 82 */
(PID.TID 0000.0001)                 8.874277443041928E+10,      /* I = 83 */
(PID.TID 0000.0001)                 8.674306976741121E+10,      /* I = 84 */
(PID.TID 0000.0001)                 8.410423102799828E+10,      /* I = 85 */
(PID.TID 0000.0001)                 8.084683449728902E+10,      /* I = 86 */
(PID.TID 0000.0001)                 7.699293007098555E+10,      /* I = 87 */
(PID.TID 0000.0001)                 7.256353271748119E+10,      /* I = 88 */
(PID.TID 0000.0001)                 6.757541173817516E+10,      /* I = 89 */
(PID.TID 0000.0001)                 6.203683527772523E+10,      /* I = 90 */
(PID.TID 0000.0001)                 5.594154126611156E+10,      /* I = 91 */
(PID.TID 0000.0001)                 4.925938996118163E+10,      /* I = 92 */
(PID.TID 0000.0001)                 4.192037169898667E+10,      /* I = 93 */
(PID.TID 0000.0001)                 3.378518544304265E+10,      /* I = 94 */
(PID.TID 0000.0001)                 2.459906945574446E+10,      /* I = 95 */
(PID.TID 0000.0001)                 1.401900702259215E+10,      /* I = 96 */
(PID.TID 0000.0001)                 1.401900702255611E+10,      /* I = 97 */
(PID.TID 0000.0001)                 2.459906945574446E+10,      /* I = 98 */
(PID.TID 0000.0001)                 3.378518544307869E+10,      /* I = 99 */
(PID.TID 0000.0001)                 4.192037169898667E+10,      /* I =100 */
(PID.TID 0000.0001)                 4.925938996118163E+10,      /* I =101 */
(PID.TID 0000.0001)                 5.594154126607553E+10,      /* I =102 */
(PID.TID 0000.0001)                 6.203683527772523E+10,      /* I =103 */
(PID.TID 0000.0001)                 6.757541173817516E+10,      /* I =104 */
(PID.TID 0000.0001)                 7.256353271748119E+10,      /* I =105 */
(PID.TID 0000.0001)                 7.699293007098555E+10,      /* I =106 */
(PID.TID 0000.0001)                 8.084683449728902E+10,      /* I =107 */
(PID.TID 0000.0001)                 8.410423102796223E+10,      /* I =108 */
(PID.TID 0000.0001)                 8.674306976737517E+10,      /* I =109 */
(PID.TID 0000.0001)                 8.874277443041928E+10,      /* I =110 */
(PID.TID 0000.0001)                 9.008620045350865E+10,      /* I =111 */
(PID.TID 0000.0001)                 9.076111290418457E+10,      /* I =112 */
(PID.TID 0000.0001)                 9.076111290422060E+10,      /* I =113 */
(PID.TID 0000.0001)                 9.008620045354469E+10,      /* I =114 */
(PID.TID 0000.0001)                 8.874277443041928E+10,      /* I =115 */
(PID.TID 0000.0001)                 8.674306976741121E+10,      /* I =116 */
(PID.TID 0000.0001)                 8.410423102799828E+10,      /* I =117 */
(PID.TID 0000.0001)                 8.084683449728902E+10,      /* I =118 */
(PID.TID 0000.0001)                 7.699293007098555E+10,      /* I =119 */
(PID.TID 0000.0001)                 7.256353271748119E+10,      /* I =120 */
(PID.TID 0000.0001)                 6.757541173817516E+10,      /* I =121 */
(PID.TID 0000.0001)                 6.203683527772523E+10,      /* I =122 */
(PID.TID 0000.0001)                 5.594154126611156E+10,      /* I =123 */
(PID.TID 0000.0001)                 4.925938996118163E+10,      /* I =124 */
(PID.TID 0000.0001)                 4.192037169898667E+10,      /* I =125 */
(PID.TID 0000.0001)                 3.378518544304265E+10,      /* I =126 */
(PID.TID 0000.0001)                 2.459906945574446E+10,      /* I =127 */
(PID.TID 0000.0001)                 1.401900702259215E+10,      /* I =128 */
(PID.TID 0000.0001)                 1.401900702255611E+10,      /* I =129 */
(PID.TID 0000.0001)                 2.459906945574446E+10,      /* I =130 */
(PID.TID 0000.0001)                 3.378518544307869E+10,      /* I =131 */
(PID.TID 0000.0001)                 4.192037169898667E+10,      /* I =132 */
(PID.TID 0000.0001)                 4.925938996118163E+10,      /* I =133 */
(PID.TID 0000.0001)                 5.594154126607553E+10,      /* I =134 */
(PID.TID 0000.0001)                 6.203683527772523E+10,      /* I =135 */
(PID.TID 0000.0001)                 6.757541173817516E+10,      /* I =136 */
(PID.TID 0000.0001)                 7.256353271748119E+10,      /* I =137 */
(PID.TID 0000.0001)                 7.699293007098555E+10,      /* I =138 */
(PID.TID 0000.0001)                 8.084683449728902E+10,      /* I =139 */
(PID.TID 0000.0001)                 8.410423102796223E+10,      /* I =140 */
(PID.TID 0000.0001)                 8.674306976737517E+10,      /* I =141 */
(PID.TID 0000.0001)                 8.874277443041928E+10,      /* I =142 */
(PID.TID 0000.0001)                 9.008620045350865E+10,      /* I =143 */
(PID.TID 0000.0001)                 9.076111290418457E+10,      /* I =144 */
(PID.TID 0000.0001)                 9.076111290422060E+10,      /* I =145 */
(PID.TID 0000.0001)                 9.008620045354469E+10,      /* I =146 */
(PID.TID 0000.0001)                 8.874277443041928E+10,      /* I =147 */
(PID.TID 0000.0001)                 8.674306976741121E+10,      /* I =148 */
(PID.TID 0000.0001)                 8.410423102799828E+10,      /* I =149 */
(PID.TID 0000.0001)                 8.084683449728902E+10,      /* I =150 */
(PID.TID 0000.0001)                 7.699293007098555E+10,      /* I =151 */
(PID.TID 0000.0001)                 7.256353271748119E+10,      /* I =152 */
(PID.TID 0000.0001)                 6.757541173817516E+10,      /* I =153 */
(PID.TID 0000.0001)                 6.203683527772523E+10,      /* I =154 */
(PID.TID 0000.0001)                 5.594154126611156E+10,      /* I =155 */
(PID.TID 0000.0001)                 4.925938996118163E+10,      /* I =156 */
(PID.TID 0000.0001)                 4.192037169898667E+10,      /* I =157 */
(PID.TID 0000.0001)                 3.378518544304265E+10,      /* I =158 */
(PID.TID 0000.0001)                 2.459906945574446E+10,      /* I =159 */
(PID.TID 0000.0001)                 1.401900702259215E+10,      /* I =160 */
(PID.TID 0000.0001)                 1.401900702255611E+10,      /* I =161 */
(PID.TID 0000.0001)                 2.459906945574446E+10,      /* I =162 */
(PID.TID 0000.0001)                 3.378518544307869E+10,      /* I =163 */
(PID.TID 0000.0001)                 4.192037169898667E+10,      /* I =164 */
(PID.TID 0000.0001)                 4.925938996118163E+10,      /* I =165 */
(PID.TID 0000.0001)                 5.594154126607553E+10,      /* I =166 */
(PID.TID 0000.0001)                 6.203683527772523E+10,      /* I =167 */
(PID.TID 0000.0001)                 6.757541173817516E+10,      /* I =168 */
(PID.TID 0000.0001)                 7.256353271748119E+10,      /* I =169 */
(PID.TID 0000.0001)                 7.699293007098555E+10,      /* I =170 */
(PID.TID 0000.0001)                 8.084683449728902E+10,      /* I =171 */
(PID.TID 0000.0001)                 8.410423102796223E+10,      /* I =172 */
(PID.TID 0000.0001)                 8.674306976737517E+10,      /* I =173 */
(PID.TID 0000.0001)                 8.874277443041928E+10,      /* I =174 */
(PID.TID 0000.0001)                 9.008620045350865E+10,      /* I =175 */
(PID.TID 0000.0001)                 9.076111290418457E+10,      /* I =176 */
(PID.TID 0000.0001)                 9.076111290422060E+10,      /* I =177 */
(PID.TID 0000.0001)                 9.008620045354469E+10,      /* I =178 */
(PID.TID 0000.0001)                 8.874277443041928E+10,      /* I =179 */
(PID.TID 0000.0001)                 8.674306976741121E+10,      /* I =180 */
(PID.TID 0000.0001)                 8.410423102799828E+10,      /* I =181 */
(PID.TID 0000.0001)                 8.084683449728902E+10,      /* I =182 */
(PID.TID 0000.0001)                 7.699293007098555E+10,      /* I =183 */
(PID.TID 0000.0001)                 7.256353271748119E+10,      /* I =184 */
(PID.TID 0000.0001)                 6.757541173817516E+10,      /* I =185 */
(PID.TID 0000.0001)                 6.203683527772523E+10,      /* I =186 */
(PID.TID 0000.0001)                 5.594154126611156E+10,      /* I =187 */
(PID.TID 0000.0001)                 4.925938996118163E+10,      /* I =188 */
(PID.TID 0000.0001)                 4.192037169898667E+10,      /* I =189 */
(PID.TID 0000.0001)                 3.378518544304265E+10,      /* I =190 */
(PID.TID 0000.0001)                 2.459906945574446E+10,      /* I =191 */
(PID.TID 0000.0001)                 1.401900702259215E+10       /* I =192 */
(PID.TID 0000.0001)     ;
(PID.TID 0000.0001) rA  =  /* rA (1,:,1,:) ( units: m^2 ) */
(PID.TID 0000.0001)                 1.401900702255611E+10,      /* J =  1 */
(PID.TID 0000.0001)                 2.459906945574446E+10,      /* J =  2 */
(PID.TID 0000.0001)                 3.378518544307869E+10,      /* J =  3 */
(PID.TID 0000.0001)                 4.192037169898667E+10,      /* J =  4 */
(PID.TID 0000.0001)                 4.925938996118163E+10,      /* J =  5 */
(PID.TID 0000.0001)                 5.594154126607553E+10,      /* J =  6 */
(PID.TID 0000.0001)                 6.203683527776127E+10,      /* J =  7 */
(PID.TID 0000.0001)                 6.757541173817516E+10,      /* J =  8 */
(PID.TID 0000.0001)                 7.256353271748119E+10,      /* J =  9 */
(PID.TID 0000.0001)                 7.699293007098555E+10,      /* J = 10 */
(PID.TID 0000.0001)                 8.084683449728902E+10,      /* J = 11 */
(PID.TID 0000.0001)                 8.410423102799828E+10,      /* J = 12 */
(PID.TID 0000.0001)                 8.674306976737517E+10,      /* J = 13 */
(PID.TID 0000.0001)                 8.874277443041928E+10,      /* J = 14 */
(PID.TID 0000.0001)                 9.008620045350865E+10,      /* J = 15 */
(PID.TID 0000.0001)                 9.076111290418457E+10,      /* J = 16 */
(PID.TID 0000.0001)                 9.076111290422060E+10,      /* J = 17 */
(PID.TID 0000.0001)                 9.008620045354469E+10,      /* J = 18 */
(PID.TID 0000.0001)                 8.874277443041928E+10,      /* J = 19 */
(PID.TID 0000.0001)                 8.674306976737517E+10,      /* J = 20 */
(PID.TID 0000.0001)                 8.410423102799828E+10,      /* J = 21 */
(PID.TID 0000.0001)                 8.084683449728902E+10,      /* J = 22 */
(PID.TID 0000.0001)                 7.699293007098555E+10,      /* J = 23 */
(PID.TID 0000.0001)                 7.256353271748119E+10,      /* J = 24 */
(PID.TID 0000.0001)                 6.757541173817516E+10,      /* J = 25 */
(PID.TID 0000.0001)                 6.203683527772523E+10,      /* J = 26 */
(PID.TID 0000.0001)                 5.594154126607553E+10,      /* J = 27 */
(PID.TID 0000.0001)                 4.925938996118163E+10,      /* J = 28 */
(PID.TID 0000.0001)                 4.192037169898667E+10,      /* J = 29 */
(PID.TID 0000.0001)                 3.378518544307869E+10,      /* J = 30 */
(PID.TID 0000.0001)                 2.459906945574446E+10,      /* J = 31 */
(PID.TID 0000.0001)                 1.401900702259215E+10       /* J = 32 */
(PID.TID 0000.0001)     ;
(PID.TID 0000.0001) rAw =  /* rAw(:,1,:,1) ( units: m^2 ) */
(PID.TID 0000.0001)                 1.216690346714270E+10,      /* I =  1 */
(PID.TID 0000.0001)                 1.974052138506315E+10,      /* I =  2 */
(PID.TID 0000.0001)                 2.943712825252015E+10,      /* I =  3 */
(PID.TID 0000.0001)                 3.801790263324359E+10,      /* I =  4 */
(PID.TID 0000.0001)                 4.571243814189866E+10,      /* I =  5 */
(PID.TID 0000.0001)                 5.269930713599979E+10,      /* I =  6 */
(PID.TID 0000.0001)                 5.907428494299063E+10,      /* I =  7 */
(PID.TID 0000.0001)                 6.488320895111514E+10,      /* I =  8 */
(PID.TID 0000.0001)                 7.014205907741882E+10,      /* I =  9 */
(PID.TID 0000.0001)                 7.484854821847499E+10,      /* I = 10 */
(PID.TID 0000.0001)                 7.898934631431560E+10,      /* I = 11 */
(PID.TID 0000.0001)                 8.254500894894537E+10,      /* I = 12 */
(PID.TID 0000.0001)                 8.549360686473492E+10,      /* I = 13 */
(PID.TID 0000.0001)                 8.781353403175085E+10,      /* I = 14 */
(PID.TID 0000.0001)                 8.948571540392021E+10,      /* I = 15 */
(PID.TID 0000.0001)                 9.049530583086168E+10,      /* I = 16 */
(PID.TID 0000.0001)                 9.083293515008307E+10,      /* I = 17 */
(PID.TID 0000.0001)                 9.049530583087070E+10,      /* I = 18 */
(PID.TID 0000.0001)                 8.948571540391121E+10,      /* I = 19 */
(PID.TID 0000.0001)                 8.781353403174185E+10,      /* I = 20 */
(PID.TID 0000.0001)                 8.549360686467184E+10,      /* I = 21 */
(PID.TID 0000.0001)                 8.254500894890933E+10,      /* I = 22 */
(PID.TID 0000.0001)                 7.898934631434262E+10,      /* I = 23 */
(PID.TID 0000.0001)                 7.484854821844795E+10,      /* I = 24 */
(PID.TID 0000.0001)                 7.014205907742783E+10,      /* I = 25 */
(PID.TID 0000.0001)                 6.488320895111514E+10,      /* I = 26 */
(PID.TID 0000.0001)                 5.907428494299063E+10,      /* I = 27 */
(PID.TID 0000.0001)                 5.269930713599078E+10,      /* I = 28 */
(PID.TID 0000.0001)                 4.571243814190767E+10,      /* I = 29 */
(PID.TID 0000.0001)                 3.801790263325260E+10,      /* I = 30 */
(PID.TID 0000.0001)                 2.943712825251114E+10,      /* I = 31 */
(PID.TID 0000.0001)                 1.974052138509018E+10,      /* I = 32 */
(PID.TID 0000.0001)                 1.216690346714270E+10,      /* I = 33 */
(PID.TID 0000.0001)                 1.974052138506315E+10,      /* I = 34 */
(PID.TID 0000.0001)                 2.943712825252015E+10,      /* I = 35 */
(PID.TID 0000.0001)                 3.801790263324359E+10,      /* I = 36 */
(PID.TID 0000.0001)                 4.571243814189866E+10,      /* I = 37 */
(PID.TID 0000.0001)                 5.269930713599979E+10,      /* I = 38 */
(PID.TID 0000.0001)                 5.907428494299063E+10,      /* I = 39 */
(PID.TID 0000.0001)                 6.488320895111514E+10,      /* I = 40 */
(PID.TID 0000.0001)                 7.014205907741882E+10,      /* I = 41 */
(PID.TID 0000.0001)                 7.484854821847499E+10,      /* I = 42 */
(PID.TID 0000.0001)                 7.898934631431560E+10,      /* I = 43 */
(PID.TID 0000.0001)                 8.254500894894537E+10,      /* I = 44 */
(PID.TID 0000.0001)                 8.549360686473492E+10,      /* I = 45 */
(PID.TID 0000.0001)                 8.781353403175085E+10,      /* I = 46 */
(PID.TID 0000.0001)                 8.948571540392021E+10,      /* I = 47 */
(PID.TID 0000.0001)                 9.049530583086168E+10,      /* I = 48 */
(PID.TID 0000.0001)                 9.083293515008307E+10,      /* I = 49 */
(PID.TID 0000.0001)                 9.049530583087070E+10,      /* I = 50 */
(PID.TID 0000.0001)                 8.948571540391121E+10,      /* I = 51 */
(PID.TID 0000.0001)                 8.781353403174185E+10,      /* I = 52 */
(PID.TID 0000.0001)                 8.549360686467184E+10,      /* I = 53 */
(PID.TID 0000.0001)                 8.254500894890933E+10,      /* I = 54 */
(PID.TID 0000.0001)                 7.898934631434262E+10,      /* I = 55 */
(PID.TID 0000.0001)                 7.484854821844795E+10,      /* I = 56 */
(PID.TID 0000.0001)                 7.014205907742783E+10,      /* I = 57 */
(PID.TID 0000.0001)                 6.488320895111514E+10,      /* I = 58 */
(PID.TID 0000.0001)                 5.907428494299063E+10,      /* I = 59 */
(PID.TID 0000.0001)                 5.269930713599078E+10,      /* I = 60 */
(PID.TID 0000.0001)                 4.571243814190767E+10,      /* I = 61 */
(PID.TID 0000.0001)                 3.801790263325260E+10,      /* I = 62 */
(PID.TID 0000.0001)                 2.943712825251114E+10,      /* I = 63 */
(PID.TID 0000.0001)                 1.974052138509018E+10,      /* I = 64 */
(PID.TID 0000.0001)                 1.216690346714270E+10,      /* I = 65 */
(PID.TID 0000.0001)                 1.974052138506315E+10,      /* I = 66 */
(PID.TID 0000.0001)                 2.943712825252015E+10,      /* I = 67 */
(PID.TID 0000.0001)                 3.801790263324359E+10,      /* I = 68 */
(PID.TID 0000.0001)                 4.571243814189866E+10,      /* I = 69 */
(PID.TID 0000.0001)                 5.269930713599979E+10,      /* I = 70 */
(PID.TID 0000.0001)                 5.907428494299063E+10,      /* I = 71 */
(PID.TID 0000.0001)                 6.488320895111514E+10,      /* I = 72 */
(PID.TID 0000.0001)                 7.014205907741882E+10,      /* I = 73 */
(PID.TID 0000.0001)                 7.484854821847499E+10,      /* I = 74 */
(PID.TID 0000.0001)                 7.898934631431560E+10,      /* I = 75 */
(PID.TID 0000.0001)                 8.254500894894537E+10,      /* I = 76 */
(PID.TID 0000.0001)                 8.549360686473492E+10,      /* I = 77 */
(PID.TID 0000.0001)                 8.781353403175085E+10,      /* I = 78 */
(PID.TID 0000.0001)                 8.948571540392021E+10,      /* I = 79 */
(PID.TID 0000.0001)                 9.049530583086168E+10,      /* I = 80 */
(PID.TID 0000.0001)                 9.083293515008307E+10,      /* I = 81 */
(PID.TID 0000.0001)                 9.049530583087070E+10,      /* I = 82 */
(PID.TID 0000.0001)                 8.948571540391121E+10,      /* I = 83 */
(PID.TID 0000.0001)                 8.781353403174185E+10,      /* I = 84 */
(PID.TID 0000.0001)                 8.549360686467184E+10,      /* I = 85 */
(PID.TID 0000.0001)                 8.254500894890933E+10,      /* I = 86 */
(PID.TID 0000.0001)                 7.898934631434262E+10,      /* I = 87 */
(PID.TID 0000.0001)                 7.484854821844795E+10,      /* I = 88 */
(PID.TID 0000.0001)                 7.014205907742783E+10,      /* I = 89 */
(PID.TID 0000.0001)                 6.488320895111514E+10,      /* I = 90 */
(PID.TID 0000.0001)                 5.907428494299063E+10,      /* I = 91 */
(PID.TID 0000.0001)                 5.269930713599078E+10,      /* I = 92 */
(PID.TID 0000.0001)                 4.571243814190767E+10,      /* I = 93 */
(PID.TID 0000.0001)                 3.801790263325260E+10,      /* I = 94 */
(PID.TID 0000.0001)                 2.943712825251114E+10,      /* I = 95 */
(PID.TID 0000.0001)                 1.974052138509018E+10,      /* I = 96 */
(PID.TID 0000.0001)                 1.216690346714270E+10,      /* I = 97 */
(PID.TID 0000.0001)                 1.974052138506315E+10,      /* I = 98 */
(PID.TID 0000.0001)                 2.943712825252015E+10,      /* I = 99 */
(PID.TID 0000.0001)                 3.801790263324359E+10,      /* I =100 */
(PID.TID 0000.0001)                 4.571243814189866E+10,      /* I =101 */
(PID.TID 0000.0001)                 5.269930713599979E+10,      /* I =102 */
(PID.TID 0000.0001)                 5.907428494299063E+10,      /* I =103 */
(PID.TID 0000.0001)                 6.488320895111514E+10,      /* I =104 */
(PID.TID 0000.0001)                 7.014205907741882E+10,      /* I =105 */
(PID.TID 0000.0001)                 7.484854821847499E+10,      /* I =106 */
(PID.TID 0000.0001)                 7.898934631431560E+10,      /* I =107 */
(PID.TID 0000.0001)                 8.254500894894537E+10,      /* I =108 */
(PID.TID 0000.0001)                 8.549360686473492E+10,      /* I =109 */
(PID.TID 0000.0001)                 8.781353403175085E+10,      /* I =110 */
(PID.TID 0000.0001)                 8.948571540392021E+10,      /* I =111 */
(PID.TID 0000.0001)                 9.049530583086168E+10,      /* I =112 */
(PID.TID 0000.0001)                 9.083293515008307E+10,      /* I =113 */
(PID.TID 0000.0001)                 9.049530583087070E+10,      /* I =114 */
(PID.TID 0000.0001)                 8.948571540391121E+10,      /* I =115 */
(PID.TID 0000.0001)                 8.781353403174185E+10,      /* I =116 */
(PID.TID 0000.0001)                 8.549360686467184E+10,      /* I =117 */
(PID.TID 0000.0001)                 8.254500894890933E+10,      /* I =118 */
(PID.TID 0000.0001)                 7.898934631434262E+10,      /* I =119 */
(PID.TID 0000.0001)                 7.484854821844795E+10,      /* I =120 */
(PID.TID 0000.0001)                 7.014205907742783E+10,      /* I =121 */
(PID.TID 0000.0001)                 6.488320895111514E+10,      /* I =122 */
(PID.TID 0000.0001)                 5.907428494299063E+10,      /* I =123 */
(PID.TID 0000.0001)                 5.269930713599078E+10,      /* I =124 */
(PID.TID 0000.0001)                 4.571243814190767E+10,      /* I =125 */
(PID.TID 0000.0001)                 3.801790263325260E+10,      /* I =126 */
(PID.TID 0000.0001)                 2.943712825251114E+10,      /* I =127 */
(PID.TID 0000.0001)                 1.974052138509018E+10,      /* I =128 */
(PID.TID 0000.0001)                 1.216690346714270E+10,      /* I =129 */
(PID.TID 0000.0001)                 1.974052138506315E+10,      /* I =130 */
(PID.TID 0000.0001)                 2.943712825252015E+10,      /* I =131 */
(PID.TID 0000.0001)                 3.801790263324359E+10,      /* I =132 */
(PID.TID 0000.0001)                 4.571243814189866E+10,      /* I =133 */
(PID.TID 0000.0001)                 5.269930713599979E+10,      /* I =134 */
(PID.TID 0000.0001)                 5.907428494299063E+10,      /* I =135 */
(PID.TID 0000.0001)                 6.488320895111514E+10,      /* I =136 */
(PID.TID 0000.0001)                 7.014205907741882E+10,      /* I =137 */
(PID.TID 0000.0001)                 7.484854821847499E+10,      /* I =138 */
(PID.TID 0000.0001)                 7.898934631431560E+10,      /* I =139 */
(PID.TID 0000.0001)                 8.254500894894537E+10,      /* I =140 */
(PID.TID 0000.0001)                 8.549360686473492E+10,      /* I =141 */
(PID.TID 0000.0001)                 8.781353403175085E+10,      /* I =142 */
(PID.TID 0000.0001)                 8.948571540392021E+10,      /* I =143 */
(PID.TID 0000.0001)                 9.049530583086168E+10,      /* I =144 */
(PID.TID 0000.0001)                 9.083293515008307E+10,      /* I =145 */
(PID.TID 0000.0001)                 9.049530583087070E+10,      /* I =146 */
(PID.TID 0000.0001)                 8.948571540391121E+10,      /* I =147 */
(PID.TID 0000.0001)                 8.781353403174185E+10,      /* I =148 */
(PID.TID 0000.0001)                 8.549360686467184E+10,      /* I =149 */
(PID.TID 0000.0001)                 8.254500894890933E+10,      /* I =150 */
(PID.TID 0000.0001)                 7.898934631434262E+10,      /* I =151 */
(PID.TID 0000.0001)                 7.484854821844795E+10,      /* I =152 */
(PID.TID 0000.0001)                 7.014205907742783E+10,      /* I =153 */
(PID.TID 0000.0001)                 6.488320895111514E+10,      /* I =154 */
(PID.TID 0000.0001)                 5.907428494299063E+10,      /* I =155 */
(PID.TID 0000.0001)                 5.269930713599078E+10,      /* I =156 */
(PID.TID 0000.0001)                 4.571243814190767E+10,      /* I =157 */
(PID.TID 0000.0001)                 3.801790263325260E+10,      /* I =158 */
(PID.TID 0000.0001)                 2.943712825251114E+10,      /* I =159 */
(PID.TID 0000.0001)                 1.974052138509018E+10,      /* I =160 */
(PID.TID 0000.0001)                 1.216690346714270E+10,      /* I =161 */
(PID.TID 0000.0001)                 1.974052138506315E+10,      /* I =162 */
(PID.TID 0000.0001)                 2.943712825252015E+10,      /* I =163 */
(PID.TID 0000.0001)                 3.801790263324359E+10,      /* I =164 */
(PID.TID 0000.0001)                 4.571243814189866E+10,      /* I =165 */
(PID.TID 0000.0001)                 5.269930713599979E+10,      /* I =166 */
(PID.TID 0000.0001)                 5.907428494299063E+10,      /* I =167 */
(PID.TID 0000.0001)                 6.488320895111514E+10,      /* I =168 */
(PID.TID 0000.0001)                 7.014205907741882E+10,      /* I =169 */
(PID.TID 0000.0001)                 7.484854821847499E+10,      /* I =170 */
(PID.TID 0000.0001)                 7.898934631431560E+10,      /* I =171 */
(PID.TID 0000.0001)                 8.254500894894537E+10,      /* I =172 */
(PID.TID 0000.0001)                 8.549360686473492E+10,      /* I =173 */
(PID.TID 0000.0001)                 8.781353403175085E+10,      /* I =174 */
(PID.TID 0000.0001)                 8.948571540392021E+10,      /* I =175 */
(PID.TID 0000.0001)                 9.049530583086168E+10,      /* I =176 */
(PID.TID 0000.0001)                 9.083293515008307E+10,      /* I =177 */
(PID.TID 0000.0001)                 9.049530583087070E+10,      /* I =178 */
(PID.TID 0000.0001)                 8.948571540391121E+10,      /* I =179 */
(PID.TID 0000.0001)                 8.781353403174185E+10,      /* I =180 */
(PID.TID 0000.0001)                 8.549360686467184E+10,      /* I =181 */
(PID.TID 0000.0001)                 8.254500894890933E+10,      /* I =182 */
(PID.TID 0000.0001)                 7.898934631434262E+10,      /* I =183 */
(PID.TID 0000.0001)                 7.484854821844795E+10,      /* I =184 */
(PID.TID 0000.0001)                 7.014205907742783E+10,      /* I =185 */
(PID.TID 0000.0001)                 6.488320895111514E+10,      /* I =186 */
(PID.TID 0000.0001)                 5.907428494299063E+10,      /* I =187 */
(PID.TID 0000.0001)                 5.269930713599078E+10,      /* I =188 */
(PID.TID 0000.0001)                 4.571243814190767E+10,      /* I =189 */
(PID.TID 0000.0001)                 3.801790263325260E+10,      /* I =190 */
(PID.TID 0000.0001)                 2.943712825251114E+10,      /* I =191 */
(PID.TID 0000.0001)                 1.974052138509018E+10       /* I =192 */
(PID.TID 0000.0001)     ;
(PID.TID 0000.0001) rAw =  /* rAw(1,:,1,:) ( units: m^2 ) */
(PID.TID 0000.0001)                 1.216690346714270E+10,      /* J =  1 */
(PID.TID 0000.0001)                 2.390126200743558E+10,      /* J =  2 */
(PID.TID 0000.0001)                 3.341968103208270E+10,      /* J =  3 */
(PID.TID 0000.0001)                 4.168532893152940E+10,      /* J =  4 */
(PID.TID 0000.0001)                 4.909074590409593E+10,      /* J =  5 */
(PID.TID 0000.0001)                 5.581203765722643E+10,      /* J =  6 */
(PID.TID 0000.0001)                 6.193257577506788E+10,      /* J =  7 */
(PID.TID 0000.0001)                 6.748840226738273E+10,      /* J =  8 */
(PID.TID 0000.0001)                 7.248875782324815E+10,      /* J =  9 */
(PID.TID 0000.0001)                 7.692702995909871E+10,      /* J = 10 */
(PID.TID 0000.0001)                 8.078743937057304E+10,      /* J = 11 */
(PID.TID 0000.0001)                 8.404959656062837E+10,      /* J = 12 */
(PID.TID 0000.0001)                 8.669186205742538E+10,      /* J = 13 */
(PID.TID 0000.0001)                 8.869393350723613E+10,      /* J = 14 */
(PID.TID 0000.0001)                 9.003884657168852E+10,      /* J = 15 */
(PID.TID 0000.0001)     2 @  9.071447638299399E+10,             /* J = 16: 17 */
(PID.TID 0000.0001)                 9.003884657168852E+10,      /* J = 18 */
(PID.TID 0000.0001)                 8.869393350723613E+10,      /* J = 19 */
(PID.TID 0000.0001)                 8.669186205742538E+10,      /* J = 20 */
(PID.TID 0000.0001)                 8.404959656062837E+10,      /* J = 21 */
(PID.TID 0000.0001)                 8.078743937057304E+10,      /* J = 22 */
(PID.TID 0000.0001)                 7.692702995909871E+10,      /* J = 23 */
(PID.TID 0000.0001)                 7.248875782324815E+10,      /* J = 24 */
(PID.TID 0000.0001)                 6.748840226738273E+10,      /* J = 25 */
(PID.TID 0000.0001)                 6.193257577506788E+10,      /* J = 26 */
(PID.TID 0000.0001)                 5.581203765722643E+10,      /* J = 27 */
(PID.TID 0000.0001)                 4.909074590409593E+10,      /* J = 28 */
(PID.TID 0000.0001)                 4.168532893152940E+10,      /* J = 29 */
(PID.TID 0000.0001)                 3.341968103208270E+10,      /* J = 30 */
(PID.TID 0000.0001)                 2.390126200743558E+10,      /* J = 31 */
(PID.TID 0000.0001)                 1.216690346714270E+10       /* J = 32 */
(PID.TID 0000.0001)     ;
(PID.TID 0000.0001) rAs =  /* rAs(:,1,:,1) ( units: m^2 ) */
(PID.TID 0000.0001)                 1.216690346714270E+10,      /* I =  1 */
(PID.TID 0000.0001)                 2.390126200743558E+10,      /* I =  2 */
(PID.TID 0000.0001)                 3.341968103208270E+10,      /* I =  3 */
(PID.TID 0000.0001)                 4.168532893152940E+10,      /* I =  4 */
(PID.TID 0000.0001)                 4.909074590409593E+10,      /* I =  5 */
(PID.TID 0000.0001)                 5.581203765722643E+10,      /* I =  6 */
(PID.TID 0000.0001)                 6.193257577506788E+10,      /* I =  7 */
(PID.TID 0000.0001)                 6.748840226738273E+10,      /* I =  8 */
(PID.TID 0000.0001)                 7.248875782324815E+10,      /* I =  9 */
(PID.TID 0000.0001)                 7.692702995909871E+10,      /* I = 10 */
(PID.TID 0000.0001)                 8.078743937057304E+10,      /* I = 11 */
(PID.TID 0000.0001)                 8.404959656062837E+10,      /* I = 12 */
(PID.TID 0000.0001)                 8.669186205742538E+10,      /* I = 13 */
(PID.TID 0000.0001)                 8.869393350723613E+10,      /* I = 14 */
(PID.TID 0000.0001)                 9.003884657168852E+10,      /* I = 15 */
(PID.TID 0000.0001)     2 @  9.071447638299399E+10,             /* I = 16: 17 */
(PID.TID 0000.0001)                 9.003884657168852E+10,      /* I = 18 */
(PID.TID 0000.0001)                 8.869393350723613E+10,      /* I = 19 */
(PID.TID 0000.0001)                 8.669186205742538E+10,      /* I = 20 */
(PID.TID 0000.0001)                 8.404959656062837E+10,      /* I = 21 */
(PID.TID 0000.0001)                 8.078743937057304E+10,      /* I = 22 */
(PID.TID 0000.0001)                 7.692702995909871E+10,      /* I = 23 */
(PID.TID 0000.0001)                 7.248875782324815E+10,      /* I = 24 */
(PID.TID 0000.0001)                 6.748840226738273E+10,      /* I = 25 */
(PID.TID 0000.0001)                 6.193257577506788E+10,      /* I = 26 */
(PID.TID 0000.0001)                 5.581203765722643E+10,      /* I = 27 */
(PID.TID 0000.0001)                 4.909074590409593E+10,      /* I = 28 */
(PID.TID 0000.0001)                 4.168532893152940E+10,      /* I = 29 */
(PID.TID 0000.0001)                 3.341968103208270E+10,      /* I = 30 */
(PID.TID 0000.0001)                 2.390126200743558E+10,      /* I = 31 */
(PID.TID 0000.0001)     2 @  1.216690346714270E+10,             /* I = 32: 33 */
(PID.TID 0000.0001)                 2.390126200743558E+10,      /* I = 34 */
(PID.TID 0000.0001)                 3.341968103208270E+10,      /* I = 35 */
(PID.TID 0000.0001)                 4.168532893152940E+10,      /* I = 36 */
(PID.TID 0000.0001)                 4.909074590409593E+10,      /* I = 37 */
(PID.TID 0000.0001)                 5.581203765722643E+10,      /* I = 38 */
(PID.TID 0000.0001)                 6.193257577506788E+10,      /* I = 39 */
(PID.TID 0000.0001)                 6.748840226738273E+10,      /* I = 40 */
(PID.TID 0000.0001)                 7.248875782324815E+10,      /* I = 41 */
(PID.TID 0000.0001)                 7.692702995909871E+10,      /* I = 42 */
(PID.TID 0000.0001)                 8.078743937057304E+10,      /* I = 43 */
(PID.TID 0000.0001)                 8.404959656062837E+10,      /* I = 44 */
(PID.TID 0000.0001)                 8.669186205742538E+10,      /* I = 45 */
(PID.TID 0000.0001)                 8.869393350723613E+10,      /* I = 46 */
(PID.TID 0000.0001)                 9.003884657168852E+10,      /* I = 47 */
(PID.TID 0000.0001)     2 @  9.071447638299399E+10,             /* I = 48: 49 */
(PID.TID 0000.0001)                 9.003884657168852E+10,      /* I = 50 */
(PID.TID 0000.0001)                 8.869393350723613E+10,      /* I = 51 */
(PID.TID 0000.0001)                 8.669186205742538E+10,      /* I = 52 */
(PID.TID 0000.0001)                 8.404959656062837E+10,      /* I = 53 */
(PID.TID 0000.0001)                 8.078743937057304E+10,      /* I = 54 */
(PID.TID 0000.0001)                 7.692702995909871E+10,      /* I = 55 */
(PID.TID 0000.0001)                 7.248875782324815E+10,      /* I = 56 */
(PID.TID 0000.0001)                 6.748840226738273E+10,      /* I = 57 */
(PID.TID 0000.0001)                 6.193257577506788E+10,      /* I = 58 */
(PID.TID 0000.0001)                 5.581203765722643E+10,      /* I = 59 */
(PID.TID 0000.0001)                 4.909074590409593E+10,      /* I = 60 */
(PID.TID 0000.0001)                 4.168532893152940E+10,      /* I = 61 */
(PID.TID 0000.0001)                 3.341968103208270E+10,      /* I = 62 */
(PID.TID 0000.0001)                 2.390126200743558E+10,      /* I = 63 */
(PID.TID 0000.0001)     2 @  1.216690346714270E+10,             /* I = 64: 65 */
(PID.TID 0000.0001)                 2.390126200743558E+10,      /* I = 66 */
(PID.TID 0000.0001)                 3.341968103208270E+10,      /* I = 67 */
(PID.TID 0000.0001)                 4.168532893152940E+10,      /* I = 68 */
(PID.TID 0000.0001)                 4.909074590409593E+10,      /* I = 69 */
(PID.TID 0000.0001)                 5.581203765722643E+10,      /* I = 70 */
(PID.TID 0000.0001)                 6.193257577506788E+10,      /* I = 71 */
(PID.TID 0000.0001)                 6.748840226738273E+10,      /* I = 72 */
(PID.TID 0000.0001)                 7.248875782324815E+10,      /* I = 73 */
(PID.TID 0000.0001)                 7.692702995909871E+10,      /* I = 74 */
(PID.TID 0000.0001)                 8.078743937057304E+10,      /* I = 75 */
(PID.TID 0000.0001)                 8.404959656062837E+10,      /* I = 76 */
(PID.TID 0000.0001)                 8.669186205742538E+10,      /* I = 77 */
(PID.TID 0000.0001)                 8.869393350723613E+10,      /* I = 78 */
(PID.TID 0000.0001)                 9.003884657168852E+10,      /* I = 79 */
(PID.TID 0000.0001)     2 @  9.071447638299399E+10,             /* I = 80: 81 */
(PID.TID 0000.0001)                 9.003884657168852E+10,      /* I = 82 */
(PID.TID 0000.0001)                 8.869393350723613E+10,      /* I = 83 */
(PID.TID 0000.0001)                 8.669186205742538E+10,      /* I = 84 */
(PID.TID 0000.0001)                 8.404959656062837E+10,      /* I = 85 */
(PID.TID 0000.0001)                 8.078743937057304E+10,      /* I = 86 */
(PID.TID 0000.0001)                 7.692702995909871E+10,      /* I = 87 */
(PID.TID 0000.0001)                 7.248875782324815E+10,      /* I = 88 */
(PID.TID 0000.0001)                 6.748840226738273E+10,      /* I = 89 */
(PID.TID 0000.0001)                 6.193257577506788E+10,      /* I = 90 */
(PID.TID 0000.0001)                 5.581203765722643E+10,      /* I = 91 */
(PID.TID 0000.0001)                 4.909074590409593E+10,      /* I = 92 */
(PID.TID 0000.0001)                 4.168532893152940E+10,      /* I = 93 */
(PID.TID 0000.0001)                 3.341968103208270E+10,      /* I = 94 */
(PID.TID 0000.0001)                 2.390126200743558E+10,      /* I = 95 */
(PID.TID 0000.0001)     2 @  1.216690346714270E+10,             /* I = 96: 97 */
(PID.TID 0000.0001)                 2.390126200743558E+10,      /* I = 98 */
(PID.TID 0000.0001)                 3.341968103208270E+10,      /* I = 99 */
(PID.TID 0000.0001)                 4.168532893152940E+10,      /* I =100 */
(PID.TID 0000.0001)                 4.909074590409593E+10,      /* I =101 */
(PID.TID 0000.0001)                 5.581203765722643E+10,      /* I =102 */
(PID.TID 0000.0001)                 6.193257577506788E+10,      /* I =103 */
(PID.TID 0000.0001)                 6.748840226738273E+10,      /* I =104 */
(PID.TID 0000.0001)                 7.248875782324815E+10,      /* I =105 */
(PID.TID 0000.0001)                 7.692702995909871E+10,      /* I =106 */
(PID.TID 0000.0001)                 8.078743937057304E+10,      /* I =107 */
(PID.TID 0000.0001)                 8.404959656062837E+10,      /* I =108 */
(PID.TID 0000.0001)                 8.669186205742538E+10,      /* I =109 */
(PID.TID 0000.0001)                 8.869393350723613E+10,      /* I =110 */
(PID.TID 0000.0001)                 9.003884657168852E+10,      /* I =111 */
(PID.TID 0000.0001)     2 @  9.071447638299399E+10,             /* I =112:113 */
(PID.TID 0000.0001)                 9.003884657168852E+10,      /* I =114 */
(PID.TID 0000.0001)                 8.869393350723613E+10,      /* I =115 */
(PID.TID 0000.0001)                 8.669186205742538E+10,      /* I =116 */
(PID.TID 0000.0001)                 8.404959656062837E+10,      /* I =117 */
(PID.TID 0000.0001)                 8.078743937057304E+10,      /* I =118 */
(PID.TID 0000.0001)                 7.692702995909871E+10,      /* I =119 */
(PID.TID 0000.0001)                 7.248875782324815E+10,      /* I =120 */
(PID.TID 0000.0001)                 6.748840226738273E+10,      /* I =121 */
(PID.TID 0000.0001)                 6.193257577506788E+10,      /* I =122 */
(PID.TID 0000.0001)                 5.581203765722643E+10,      /* I =123 */
(PID.TID 0000.0001)                 4.909074590409593E+10,      /* I =124 */
(PID.TID 0000.0001)                 4.168532893152940E+10,      /* I =125 */
(PID.TID 0000.0001)                 3.341968103208270E+10,      /* I =126 */
(PID.TID 0000.0001)                 2.390126200743558E+10,      /* I =127 */
(PID.TID 0000.0001)     2 @  1.216690346714270E+10,             /* I =128:129 */
(PID.TID 0000.0001)                 2.390126200743558E+10,      /* I =130 */
(PID.TID 0000.0001)                 3.341968103208270E+10,      /* I =131 */
(PID.TID 0000.0001)                 4.168532893152940E+10,      /* I =132 */
(PID.TID 0000.0001)                 4.909074590409593E+10,      /* I =133 */
(PID.TID 0000.0001)                 5.581203765722643E+10,      /* I =134 */
(PID.TID 0000.0001)                 6.193257577506788E+10,      /* I =135 */
(PID.TID 0000.0001)                 6.748840226738273E+10,      /* I =136 */
(PID.TID 0000.0001)                 7.248875782324815E+10,      /* I =137 */
(PID.TID 0000.0001)                 7.692702995909871E+10,      /* I =138 */
(PID.TID 0000.0001)                 8.078743937057304E+10,      /* I =139 */
(PID.TID 0000.0001)                 8.404959656062837E+10,      /* I =140 */
(PID.TID 0000.0001)                 8.669186205742538E+10,      /* I =141 */
(PID.TID 0000.0001)                 8.869393350723613E+10,      /* I =142 */
(PID.TID 0000.0001)                 9.003884657168852E+10,      /* I =143 */
(PID.TID 0000.0001)     2 @  9.071447638299399E+10,             /* I =144:145 */
(PID.TID 0000.0001)                 9.003884657168852E+10,      /* I =146 */
(PID.TID 0000.0001)                 8.869393350723613E+10,      /* I =147 */
(PID.TID 0000.0001)                 8.669186205742538E+10,      /* I =148 */
(PID.TID 0000.0001)                 8.404959656062837E+10,      /* I =149 */
(PID.TID 0000.0001)                 8.078743937057304E+10,      /* I =150 */
(PID.TID 0000.0001)                 7.692702995909871E+10,      /* I =151 */
(PID.TID 0000.0001)                 7.248875782324815E+10,      /* I =152 */
(PID.TID 0000.0001)                 6.748840226738273E+10,      /* I =153 */
(PID.TID 0000.0001)                 6.193257577506788E+10,      /* I =154 */
(PID.TID 0000.0001)                 5.581203765722643E+10,      /* I =155 */
(PID.TID 0000.0001)                 4.909074590409593E+10,      /* I =156 */
(PID.TID 0000.0001)                 4.168532893152940E+10,      /* I =157 */
(PID.TID 0000.0001)                 3.341968103208270E+10,      /* I =158 */
(PID.TID 0000.0001)                 2.390126200743558E+10,      /* I =159 */
(PID.TID 0000.0001)     2 @  1.216690346714270E+10,             /* I =160:161 */
(PID.TID 0000.0001)                 2.390126200743558E+10,      /* I =162 */
(PID.TID 0000.0001)                 3.341968103208270E+10,      /* I =163 */
(PID.TID 0000.0001)                 4.168532893152940E+10,      /* I =164 */
(PID.TID 0000.0001)                 4.909074590409593E+10,      /* I =165 */
(PID.TID 0000.0001)                 5.581203765722643E+10,      /* I =166 */
(PID.TID 0000.0001)                 6.193257577506788E+10,      /* I =167 */
(PID.TID 0000.0001)                 6.748840226738273E+10,      /* I =168 */
(PID.TID 0000.0001)                 7.248875782324815E+10,      /* I =169 */
(PID.TID 0000.0001)                 7.692702995909871E+10,      /* I =170 */
(PID.TID 0000.0001)                 8.078743937057304E+10,      /* I =171 */
(PID.TID 0000.0001)                 8.404959656062837E+10,      /* I =172 */
(PID.TID 0000.0001)                 8.669186205742538E+10,      /* I =173 */
(PID.TID 0000.0001)                 8.869393350723613E+10,      /* I =174 */
(PID.TID 0000.0001)                 9.003884657168852E+10,      /* I =175 */
(PID.TID 0000.0001)     2 @  9.071447638299399E+10,             /* I =176:177 */
(PID.TID 0000.0001)                 9.003884657168852E+10,      /* I =178 */
(PID.TID 0000.0001)                 8.869393350723613E+10,      /* I =179 */
(PID.TID 0000.0001)                 8.669186205742538E+10,      /* I =180 */
(PID.TID 0000.0001)                 8.404959656062837E+10,      /* I =181 */
(PID.TID 0000.0001)                 8.078743937057304E+10,      /* I =182 */
(PID.TID 0000.0001)                 7.692702995909871E+10,      /* I =183 */
(PID.TID 0000.0001)                 7.248875782324815E+10,      /* I =184 */
(PID.TID 0000.0001)                 6.748840226738273E+10,      /* I =185 */
(PID.TID 0000.0001)                 6.193257577506788E+10,      /* I =186 */
(PID.TID 0000.0001)                 5.581203765722643E+10,      /* I =187 */
(PID.TID 0000.0001)                 4.909074590409593E+10,      /* I =188 */
(PID.TID 0000.0001)                 4.168532893152940E+10,      /* I =189 */
(PID.TID 0000.0001)                 3.341968103208270E+10,      /* I =190 */
(PID.TID 0000.0001)                 2.390126200743558E+10,      /* I =191 */
(PID.TID 0000.0001)                 1.216690346714270E+10       /* I =192 */
(PID.TID 0000.0001)     ;
(PID.TID 0000.0001) rAs =  /* rAs(1,:,1,:) ( units: m^2 ) */
(PID.TID 0000.0001)                 1.216690346714270E+10,      /* J =  1 */
(PID.TID 0000.0001)                 1.974052138506315E+10,      /* J =  2 */
(PID.TID 0000.0001)                 2.943712825252015E+10,      /* J =  3 */
(PID.TID 0000.0001)                 3.801790263324359E+10,      /* J =  4 */
(PID.TID 0000.0001)                 4.571243814189866E+10,      /* J =  5 */
(PID.TID 0000.0001)                 5.269930713599979E+10,      /* J =  6 */
(PID.TID 0000.0001)                 5.907428494299063E+10,      /* J =  7 */
(PID.TID 0000.0001)                 6.488320895111514E+10,      /* J =  8 */
(PID.TID 0000.0001)                 7.014205907741882E+10,      /* J =  9 */
(PID.TID 0000.0001)                 7.484854821847499E+10,      /* J = 10 */
(PID.TID 0000.0001)                 7.898934631431560E+10,      /* J = 11 */
(PID.TID 0000.0001)                 8.254500894894537E+10,      /* J = 12 */
(PID.TID 0000.0001)                 8.549360686473492E+10,      /* J = 13 */
(PID.TID 0000.0001)                 8.781353403175085E+10,      /* J = 14 */
(PID.TID 0000.0001)                 8.948571540392021E+10,      /* J = 15 */
(PID.TID 0000.0001)                 9.049530583086168E+10,      /* J = 16 */
(PID.TID 0000.0001)                 9.083293515008307E+10,      /* J = 17 */
(PID.TID 0000.0001)                 9.049530583087070E+10,      /* J = 18 */
(PID.TID 0000.0001)                 8.948571540391121E+10,      /* J = 19 */
(PID.TID 0000.0001)                 8.781353403174185E+10,      /* J = 20 */
(PID.TID 0000.0001)                 8.549360686467184E+10,      /* J = 21 */
(PID.TID 0000.0001)                 8.254500894890933E+10,      /* J = 22 */
(PID.TID 0000.0001)                 7.898934631434262E+10,      /* J = 23 */
(PID.TID 0000.0001)                 7.484854821844795E+10,      /* J = 24 */
(PID.TID 0000.0001)                 7.014205907742783E+10,      /* J = 25 */
(PID.TID 0000.0001)                 6.488320895111514E+10,      /* J = 26 */
(PID.TID 0000.0001)                 5.907428494299063E+10,      /* J = 27 */
(PID.TID 0000.0001)                 5.269930713599078E+10,      /* J = 28 */
(PID.TID 0000.0001)                 4.571243814190767E+10,      /* J = 29 */
(PID.TID 0000.0001)                 3.801790263325260E+10,      /* J = 30 */
(PID.TID 0000.0001)                 2.943712825251114E+10,      /* J = 31 */
(PID.TID 0000.0001)                 1.974052138509018E+10       /* J = 32 */
(PID.TID 0000.0001)     ;
(PID.TID 0000.0001) globalArea = /* Integrated horizontal Area (m^2) */
(PID.TID 0000.0001)                 3.638867375081598E+14
(PID.TID 0000.0001)     ;
(PID.TID 0000.0001) // =======================================================
(PID.TID 0000.0001) // End of Model config. summary
(PID.TID 0000.0001) // =======================================================
(PID.TID 0000.0001) 
(PID.TID 0000.0001) // =======================================================
(PID.TID 0000.0001) // Field Atmosphere orography on ocean grid at iteration          1
(PID.TID 0000.0001) // CMIN =          4.905667583685931E+04
(PID.TID 0000.0001) // CMAX =          1.000000000000000E+05
(PID.TID 0000.0001) // CINT =          1.886789783820026E+03
(PID.TID 0000.0001) // SYMBOLS (CMIN->CMAX): -abcdefghijklmnopqrstuvwxyz+
(PID.TID 0000.0001) //                  0.0: .
(PID.TID 0000.0001) // RANGE I (Lo:Hi:Step):(  -1: 194:   1)
(PID.TID 0000.0001) // RANGE J (Lo:Hi:Step):(  34:  -1:  -1)
(PID.TID 0000.0001) // RANGE K (Lo:Hi:Step):(   1:   1:   1)
(PID.TID 0000.0001) // =======================================================
(PID.TID 0000.0001) K =   1
(PID.TID 0000.0001)                I=8       I=18      I=28      I=34      I=44      I=54      I=64      I=70      I=80      I=90      I=96      I=106     I=116     I=126     I=132     I=142     I=152     I=162     I=168     I=178     I=188
(PID.TID 0000.0001) |--J--|101234567|901234567|901234567|901234123|567890123|567890123|567890123|563456789|123456789|123456789|123456785|789012345|789012345|789012345|789078901|345678901|345678901|345678901|901234567|901234567|901234567|901234
(PID.TID 0000.0001)     34 ........................................................................................................................................................................................................................
(PID.TID 0000.0001)     33 ........................................................................................................................................................................................................................
(PID.TID 0000.0001)     32 ..++++++++++++++++wy+y+ww+xsrtwxyx....vonrywwzywommlmpppqtttsuy++yy++y....++++++++++yxxyyxxxxvqmnpqw++++++....++++++++++++++++++++++++++++++++....+++++++++++++++++zyxwwwww+++++++....++++++++++++++++++++++++++++++++..
(PID.TID 0000.0001)     31 ..++++++++++++++wv++++++y+yxywxxyy....wqnotsswwphglqttrnnqssswz+++++++....+++++++++zxxxyyxxyxwuport+++++++....++++++++++++++++++++++++++++++++....+++++++++++++++++zyyxwwwww++++++....++++++++++++++++++++++++++++++++..
(PID.TID 0000.0001)     30 ..++++++++++++++w+++++++++++++wwxz....yumnstsspmfdhmlhgfekosuxz+++++++....++++++++++xxxyzyyyxwwsptx+++++++....++++++++++++++++++++++++++++++++....++++++++++++++zzzzyyxxwxxwwy++++....++++++++++++++++++++++++++++++++..
(PID.TID 0000.0001)     29 ..++++++++++++++++wwx+++++++++wwxy....zxrnosspllkeabbaabdhmsvyzz++++++....++++++++zxwwx++zyyxxwtps++++++++....++++++++++++++++++++++++++++++++....++++++++++++++yyzzyxxxxxxxxxz+++....++++++++++++++++++++++++++++++++..
(PID.TID 0000.0001)     28 ..+++++++++++++xsvwxxxy+zzzzywwwwx....yzypnorqnrwnc--aaabelsvxyx++++++....++++++++zxxxx+++zyxxwvpr++++++++....++++++++++++++++++++++++++++++++....++++++++++++++yyzzyyxxyyyyyyzz++....++++++++++++++++++++++++++++++++..
(PID.TID 0000.0001)     27 ..+++++++++++++vvwxxxxxxzzzyxwwvvw....xyz+++trrwzwkdabccbenvwxxw++++++....++++++++++xxyz++zyxxxwst++++++++....++++++++++++++++++++++++++++++++....+++++++++++++ywyz+zyxxyzz++zzz++....++++++++++++++++++++++++++++++++..
(PID.TID 0000.0001)     26 ..++++++++++++yxxyxwwwwxyyxxyxyyvw....wxz++++yyyyyxvnmmmhhnuwxxy++++++....++++++++++++++++zyxxxwss++++++++....++++++++++++++++++++++++++++++++....++++++++++++ywwx++zyyyxxxz++++z+....++++++++++++++++++++++++++++++++..
(PID.TID 0000.0001)     25 ..+++++++++++yyyyyxvuvwwwxwxyxy+vv....wxzzx++++zxxxyxywwqorwxyy+++++++....++++++++++++x++yyyxxxwss++++++++....++++++++++++++++++++++++++++++++....++++++++++++ywvwz+zzzwmkmrwyyzz+....++++++++++++++++++++++++++++++++..
(PID.TID 0000.0001)     24 ..+++++++++++yyyyyxwwwwstwwxyxy+ws....wxyzz+++++xxxxy++xutvx++++++++++....++++++++++++xx+yyzyxxvst++++++++....++++++++++++++++++++++++++++++++....++++++++++++ywxz++zzukgfghkqvxzz....++++++++++++++++++++++++++++++++..
(PID.TID 0000.0001)     23 ..+++++++++++zyyyyxxwwxxwwwxxxw++p....vwxz++++++yxxy+++ywwwx++++++++++....+++++++++oq+++xxzzyyxvsr++++++++....++++++++++++++++++++++++++++++++....++++++++++++trwy+++wher+yumhkrwx....y+++++++++++++++ww++++++++++++++..
(PID.TID 0000.0001)     22 ..+++++++++++zyyyyxyxxyyxwwwxxvr++....wy++++++++yxy+++++yxxw++++++++++....+++++++++vlr+++x++zzywusw+++++++....++++++++++++++++++++++++++++++++....++++++++++++wpqvy+xrht++++++xuuv....ww+++++++++++++lhhknw+++++++++++..
(PID.TID 0000.0001)     21 ..+++++++++++yxxyyyyxxyyxwwwxxrnv+....+++++++++++yy++++++zyxy+++++++++....+++++++++vkkn++++++++xuutw++++++....++++++++++++++++++++++++++++++++....x++++++++++++ywqsuop++++++++++++....wuwy++++++++++pkhghkklw+++++++++..
(PID.TID 0000.0001)     20 ..+++++++++++yxxyyyxxwxxxwwxxxpmqv....wx+++++++++y++++++++++++++++++++....++++++++++khknwt++++++wwwx++++++....++++++++++++++++++++++++++++++++....xxxz++++++++++++wuw+++++++++++++....++++++++x+++++okhhhhklr+++++++++..
(PID.TID 0000.0001)     19 ..++++++++++++yyyyyyxwwwxwwxxwrnqw....xy+++++++++++++++++y++++++++++++....+++++++x++qlkmxx++++++xyy+++++++....++++++++++++++++++++++++++++++++....xxwxz+++++++y+++++++++++++++++++....+++++++++ws++xqkhgghlow+++++++++..
(PID.TID 0000.0001)     18 ..+++++++++++++++++++wwxxxxwwwutwx....z+++++++++++++++++yy++++yy++++++....+++z++++++++rs++++++++++++++++++....++++++++++++++++++++++++++++++++....yyxxz++++++y++++++++++++++++++++....++++++++++xv+xqlhgfghkr+++++++++..
(PID.TID 0000.0001)     17 ..+++++++++++++++++++yxxyyxwturuy+....+++++++++++++++++++yy++ywy++++++....++zy++++++++++++++++++++y+++++++....++++++++++++++++++++++++++++++++....yzzyz++++zw+++++++++++++++++++++....++++++++++xuwupkhgffghkq++++++++..
(PID.TID 0000.0001)     16 ..+++++++++++++++++++zxxxxxvrtqtz+....++++++++++++++++++++y++yy++++++z....wzz++++++++++++++++++++xxy++++++....++++++++++++++++++++++++++++++++....yyyzz++++yw+++++++++++++++++++++....++++++++++xsonnkhhggghho++++++++..
(PID.TID 0000.0001)     15 ..zy++++++++++++++++++yxxxxvsusv++....+++++++++++++++++++++z++++++++++....txy++xw++++++++++++++++wwx++++++....++++++++++++++++++++++++++++++y+....xxxyz++++y++++++++++++++++++++++....+++++++++++uoqsvkkhhhhkp++++++++..
(PID.TID 0000.0001)     14 ..yxxy++++++++++++++++ywwwwvtttw++....++++++++++++++++++++++++++++++++....twxzzxwwwx++++++++++++zxwx++++++....+++++++++++++++++++++++++++++++y....wwxxxyz++v++++++++++++++++++++++....+++++++++++woux+xmkhhklv++++++++..
(PID.TID 0000.0001)     13 ..xxx++++++++++++++++++vvvvutsux++....++++++++++++++++++++++++++++++++....vwxz++zzyy+++++++++++zyxwxx+++++....++++++++++++++++++++++++++++++++....uttvwwvqot++++++++++++++++++++++....++++++++++++vwy++plkkko+++++++++..
(PID.TID 0000.0001)     12 ..wwy+++++++++++++++++xsuvuuuuwx++....++++++++++++++++++++++++++++++++....wwxzzzzzyy+++++++z+++xwwv++x++++....++++++++++++++++++++++++++++++++....nmlossqoq+++++++++++++++++++++++....+++++++++++++++++qlkklw+++++++++..
(PID.TID 0000.0001)     11 ..ww++++++++++++++++++wtvvvvvvwy++....+y++++++++++++++++++++++++++zzzz....wwxyzzzzzz+++++zzyzywvtrv+++++++....++++++++++++++++++++++++++++++++....mllnqpqw++++++++++++++++++++++++....+++++++++++++++++qmmmq++++++++++..
(PID.TID 0000.0001)     10 ..wx++++++++++++++++++xuvwwvuwy+++....xw+++++++++++++++++++++++++zyyyy....wwxyzzzzzzzzy++zxxxywvtsx+++++++....++++++++++++++++++++++++++++++++....nnoquw++++++++++++++++++++++++++....++++++++++++++++++ww++++++++++++..
(PID.TID 0000.0001)      9 ..wy+++++++++++++++++++tuvwvvw++++....w+++++++++++++++++++++++++zzyxyy....+yzzzzzzzzyxxzzywwxxyxxwx+++++++....++++++++++++++++++++++++++++++++....onrwy+++++++++++++++++++++++++++....++++++++++++++++++++++++++++++++..
(PID.TID 0000.0001)      8 ..y++++++++++++++++++++tuvvvwy++++....x+++++++++++++++++++++++yxxyxxxx....+++zzzzzzyxyz+zzwwxxyxxwwxy+++++....++++++++++++++++++++++++++++++++....posx++++++++++++++++++++++++++++....++++++++++++++++++++++++++++++++..
(PID.TID 0000.0001)      7 ..+++++++++++++++++++++wvvusuz++++....y+++++++++++++++++++++++yxxxxxxx....y++zzzzzzyyzzzzzxxxxwwwvvvxx++++....+++++++++++++++++++++++++yxxxyy+....xyy+++++++++++++++++++++++++++++....++++++++++++++++++++++++++++++++..
(PID.TID 0000.0001)      6 ..+++++++++++++++++++++ywusqw+++++....++++++++++++++++++++++++yxxxxxxx....w++wzzzzyxyzzzzzxxxwuuwwxwxx++++....++++++++++++++++++++++++zyyyyxxy....++++++++++++++++++++++++++++++++....++++++++++++++++++++++++++++++++..
(PID.TID 0000.0001)      5 ..++++++++++++++++++++++vtrv++++++....++++++++++++++++++++++++yxxyyyyy....q++py++zyxzzzzzyxxxwsuwwxxxx++++....+++++++++++++++++++++++yyxyzzzyy....++++++++++++++++++++++++++++++++....++++++++++++++++++++++++++++++++..
(PID.TID 0000.0001)      4 ..++++++++++++++++++++++yyy+++++++....++++++++++++++++++++++++yyyzzzzz....snnny++zyyyyzzywvtuvtvwwxxwx+++y....++++++++++++++++++w+++xxyyzzzzzz....++++++++++++++++++++++++++++++++....++++++++++++++++++++++++++++++++..
(PID.TID 0000.0001)      3 ..++++++++++++++++++++++++++++++++....+++++++++++++++++++++++++++++++z....tmnvz+zzzyxxxxwqpnotsuvwyxwy++++....y++++++++++++++++wv+++zyzzzzzyz+....++++++++++++++++++++++++++++++++....++++++++++++++++++++++++++++++++..
(PID.TID 0000.0001)      2 ..++++++++++++++++++++++++++++++++....++++++++++++++++++++++++++++++++....unny+zzzzzxxwwrnmmmqsuvvxxw+++++....y++++++++++++++++w++++zyyz+zyyy+....++++++++++++++++++++++++++++++++....++++++++++++++++++++++++++++++++..
(PID.TID 0000.0001)      1 ..++++++++++++++++++++++++++++++++....++++++++++++++++++++++++++++++++....uooy+yyzzyxwwqoomlmqtvutwyy+++++....y++++++++++++++++y++++zyyyzzzzz+....++++++++++++++++++++++++++++++++....++++++++++++++++++y+++++++++++++..
(PID.TID 0000.0001)      0 ........................................................................................................................................................................................................................
(PID.TID 0000.0001)     -1 ........................................................................................................................................................................................................................
(PID.TID 0000.0001) // =======================================================
(PID.TID 0000.0001) // END OF FIELD                                          =
(PID.TID 0000.0001) // =======================================================
(PID.TID 0000.0001) 
(PID.TID 0000.0001)  MDS_READ_FIELD: opening global file: lev_T_cs_15k.bin
(PID.TID 0000.0001) // =======================================================
(PID.TID 0000.0001) // Field Initial Temperature at iteration          1
(PID.TID 0000.0001) // CMIN =         -1.820018601798449E+00
(PID.TID 0000.0001) // CMAX =          2.938267637698524E+01
(PID.TID 0000.0001) // CINT =          1.155655369584581E+00
(PID.TID 0000.0001) // SYMBOLS (CMIN->CMAX): -abcdefghijklmnopqrstuvwxyz+
(PID.TID 0000.0001) //                  0.0: .
(PID.TID 0000.0001) // RANGE I (Lo:Hi:Step):(   1: 192:   1)
(PID.TID 0000.0001) // RANGE J (Lo:Hi:Step):(  32:   1:  -1)
(PID.TID 0000.0001) // RANGE K (Lo:Hi:Step):(   1:   1:   1)
(PID.TID 0000.0001) // =======================================================
(PID.TID 0000.0001) K =   1
(PID.TID 0000.0001)                I=10      I=20      I=30      I=40      I=50      I=60      I=70      I=80      I=90      I=100     I=110     I=120     I=130     I=140     I=150     I=160     I=170     I=180     I=190
(PID.TID 0000.0001) |--J--|123456789|123456789|123456789|123456789|123456789|123456789|123456789|123456789|123456789|123456789|123456789|123456789|123456789|123456789|123456789|123456789|123456789|123456789|123456789|12
(PID.TID 0000.0001)     32 ttsssrqqpppoonnn..o.o..p.................................kk..pp.tttsrrpmig................lnooppqqrrsttuvwxxyyyxxyyyyyyxxwvtsrqqttuuvvwxxxxyyyyy.........tuuttsrrqqponmlkjiihgggggghijklmnopqqqr
(PID.TID 0000.0001)     31 tttsssrrqqqppo..pppqqq.q.................................lllrq.usssrolkhf................llmnoppqqrsstuuvwxxyyyxxyyzzyyyxwutsrqpttuuvwwxxxxyyyyy..........uuttsrqqpomlkjihggfeeeeeeefggijklnopqq
(PID.TID 0000.0001)     30 uutttsssrrrqqq.pqqqqqrrrrrss.............................lmnrtvussrpkhfeed...............klmnnoppqrsttuvvwxxyyyxxyyzzzyxxvutsrqpttuuvwwxxxyyyy..............tssrqpomlkjhgfeedcccccccddfgghikmopq
(PID.TID 0000.0001)     29 uuuutttsssrrrrpp...rrrrrsstt..............................opsvvvsrrojed......bb.........kkllmnnopqrstuuvvwxxyzyyyyzzzzyxwvutsrqpttuuvwxxxyyyyy...............qqqqpnlkjhgeddccbbbbbbbbcdeefghjmop
(PID.TID 0000.0001)     28 vvuuuutttsssr........s....................................rsuvvvrqqojfdc.....bba........jkkklmnopqrstuvvvwxxyzyyyyzzzzyxwvutrqpotttuvwxxyyyyyy................nooonlkigedcbbbbaaaaabbbcddefghjmo
(PID.TID 0000.0001)     27 vvvvvuutttssr......................wxx....................tvwwwvqqpokhgecc....bb........jjjjklmnoqrstuvvwwxxyzyyyzzzzzyxwvusrqpottuuvwxxyyyyy.................llmmmljgedcbaaaaaaaaaabbcccdeffhko
(PID.TID 0000.0001)     26 wwvvvvuuutss.......................xxww...................uwwwwwqponljhgeedbbbbb........ijiijklmopqstuvvwwxxyzzyyzzzzzyxwutsrpontuuuvwxxyyyy...................kjkkjhfdccbaaaaaaaaaaabbbccdefhkn
(PID.TID 0000.0001)     25 wwwwvvvuutr..................z.......wxxx................wxxxxxxponmkihffedc.ba.........iiiiijklnoqstuvwwwxxyzyyyzzzzzyxwutsrponruuuvwxxyyyy...................nkiiigfdcbaa-aaaaaaaaaaabbcdefhkn
(PID.TID 0000.0001)     24 xwwwwvvvus...................z.......xxyyy.....zz.....vwwxyyyyyyponljigfedcb............hhhhhijkmoprtuvwwxxxyzyyyzzzzzyxwutsqpomotuuuvxxyyyy....................ljhhgfdbaa------aaaaaaabbccdegjm
(PID.TID 0000.0001)     23 xxwwwwvvut...................++.....wxyyyy....zzz.....xxxyyzzzzzonmljihgf..baa..........hhghhhiklnprsuvwxxxyyzzyyz++zzyxwutrqpnmkquuuvwxy.yy...........r.........kiigfdba-------..-a-aaaabcdefhk
(PID.TID 0000.0001)     22 xxxxwwwvvu....................zz..wxxyyyzz...zzzzz....xyyzzzzzzzonmlkjihf...baa.-a.......hggghijlnpqsuvwxxxyyzzyzz++zzyxvutrqpnminsuvvwxyyyy..........rrqpoo......hhgeca-------......-aaabcddefj
(PID.TID 0000.0001)     21 xxxxxxwwwv.....................yyxxxyyyzzzz..zzzzzz....yzzzzzzzzonmlkjihf....aaa-aaa-.....gggghjkmoqsuvwxxxyyzzzzz++zzywvutrqpnm.kpvwwxx.zyyy.......qqrrrqpponmm....gfca.-----.........aaabcddfi
(PID.TID 0000.0001)     20 yyyyyxxxxww.......................xyyyzzzzz.zzzzzzzzz.yzzzzzzzzznmmlkjjieb......-aa--a....degghikmoqstvwxxyyyzzzzz++zzyxvutrqonm....wxxy.zzyy.ww...ssssrrrqppomlkjihgfca.a----.........-aabccdfi
(PID.TID 0000.0001)     19 yyyyyyyyyxxx......................yyyzzzzzzzzzzzzzz.zyzzzzzz.zz+nmllkjj.db......-----a...cdefgghjmoqstvwxxyyyzzzzz++zzywvusrqoom.......xzzzy.xxvtrsttsssrrrqponlkjihgecaa..--..........aaaabcdfi
(PID.TID 0000.0001)     18 yyyyyyyyyyyyyywxxyx..............yyyzzzzzzzzzzzzzz..zzzz..zzzzz+nlk.kjhfdbaa..-------aabbbdeffghjmoqstvwxyyyyzzzz+++zzywvusrqpom.....vwxyyy.uxxvttuuttsssrrqpomljihgfecaa-.............aaaabcegi
(PID.TID 0000.0001)     17 yyyyyyyyyyyxxxxxxxx.............yyyyzzzzzzzzzzzz+++..zz...zzzz++nl..ijhgfdbaa---------aa.cdeffghjloqstvwxyyyzzzzz+++zzxwvusrqpom.....vwxw..xvvxvtuvuutttssrqpomljihgfecba-..............-aabcegi
(PID.TID 0000.0001)     16 yyyyyyyxxxxxwwwwwwv............yyyyzzzzzzzzzzzzzz+zz.zz..zzzzzz....jiiiihfddca---------...eeffghjloqstvwxyyyzzzzz+++zzxwvusrqqom......wxx..xvvxvsuvvuttttssrpomkjihgfecba-..............-abbcegi
(PID.TID 0000.0001)     15 ..yyyyyyxxxxxwwwvvut..........yyyyyyzzzzzzzzzzzzzzzzz.zzzzzzzzzz...ji..ihgfc.----------...defffgimoqsuvxxyyyzzzzz+++zzywvusrq..l......wxx.xxwxxvtvvvuuutttsrpomkjihgfecbaaa.............-aabcefh
(PID.TID 0000.0001)     14 ....yyyyyxxxxwwwvvut..........yyyyyyyyyyzzzzzzzzzzzzzzz.zzzzzzzz..........fca------aa-....defffgimoqsuvxxyyyzzzzz+++zyxwvusrqpo........xx.zyxxxvuvwvvuuuttsrpomkjihgfedbaa-.............-abbcefi
(PID.TID 0000.0001)     13 ...yyyyyxxxwwwvvvvutt.........yyyyyyyyyyyyyyyyyyzzzzzzzzyyyzzzzz..........fdba-----aa......deffgimprsuvxyyyzzzzz++++zyxwvutrqpon..........zzyyxvuvwwvvuuuttrqomljihhgedcba--...........-aabcdegi
(PID.TID 0000.0001)     12 ...yyyxxxwwwvvuuuutt..........yyyyxyyyyyyyyyyyyyyyyyyyyzzzzzzzz...........dcba--a.aaa....cc.eefgjmprtuwxyyyzzz++++++zyxwvutsrpon.........yzzyyxvuvwwvvvuuutrqonlkjhhgedcba-------......aabcddfhj
(PID.TID 0000.0001)     11 ..yyyxxwwwvvvuutttsr..........yyy.xxxxxxxxxxxxxxxxxxxyyyyyzz..............cca--..........bcddefhjnqrtuwxyyzzzz++++++zyxwvuttrqpn........wxyzyyxvvwwwwvvvvutsqpnmkjihgfdcbaa-----a.....aabcddegij
(PID.TID 0000.0001)     10 ..xxxxxwwvvvuuuttssq.........xyy..xxxxxxxwwwxwwwwwwwwxxxyyy..............................bcdddehknqstuwxyyzzzz++++++zyxwvuutsrpo......uvvxyyzyxvvwwwwwvvvutsrpnmkjihgfedbaaa------..-aabccdefhjk
(PID.TID 0000.0001)      9 ..xxxxwwwvvvuutttsrqo.......xxxx.xxxxwwwwwwvwvvvvvvvvvwwxy......l........................bbcddehlorstvwxyzzzz+++++++zyxwvvuutrqo.....srtvwyyyyxwvwxxwwwvvutsrpomlkihhgfdcbaaaaaaa---aabcddefhijk
(PID.TID 0000.0001)      8 .wwwwwwwvvvuuuttssrqo.......xxxx.xwwwwwwvvvvuuuuuuuuuuvv........kk.........................dcdeimprtuvwxyzzzz++++++zzyxxwwvutsqp....pqrtvwyyyyxwvwxxxwwwvvutrqonlkjihhfedbaaaaabbaaaabbcdefhijkl
(PID.TID 0000.0001)      7 uvwwvvvvvuuutttssrrqp.......wwww.wwwwvvvvuuuttttttttttuu.........kj.........................deginqstuvwxyzzzz++++++zyyxxw......o...opqrsuwxyyyxwvwxxxxxwwvutsqpnmljjihhfecbbbbbccccbbbcdefgijkkl
(PID.TID 0000.0001)      6 uvvvuuuutttttsssrrrqp......wwvvvvvvvvuuutttssssrrrrrsstu.........jj.........................h.ikorttuvwyyzzzz+++++zzyyxx........mmnopqrtuwxyyyxwwwxxxxxwwvutsrpomlkjjiihgeddddddeeeddddefgijkklm
(PID.TID 0000.0001)      5 uuuutttssssrrrrrrqqqqo....vvvvvuuuuutttsssrrrrqqqqqqqrst.........kk.........................gi.lortuuvwyyzzzz+++++zyyyx.........nnopqrstuvxxyyxwwxxxxxxxwvutsrponmlkkjiihggfffffgggfffgghijkklmn
(PID.TID 0000.0001)      4 ttttssrrrqqqqppppppqqq...uuuuuuttttsssrrrqqpppooooooppqs....................................eil.pstuuvwyyzzzz+++++.yyy..........oopqrrstuvwxyyxwwxxyyyxxwwutsrqoonmlkjjjiiihhhhhhhhhhhiijjkllmmn
(PID.TID 0000.0001)      3 sssrrrqqppooonnnmnnpqrrssttttstssssrrrqqppoonnnnmnnnnopqqqqqqqq.............................gjmo.ttuuvwyyzzzz++++..zy..........oppqqrsttuvxxyyxwwxyyyyyxxwvtsrqponnmlkkjjjjjjjjiiiiijjjkkllmmnno
(PID.TID 0000.0001)      2 rrrqqqpoonmmmllkkklnpqqqrssssrssrrrrqqppoonnmmmlllllmmnoopppppqq...........................hjlop.tuuvvwyyzzzz++++.yzyy.........ppqqrrstuvwxxyyyxxxyyyyyxxwvtsrqppoonmllkkkkkkkkjiijkkkllmmmnnnoo
(PID.TID 0000.0001)      1 rrqqpponmlkkkjijiiiklnnopqrrrrrrrrqqqpponnmllkkkjjkkkklmmnoooppq...........................jmopp.tuuvvwxyzzzz++++.yzyy.........pqqrrsstuvwxxyyyxxxyyyyyxxwvtsrqqppoonnmmlllllllkkj.mlmmnnnnnooop
(PID.TID 0000.0001) // =======================================================
(PID.TID 0000.0001) // END OF FIELD                                          =
(PID.TID 0000.0001) // =======================================================
(PID.TID 0000.0001) 
(PID.TID 0000.0001)  MDS_READ_FIELD: opening global file: lev_S_cs_15k.bin
(PID.TID 0000.0001) // =======================================================
(PID.TID 0000.0001) // Field Initial Salinity at iteration          1
(PID.TID 0000.0001) // CMIN =          1.814484149562675E+01
(PID.TID 0000.0001) // CMAX =          3.993039913177491E+01
(PID.TID 0000.0001) // CINT =          8.068725050425242E-01
(PID.TID 0000.0001) // SYMBOLS (CMIN->CMAX): -abcdefghijklmnopqrstuvwxyz+
(PID.TID 0000.0001) //                  0.0: .
(PID.TID 0000.0001) // RANGE I (Lo:Hi:Step):(   1: 192:   1)
(PID.TID 0000.0001) // RANGE J (Lo:Hi:Step):(  32:   1:  -1)
(PID.TID 0000.0001) // RANGE K (Lo:Hi:Step):(   1:   1:   1)
(PID.TID 0000.0001) // =======================================================
(PID.TID 0000.0001) K =   1
(PID.TID 0000.0001)                I=10      I=20      I=30      I=40      I=50      I=60      I=70      I=80      I=90      I=100     I=110     I=120     I=130     I=140     I=150     I=160     I=170     I=180     I=190
(PID.TID 0000.0001) |--J--|123456789|123456789|123456789|123456789|123456789|123456789|123456789|123456789|123456789|123456789|123456789|123456789|123456789|123456789|123456789|123456789|123456789|123456789|123456789|12
(PID.TID 0000.0001)     32 wwwwvvvvvvvvvvvu..y.y..y.................................pq..tt.wwwvvvutrq................rrrsssstttuuuuttttttuuuuuvvvwvvvvuuuuuwwwwwxxxwwwvvvvv.........vvwwvvvvvuuuuuutttttttttttttttuuuuuuvvv
(PID.TID 0000.0001)     31 wwwwwvvvvvvvvv..yxyyyy.y.................................pqrtt.twwvvutsrp................rrrrssssttuuuuuutttttuuuuuvvvvvvvvuuuuuwwwwwxxxwwvvvvvv..........vvvvvvvvuuutttttttttttttsttttttttuuuvv
(PID.TID 0000.0001)     30 wwwwwwwwwwvvvv.xxxxxyyyzzzzy.............................qqrttttwvvvtsrqpp...............rrrrssssttuuuuuutttttuuuuuvvvvvvvuuuuuuwwwwwwwwwwvvvv..............uuvvvuuuttttttttssssttttttttttttuuuv
(PID.TID 0000.0001)     29 wwwwwwwwwwwwwwww...xxyyzzzzz..............................rsttttvvvutrq......km.........qrrrrrsssttuuuuuutttttuuuuuvvvvvvvvuuuuuwwwwwwwwwvvuuv...............tuuvuutttttttttsssttttttttttttttuuu
(PID.TID 0000.0001)     28 wwwwwwwwwwwww........y....................................ssttttvvvutssr.....npq........qrrrrrsssttuuuuuutttttuuuuvvvvvvvvvuuuutwwwwwwwwvvuuuv................suuuuttttttttsssttttttttttttssttuu
(PID.TID 0000.0001)     27 xxxxxxwwwwwww......................+yw....................ttttuuvvvuuttsss....oq........qrrrrrsssttuuuuuutttttuuuuvvvvvvvvvuuuutwwwwwwwwvvuuv.................sttuuttttttttssttttttttttttttssttu
(PID.TID 0000.0001)     26 xxxxxxxxwwww.......................+www...................tttuuuvvvuutttttsrqqpq........qrrrrrrssttuuuuuutttttuuuuvvvvvvvvuuuuutvwwwwwwwvvuv...................sttttttttttttttttttttsssttttssttu
(PID.TID 0000.0001)     25 xxxxxxxwwww..................z.......wwww................ttttuuuvvvuuututtts.rr.........qrrrrrrssstuuuuuutttttuuuuvvvvvvvuuuuuttvvwwwwwwvvuv...................sstttttttttttttttttttsssttttssttu
(PID.TID 0000.0001)     24 xxxwwwwwww...................z.......vwwwv.....qq.....sttttttttuvvvuuuuuttss............rrrrrrrsssttuuuuutttttuuuuvvvvvvvvuuuutttvwwwwwwvuvv....................sstttttttttttttttttttttttttssttu
(PID.TID 0000.0001)     23 wwwwwwwwvv...................yy.....vvwwwv....srr.....sttsstttttvvvuuuuuu..srr..........qrrrrrrsstttuuuuuuttttuuuuvvvvvvvvuuuuttsuvwwwwww.vv...........u.........ssstttttttttttt..ttttttssttsstt
(PID.TID 0000.0001)     22 wwwwwwvvvv....................xw..vvvvvwwv...sssrr....ssssstttttvvvuuuuuu...sss.qq.......qrrrrrsstttuuuuuuttttuuuuuuvvvvvvvuuuttrtvvwwwwwvvv..........uuuttt......ssstttttttttt......tttsssssstt
(PID.TID 0000.0001)     21 vvvvvvvvvv.....................vvvvvvvvvvvu..sssrrq....sssstttttvvvuuuuut....ssrqqqpp.....qrrrrsstttuuuuuuttttuuuuuuuuuuuvvuuuut.stvwwww.vvvv.......uuuuuttttsss....tttt.ttttt.........tsssstttt
(PID.TID 0000.0001)     20 vvvvvvvvvvu.......................vvvvvvvvu.sssssrrqq.ssssstttttvvuuuuuuts......qqpooo....qqrrrsstttuuuuuuttttuuuuuuuuuuuvvvuuuu....vvvv.vvvv.ss...uuuuuutttttssssssstts.ttttt.........tsssstttt
(PID.TID 0000.0001)     19 vvvvvvvvvvuu......................vvvvvvvuuuttttssr.rssssstt.tttvuuuuuu.tt......qpooop...qpqrrrsstttuuuuuuttttuuuuuuuuuuuvvvuuuu.......vvvvv.rsstuuuuuuuuutttttssssstttss..tt..........tsssttttt
(PID.TID 0000.0001)     18 vvvvvvvvvuuuuuuuuut..............uuuuuuuuuuuuttttt..ssss..ttttttvuu.uuuuuttr..pqpoooopqqrqqrrrrsstttuuuuuuttttuuuuuuuuuuuvvvuuuu.....vvvvvv.tssttuuuuvuuuuuttttttttttttsss.............tsstttttt
(PID.TID 0000.0001)     17 vvvvvvvvvvvuuuuuuut.............uuuuuuuuuuuuuutttts..rs...ttttttuu..uuuuuuttrrpppppoopqr.rrrsrrsstttuuuuuuutttuuuuuuuuuuvvvvvuuu.....vvvw..sttstuuuuvvvvuuuttttttttttttsss..............sttttttt
(PID.TID 0000.0001)     16 vvvvvvvvvvvvvvuuuuu............uuuuuuuuuuuuuuuutttsr.rr..sttttt....tuuuuuuuutssrqqpooop...rssrrsstttuuuuuuuttttuuuuuuuuuuvvvvvuu......vww..tttstuuuuvvvvuuuutttttttttttsss..............tttttttt
(PID.TID 0000.0001)     15 ..vvvvvvvvvvvvvvvvvv..........uuuuuuuuuuuuuuuuuttttss.rrsssttttt...tt..ttuut.ssssrqpnno...rssrrrstttuuuuuuuttttuuuuuuuuuvvvvv..t......vww.ttttstuuuuvvvvvuuutttttttttttssst.............tttttttt
(PID.TID 0000.0001)     14 ....vvvvvvvvvvvvvvvv..........uuuuuuuuuuuuutttttttttsss.sssstttt..........utttttsrqomm....rrrrrrstttuuuuuuutttuuuuuuuuuuvvvvuuu........ww.ttttttuuuuvvvvvuuuttttttttttttsst.............tttttttt
(PID.TID 0000.0001)     13 ...wwwwwwwwwwwwvvvvvv.........uuuuuuuuuuuutttttttttttttttttttttt..........uutttssrpol......rrrrsstttuuuuuuutttuuuuuuuuuuvvvvvuuu..........tttsttuuuuvvvvvuuuttttttttttttssst...........ttttttttt
(PID.TID 0000.0001)     12 ...wwwwwwwwwwwwwvvvv..........uuuuuuuuuuuuttttttttttttttttttttt...........tttsssr.pom....rr.rrrsstttuuuuuuuttttuuuutuuuuvvvvvuuu.........ttsssttuuuuvvvvvvuutttttttttttttsssstttt......ttttttttt
(PID.TID 0000.0001)     11 ..wwwwwwwwwwwwwwvvvv..........uuu.uuuuuuuutttttttttttttttttt..............stsrq..........rrrrrrsstttuuuuuuutttttuuttuuuuvvvvvvuu........tttsssttuuuuvvvvvvuutttttttttttttsssstttt.....tttttttttt
(PID.TID 0000.0001)     10 ..xxxxxwwwwwwwwvvvvv.........uuu..uuuuuuuuuuuuuuuuuuuuuuuuu..............................rrrrrrsstttuuuuuuutttttuuutuuuuvvvvvvuu......uutttsssttuuuuvvvvvvvuuttttttttttttttttttttt..tttttttttttt
(PID.TID 0000.0001)      9 ..wwwwwwwwwwwwvvvvvuu.......uuuu.uuuuuuuuuuuuuuuuuuuuuuuuu......-........................rrrrrrsttttuuuuuuutttttttuuuuuuvvvvvvuu.....utttttsssttuuuuvvvvvvvuuttttttttttttttttttttttttttssttttttu
(PID.TID 0000.0001)      8 .wwwwwwwwwwwwvvvvvvuu.......uuuu.uuuuuuuuuuuvvvvvuvuuuuu........--.........................rrrrsttttuuuuuuutttttttuuuuuuuuvvvvvu....sssttttssttuuuuuvvwwvvvuuttttttttttttttttttttttttttssttttttu
(PID.TID 0000.0001)      7 wwwwwwwwwwvvvvvvvvvuu.......uuuu.uuuuuuuvvvvvvvvvvvvvvvu.........--.........................srssttttuuuuuutttttttuuuuuuuu......u...ssstttttssttuuuuuvvwwwvvuuuttttttttttttttttttttttttssttttttuu
(PID.TID 0000.0001)      6 wwwwwvvvvvvvvvvvvvvvu......uuuuuuuuuuuuvvvvvvvvvvvvvvvvv.........--.........................t.sstttuuuuuuuttttttttuuuuuu........rsssssttttttsttuuuuuvvwwwvvvuuttttttttttttttttttttttttttttttttuu
(PID.TID 0000.0001)      5 wwvvvvvvvvvvvvvvvvvvuu....uuuuuuuuuuuvvvvvvvvvvvvvvvvvvv.........--.........................tt.stttuuuuuuuuttttttttuuuu.........rrsssttttttttttuuuuuvvwwwvvvuuttttttttttttttttttttttttttttttuuuu
(PID.TID 0000.0001)      4 wvvvvvvvvvuuuuuuuuuuuu...uuvuuuuvvvvvvvvvvvuuuuuuuuvvvvv....................................ttt.tttuuuuuuutttttttt.uuu..........rssssttttttttttuuuuvvvwwwvvvuuuttttttttttttttttttttttttttttuuuuu
(PID.TID 0000.0001)      3 vvvvvvvvuuuuuuuuuuuuuuuuuvvvvvvvvvvvvvuuuuuuuuuuuuuuuvvvvvvvvvv.............................tttt.tttuuuuuuttttttt..ut..........vsssstttttttttttuuuuvvvwwwvvvuuuttttttttttttttttttttttttuuuuuuuuu
(PID.TID 0000.0001)      2 vvvvvvuuuuuuuutttttuuuuuuvvvvvvvvvvvvuuuuuuuuuuuuuuuuuuuuuvvvvvv...........................stttt.tttuuuuutttttttt.tttt.........vssttttuutttttttuuuuvvvwwvvvuuuuutttttttttttttttttttuttuuuuuuuuuu
(PID.TID 0000.0001)      1 vvvvuuuuuuutttttttttuuuuuuuvvvvvvvvvuuuuuuuutttttttuuuuuuuuuuuvv...........................stttt.ttttuuuutttttttt.tttt.........vsstttuuuttttttuuuuuvvvwvvvvuuuuuutttttttttttuuuttt.uuuuuuuuuuvvv
(PID.TID 0000.0001) // =======================================================
(PID.TID 0000.0001) // END OF FIELD                                          =
(PID.TID 0000.0001) // =======================================================
(PID.TID 0000.0001) 
(PID.TID 0000.0001) Start initial hydrostatic pressure computation
(PID.TID 0000.0001) Pressure is predetermined for buoyancyRelation OCEANIC
(PID.TID 0000.0001) 
(PID.TID 0000.0001)  MDS_READ_FIELD: opening global file: trenberth_taux.bin
(PID.TID 0000.0001)  MDS_READ_FIELD: opening global file: trenberth_tauy.bin
(PID.TID 0000.0001)  MDS_READ_FIELD: opening global file: shiQnet_cs32.bin
(PID.TID 0000.0001)  MDS_READ_FIELD: opening global file: shiEmPR_cs32.bin
(PID.TID 0000.0001)  MDS_READ_FIELD: opening global file: lev_surfT_cs_12m.bin
(PID.TID 0000.0001)  MDS_READ_FIELD: opening global file: lev_surfS_cs_12m.bin
(PID.TID 0000.0001) // =======================================================
(PID.TID 0000.0001) // Model current state
(PID.TID 0000.0001) // =======================================================
(PID.TID 0000.0001) 
(PID.TID 0000.0001) // =======================================================
(PID.TID 0000.0001) // Begin MONITOR dynamic field statistics
(PID.TID 0000.0001) // =======================================================
(PID.TID 0000.0001) %MON time_tsnumber                =                     0
(PID.TID 0000.0001) %MON time_secondsf                =   0.0000000000000E+00
(PID.TID 0000.0001) %MON dynstat_eta_max              =   0.0000000000000E+00
(PID.TID 0000.0001) %MON dynstat_eta_min              =   0.0000000000000E+00
(PID.TID 0000.0001) %MON dynstat_eta_mean             =   0.0000000000000E+00
(PID.TID 0000.0001) %MON dynstat_eta_sd               =   0.0000000000000E+00
(PID.TID 0000.0001) %MON dynstat_eta_del2             =   0.0000000000000E+00
(PID.TID 0000.0001) %MON dynstat_uvel_max             =   0.0000000000000E+00
(PID.TID 0000.0001) %MON dynstat_uvel_min             =   0.0000000000000E+00
(PID.TID 0000.0001) %MON dynstat_uvel_mean            =   0.0000000000000E+00
(PID.TID 0000.0001) %MON dynstat_uvel_sd              =   0.0000000000000E+00
(PID.TID 0000.0001) %MON dynstat_uvel_del2            =   0.0000000000000E+00
(PID.TID 0000.0001) %MON dynstat_vvel_max             =   0.0000000000000E+00
(PID.TID 0000.0001) %MON dynstat_vvel_min             =   0.0000000000000E+00
(PID.TID 0000.0001) %MON dynstat_vvel_mean            =   0.0000000000000E+00
(PID.TID 0000.0001) %MON dynstat_vvel_sd              =   0.0000000000000E+00
(PID.TID 0000.0001) %MON dynstat_vvel_del2            =   0.0000000000000E+00
(PID.TID 0000.0001) %MON dynstat_wvel_max             =   0.0000000000000E+00
(PID.TID 0000.0001) %MON dynstat_wvel_min             =   0.0000000000000E+00
(PID.TID 0000.0001) %MON dynstat_wvel_mean            =   0.0000000000000E+00
(PID.TID 0000.0001) %MON dynstat_wvel_sd              =   0.0000000000000E+00
(PID.TID 0000.0001) %MON dynstat_wvel_del2            =   0.0000000000000E+00
(PID.TID 0000.0001) %MON dynstat_theta_max            =   2.9382676376985E+01
(PID.TID 0000.0001) %MON dynstat_theta_min            =  -1.8552983134796E+00
(PID.TID 0000.0001) %MON dynstat_theta_mean           =   3.6030349459887E+00
(PID.TID 0000.0001) %MON dynstat_theta_sd             =   4.4406771433446E+00
(PID.TID 0000.0001) %MON dynstat_theta_del2           =   7.4668080606120E-02
(PID.TID 0000.0001) %MON dynstat_salt_max             =   4.0715748807407E+01
(PID.TID 0000.0001) %MON dynstat_salt_min             =   1.8144841495627E+01
(PID.TID 0000.0001) %MON dynstat_salt_mean            =   3.4721451128586E+01
(PID.TID 0000.0001) %MON dynstat_salt_sd              =   4.8858744433685E-01
(PID.TID 0000.0001) %MON dynstat_salt_del2            =   1.1848960662010E-02
(PID.TID 0000.0001) %MON extforcing_qnet_max          =   4.6211611868841E+02
(PID.TID 0000.0001) %MON extforcing_qnet_min          =  -2.0410376912710E+02
(PID.TID 0000.0001) %MON extforcing_qnet_mean         =  -1.2329247921290E+01
(PID.TID 0000.0001) %MON extforcing_qnet_sd           =   1.1327998988989E+02
(PID.TID 0000.0001) %MON extforcing_qnet_del2         =   5.3775063971043E+00
(PID.TID 0000.0001) %MON extforcing_qsw_max           =   0.0000000000000E+00
(PID.TID 0000.0001) %MON extforcing_qsw_min           =   0.0000000000000E+00
(PID.TID 0000.0001) %MON extforcing_qsw_mean          =   0.0000000000000E+00
(PID.TID 0000.0001) %MON extforcing_qsw_sd            =   0.0000000000000E+00
(PID.TID 0000.0001) %MON extforcing_qsw_del2          =   0.0000000000000E+00
(PID.TID 0000.0001) %MON extforcing_empmr_max         =   7.6494447208479E-08
(PID.TID 0000.0001) %MON extforcing_empmr_min         =  -1.5362614137596E-07
(PID.TID 0000.0001) %MON extforcing_empmr_mean        =  -2.0474999028391E-24
(PID.TID 0000.0001) %MON extforcing_empmr_sd          =   2.4051723601802E-08
(PID.TID 0000.0001) %MON extforcing_empmr_del2        =   1.2835223797615E-09
(PID.TID 0000.0001) %MON extforcing_fu_max            =   2.4892781143428E-01
(PID.TID 0000.0001) %MON extforcing_fu_min            =  -2.1535754027523E-01
(PID.TID 0000.0001) %MON extforcing_fu_mean           =  -1.5037205431943E-03
(PID.TID 0000.0001) %MON extforcing_fu_sd             =   6.2251380425684E-02
(PID.TID 0000.0001) %MON extforcing_fu_del2           =   3.5863906188079E-03
(PID.TID 0000.0001) %MON extforcing_fv_max            =   2.9305960402537E-01
(PID.TID 0000.0001) %MON extforcing_fv_min            =  -3.3950131228473E-01
(PID.TID 0000.0001) %MON extforcing_fv_mean           =  -5.6792591955702E-03
(PID.TID 0000.0001) %MON extforcing_fv_sd             =   7.0478671072554E-02
(PID.TID 0000.0001) %MON extforcing_fv_del2           =   3.5172812437129E-03
(PID.TID 0000.0001) %MON advcfl_uvel_max              =   0.0000000000000E+00
(PID.TID 0000.0001) %MON advcfl_vvel_max              =   0.0000000000000E+00
(PID.TID 0000.0001) %MON advcfl_wvel_max              =   0.0000000000000E+00
(PID.TID 0000.0001) %MON advcfl_W_hf_max              =   0.0000000000000E+00
(PID.TID 0000.0001) %MON pe_b_mean                    =   0.0000000000000E+00
(PID.TID 0000.0001) %MON ke_max                       =   0.0000000000000E+00
(PID.TID 0000.0001) %MON ke_mean                      =   0.0000000000000E+00
(PID.TID 0000.0001) %MON ke_vol                       =   1.3398024453628E+18
(PID.TID 0000.0001) %MON vort_r_min                   =   0.0000000000000E+00
(PID.TID 0000.0001) %MON vort_r_max                   =   0.0000000000000E+00
(PID.TID 0000.0001) %MON vort_a_mean                  =  -2.0549865324846E-05
(PID.TID 0000.0001) %MON vort_a_sd                    =   7.5259258474424E-05
(PID.TID 0000.0001) %MON vort_p_mean                  =  -2.4783522345033E-05
(PID.TID 0000.0001) %MON vort_p_sd                    =   1.2810783121880E-04
(PID.TID 0000.0001) %MON surfExpan_theta_mean         =   0.0000000000000E+00
(PID.TID 0000.0001) %MON surfExpan_salt_mean          =   0.0000000000000E+00
(PID.TID 0000.0001) // =======================================================
(PID.TID 0000.0001) // End MONITOR dynamic field statistics
(PID.TID 0000.0001) // =======================================================
S/R EXTERNAL_FIELDS_LOAD: Reading new data:   12    1         0  0.000000000000E+00
(PID.TID 0000.0001)  MDS_READ_FIELD: opening global file: trenberth_taux.bin
(PID.TID 0000.0001)  MDS_READ_FIELD: opening global file: trenberth_taux.bin
(PID.TID 0000.0001)  MDS_READ_FIELD: opening global file: trenberth_tauy.bin
(PID.TID 0000.0001)  MDS_READ_FIELD: opening global file: trenberth_tauy.bin
(PID.TID 0000.0001)  MDS_READ_FIELD: opening global file: shiQnet_cs32.bin
(PID.TID 0000.0001)  MDS_READ_FIELD: opening global file: shiQnet_cs32.bin
(PID.TID 0000.0001)  MDS_READ_FIELD: opening global file: shiEmPR_cs32.bin
(PID.TID 0000.0001)  MDS_READ_FIELD: opening global file: shiEmPR_cs32.bin
(PID.TID 0000.0001)  MDS_READ_FIELD: opening global file: lev_surfT_cs_12m.bin
(PID.TID 0000.0001)  MDS_READ_FIELD: opening global file: lev_surfT_cs_12m.bin
(PID.TID 0000.0001)  MDS_READ_FIELD: opening global file: lev_surfS_cs_12m.bin
(PID.TID 0000.0001)  MDS_READ_FIELD: opening global file: lev_surfS_cs_12m.bin
time,SST,SSS,fu,fv,Q,E-P,i0,i1,a,b =   0.0000E+00  1.9749E+01  3.6365E+01  1.0765E-01  4.4783E-02  1.8522E+02  7.7658E-09    12     1  5.0000E-01  5.0000E-01
time,fu0,fu1,fu =   0.0000E+00  1.3167E-01  8.3633E-02  1.0765E-01  5.000000000000000E-01  5.000000000000000E-01
 cg2d: Sum(rhs),rhsMax =  -2.30926389122033E-14  6.10578609137189E+00
(PID.TID 0000.0001)                    cg2d_init_res =    5.53904960585195E+00
(PID.TID 0000.0001)                       cg2d_iters =    49
(PID.TID 0000.0001)                         cg2d_res =    7.50693820073779E-10
(PID.TID 0000.0001) // =======================================================
(PID.TID 0000.0001) // Begin MONITOR dynamic field statistics
(PID.TID 0000.0001) // =======================================================
(PID.TID 0000.0001) %MON time_tsnumber                =                     1
(PID.TID 0000.0001) %MON time_secondsf                =   3.6000000000000E+03
(PID.TID 0000.0001) %MON dynstat_eta_max              =   4.7883499216017E-01
(PID.TID 0000.0001) %MON dynstat_eta_min              =  -3.4030863985822E-01
(PID.TID 0000.0001) %MON dynstat_eta_mean             =   6.8702696259820E-18
(PID.TID 0000.0001) %MON dynstat_eta_sd               =   8.3879658809608E-02
(PID.TID 0000.0001) %MON dynstat_eta_del2             =   1.0919382592027E-02
(PID.TID 0000.0001) %MON dynstat_uvel_max             =   4.9942617082279E-02
(PID.TID 0000.0001) %MON dynstat_uvel_min             =  -7.3755561882739E-02
(PID.TID 0000.0001) %MON dynstat_uvel_mean            =  -1.1083483540148E-04
(PID.TID 0000.0001) %MON dynstat_uvel_sd              =   6.0448690470875E-03
(PID.TID 0000.0001) %MON dynstat_uvel_del2            =   6.8597449039579E-04
(PID.TID 0000.0001) %MON dynstat_vvel_max             =   1.0818638846528E-01
(PID.TID 0000.0001) %MON dynstat_vvel_min             =  -7.3090007143658E-02
(PID.TID 0000.0001) %MON dynstat_vvel_mean            =   1.1283735080746E-04
(PID.TID 0000.0001) %MON dynstat_vvel_sd              =   5.9247513959043E-03
(PID.TID 0000.0001) %MON dynstat_vvel_del2            =   6.6602903764155E-04
(PID.TID 0000.0001) %MON dynstat_wvel_max             =   4.5007128250868E-04
(PID.TID 0000.0001) %MON dynstat_wvel_min             =  -2.7660682820929E-04
(PID.TID 0000.0001) %MON dynstat_wvel_mean            =  -3.4769036829205E-07
(PID.TID 0000.0001) %MON dynstat_wvel_sd              =   1.7448214030023E-05
(PID.TID 0000.0001) %MON dynstat_wvel_del2            =   4.4415542204135E-06
(PID.TID 0000.0001) %MON dynstat_theta_max            =   2.9382560242271E+01
(PID.TID 0000.0001) %MON dynstat_theta_min            =  -1.8553134165897E+00
(PID.TID 0000.0001) %MON dynstat_theta_mean           =   3.6030167263574E+00
(PID.TID 0000.0001) %MON dynstat_theta_sd             =   4.4406497621170E+00
(PID.TID 0000.0001) %MON dynstat_theta_del2           =   7.4632151899063E-02
(PID.TID 0000.0001) %MON dynstat_salt_max             =   4.0715747176514E+01
(PID.TID 0000.0001) %MON dynstat_salt_min             =   1.8144946330873E+01
(PID.TID 0000.0001) %MON dynstat_salt_mean            =   3.4721450527859E+01
(PID.TID 0000.0001) %MON dynstat_salt_sd              =   4.8858318091113E-01
(PID.TID 0000.0001) %MON dynstat_salt_del2            =   1.1845574942192E-02
(PID.TID 0000.0001) %MON extforcing_qnet_max          =   0.0000000000000E+00
(PID.TID 0000.0001) %MON extforcing_qnet_min          =   0.0000000000000E+00
(PID.TID 0000.0001) %MON extforcing_qnet_mean         =   0.0000000000000E+00
(PID.TID 0000.0001) %MON extforcing_qnet_sd           =   0.0000000000000E+00
(PID.TID 0000.0001) %MON extforcing_qnet_del2         =   0.0000000000000E+00
(PID.TID 0000.0001) %MON extforcing_qsw_max           =   0.0000000000000E+00
(PID.TID 0000.0001) %MON extforcing_qsw_min           =   0.0000000000000E+00
(PID.TID 0000.0001) %MON extforcing_qsw_mean          =   0.0000000000000E+00
(PID.TID 0000.0001) %MON extforcing_qsw_sd            =   0.0000000000000E+00
(PID.TID 0000.0001) %MON extforcing_qsw_del2          =   0.0000000000000E+00
(PID.TID 0000.0001) %MON extforcing_empmr_max         =   0.0000000000000E+00
(PID.TID 0000.0001) %MON extforcing_empmr_min         =   0.0000000000000E+00
(PID.TID 0000.0001) %MON extforcing_empmr_mean        =   0.0000000000000E+00
(PID.TID 0000.0001) %MON extforcing_empmr_sd          =   0.0000000000000E+00
(PID.TID 0000.0001) %MON extforcing_empmr_del2        =   0.0000000000000E+00
(PID.TID 0000.0001) %MON extforcing_fu_max            =   0.0000000000000E+00
(PID.TID 0000.0001) %MON extforcing_fu_min            =   0.0000000000000E+00
(PID.TID 0000.0001) %MON extforcing_fu_mean           =   0.0000000000000E+00
(PID.TID 0000.0001) %MON extforcing_fu_sd             =   0.0000000000000E+00
(PID.TID 0000.0001) %MON extforcing_fu_del2           =   0.0000000000000E+00
(PID.TID 0000.0001) %MON extforcing_fv_max            =   0.0000000000000E+00
(PID.TID 0000.0001) %MON extforcing_fv_min            =   0.0000000000000E+00
(PID.TID 0000.0001) %MON extforcing_fv_mean           =   0.0000000000000E+00
(PID.TID 0000.0001) %MON extforcing_fv_sd             =   0.0000000000000E+00
(PID.TID 0000.0001) %MON extforcing_fv_del2           =   0.0000000000000E+00
(PID.TID 0000.0001) %MON advcfl_uvel_max              =   8.8067110054872E-04
(PID.TID 0000.0001) %MON advcfl_vvel_max              =   1.2743531301164E-03
(PID.TID 0000.0001) %MON advcfl_wvel_max              =   5.4347868463013E-03
(PID.TID 0000.0001) %MON advcfl_W_hf_max              =   6.8938825412823E-03
(PID.TID 0000.0001) %MON pe_b_mean                    =   9.3729820076168E-06
(PID.TID 0000.0001) %MON ke_max                       =   2.9553400625943E-03
(PID.TID 0000.0001) %MON ke_mean                      =   3.3082111858406E-05
(PID.TID 0000.0001) %MON ke_vol                       =   1.3398024453628E+18
(PID.TID 0000.0001) %MON vort_r_min                   =  -3.9597249380080E-07
(PID.TID 0000.0001) %MON vort_r_max                   =   3.5145614217471E-07
(PID.TID 0000.0001) %MON vort_a_mean                  =  -2.0549865324846E-05
(PID.TID 0000.0001) %MON vort_a_sd                    =   7.5259122244102E-05
(PID.TID 0000.0001) %MON vort_p_mean                  =  -2.4783522345033E-05
(PID.TID 0000.0001) %MON vort_p_sd                    =   1.2810870562703E-04
(PID.TID 0000.0001) %MON surfExpan_theta_mean         =   1.8634237353357E-05
(PID.TID 0000.0001) %MON surfExpan_salt_mean          =   6.0726603853642E-07
(PID.TID 0000.0001) // =======================================================
(PID.TID 0000.0001) // End MONITOR dynamic field statistics
(PID.TID 0000.0001) // =======================================================
time,SST,SSS,fu,fv,Q,E-P,i0,i1,a,b =   3.6000E+03  1.9747E+01  3.6365E+01  1.0758E-01  4.4834E-02  1.8518E+02  7.7658E-09    12     1  5.0139E-01  4.9861E-01
time,fu0,fu1,fu =   3.6000E+03  1.3167E-01  8.3633E-02  1.0758E-01  5.013888888888889E-01  4.986111111111111E-01
 cg2d: Sum(rhs),rhsMax =   2.83758459984195E-01  7.39321251911014E+00
(PID.TID 0000.0001)                    cg2d_init_res =    1.84797885657300E+00
(PID.TID 0000.0001)                       cg2d_iters =    48
(PID.TID 0000.0001)                         cg2d_res =    7.82592166265170E-10
(PID.TID 0000.0001) // =======================================================
(PID.TID 0000.0001) // Begin MONITOR dynamic field statistics
(PID.TID 0000.0001) // =======================================================
(PID.TID 0000.0001) %MON time_tsnumber                =                     2
(PID.TID 0000.0001) %MON time_secondsf                =   7.2000000000000E+03
(PID.TID 0000.0001) %MON dynstat_eta_max              =   6.9525330368957E-01
(PID.TID 0000.0001) %MON dynstat_eta_min              =  -6.2457069917824E-01
(PID.TID 0000.0001) %MON dynstat_eta_mean             =  -3.9003462654922E-04
(PID.TID 0000.0001) %MON dynstat_eta_sd               =   1.7543128720152E-01
(PID.TID 0000.0001) %MON dynstat_eta_del2             =   1.3995036634224E-02
(PID.TID 0000.0001) %MON dynstat_uvel_max             =   1.0400023064373E-01
(PID.TID 0000.0001) %MON dynstat_uvel_min             =  -1.3148852856985E-01
(PID.TID 0000.0001) %MON dynstat_uvel_mean            =  -5.4312979629337E-04
(PID.TID 0000.0001) %MON dynstat_uvel_sd              =   1.0603054897577E-02
(PID.TID 0000.0001) %MON dynstat_uvel_del2            =   1.3042555912891E-03
(PID.TID 0000.0001) %MON dynstat_vvel_max             =   1.8758155487040E-01
(PID.TID 0000.0001) %MON dynstat_vvel_min             =  -1.5545567023260E-01
(PID.TID 0000.0001) %MON dynstat_vvel_mean            =  -2.5009170150996E-04
(PID.TID 0000.0001) %MON dynstat_vvel_sd              =   1.0967738569425E-02
(PID.TID 0000.0001) %MON dynstat_vvel_del2            =   1.2734516067214E-03
(PID.TID 0000.0001) %MON dynstat_wvel_max             =   8.6834832558563E-04
(PID.TID 0000.0001) %MON dynstat_wvel_min             =  -5.3117919195944E-04
(PID.TID 0000.0001) %MON dynstat_wvel_mean            =  -3.7606160998080E-07
(PID.TID 0000.0001) %MON dynstat_wvel_sd              =   3.1579976027660E-05
(PID.TID 0000.0001) %MON dynstat_wvel_del2            =   7.8805046050787E-06
(PID.TID 0000.0001) %MON dynstat_theta_max            =   2.9372776525416E+01
(PID.TID 0000.0001) %MON dynstat_theta_min            =  -1.8554552702312E+00
(PID.TID 0000.0001) %MON dynstat_theta_mean           =   3.6029375703596E+00
(PID.TID 0000.0001) %MON dynstat_theta_sd             =   4.4403094023939E+00
(PID.TID 0000.0001) %MON dynstat_theta_del2           =   7.4551906119548E-02
(PID.TID 0000.0001) %MON dynstat_salt_max             =   4.0715746931265E+01
(PID.TID 0000.0001) %MON dynstat_salt_min             =   1.8145180935236E+01
(PID.TID 0000.0001) %MON dynstat_salt_mean            =   3.4721453408501E+01
(PID.TID 0000.0001) %MON dynstat_salt_sd              =   4.8858278960022E-01
(PID.TID 0000.0001) %MON dynstat_salt_del2            =   1.1841498034175E-02
(PID.TID 0000.0001) %MON extforcing_qnet_max          =   6.7900181122401E+02
(PID.TID 0000.0001) %MON extforcing_qnet_min          =  -1.8270316622943E+03
(PID.TID 0000.0001) %MON extforcing_qnet_mean         =   2.5845047290899E+02
(PID.TID 0000.0001) %MON extforcing_qnet_sd           =   2.8487474022819E+02
(PID.TID 0000.0001) %MON extforcing_qnet_del2         =   7.3794195097283E+00
(PID.TID 0000.0001) %MON extforcing_qsw_max           =   0.0000000000000E+00
(PID.TID 0000.0001) %MON extforcing_qsw_min           =   0.0000000000000E+00
(PID.TID 0000.0001) %MON extforcing_qsw_mean          =   0.0000000000000E+00
(PID.TID 0000.0001) %MON extforcing_qsw_sd            =   0.0000000000000E+00
(PID.TID 0000.0001) %MON extforcing_qsw_del2          =   0.0000000000000E+00
(PID.TID 0000.0001) %MON extforcing_empmr_max         =   6.0200002610279E-06
(PID.TID 0000.0001) %MON extforcing_empmr_min         =   5.2456490727337E-09
(PID.TID 0000.0001) %MON extforcing_empmr_mean        =   1.1159324037381E-07
(PID.TID 0000.0001) %MON extforcing_empmr_sd          =   2.0328445137847E-07
(PID.TID 0000.0001) %MON extforcing_empmr_del2        =   9.9879337966753E-09
(PID.TID 0000.0001) %MON extforcing_fu_max            =   2.7615547033771E-02
(PID.TID 0000.0001) %MON extforcing_fu_min            =  -6.3877862449486E-03
(PID.TID 0000.0001) %MON extforcing_fu_mean           =   1.6000546340992E-04
(PID.TID 0000.0001) %MON extforcing_fu_sd             =   1.2754044003280E-03
(PID.TID 0000.0001) %MON extforcing_fu_del2           =   1.4106264138583E-04
(PID.TID 0000.0001) %MON extforcing_fv_max            =   3.5583858311786E-02
(PID.TID 0000.0001) %MON extforcing_fv_min            =  -1.4894198834755E-02
(PID.TID 0000.0001) %MON extforcing_fv_mean           =   6.2942546478101E-05
(PID.TID 0000.0001) %MON extforcing_fv_sd             =   1.6757671803764E-03
(PID.TID 0000.0001) %MON extforcing_fv_del2           =   1.5911884213344E-04
(PID.TID 0000.0001) %MON advcfl_uvel_max              =   1.5591674049749E-03
(PID.TID 0000.0001) %MON advcfl_vvel_max              =   2.2095676266882E-03
(PID.TID 0000.0001) %MON advcfl_wvel_max              =   1.0464139357580E-02
(PID.TID 0000.0001) %MON advcfl_W_hf_max              =   1.3258665529140E-02
(PID.TID 0000.0001) %MON pe_b_mean                    =   4.1005390471532E-05
(PID.TID 0000.0001) %MON ke_max                       =   1.2599884923648E-02
(PID.TID 0000.0001) %MON ke_mean                      =   1.0761553277162E-04
(PID.TID 0000.0001) %MON ke_vol                       =   1.3398024453628E+18
(PID.TID 0000.0001) %MON vort_r_min                   =  -6.8428322652921E-07
(PID.TID 0000.0001) %MON vort_r_max                   =   6.0938063053138E-07
(PID.TID 0000.0001) %MON vort_a_mean                  =  -2.0549865324846E-05
(PID.TID 0000.0001) %MON vort_a_sd                    =   7.5258593052697E-05
(PID.TID 0000.0001) %MON vort_p_mean                  =  -2.4783519155748E-05
(PID.TID 0000.0001) %MON vort_p_sd                    =   1.2810802998040E-04
(PID.TID 0000.0001) %MON surfExpan_theta_mean         =   3.1507147758130E-05
(PID.TID 0000.0001) %MON surfExpan_salt_mean          =   1.1019885492145E-06
(PID.TID 0000.0001) // =======================================================
(PID.TID 0000.0001) // End MONITOR dynamic field statistics
(PID.TID 0000.0001) // =======================================================
time,SST,SSS,fu,fv,Q,E-P,i0,i1,a,b =   7.2000E+03  1.9745E+01  3.6365E+01  1.0752E-01  4.4885E-02  1.8514E+02  7.7658E-09    12     1  5.0278E-01  4.9722E-01
time,fu0,fu1,fu =   7.2000E+03  1.3167E-01  8.3633E-02  1.0752E-01  5.027777777777778E-01  4.972222222222222E-01
 cg2d: Sum(rhs),rhsMax =   5.75784924929373E-01  7.19620648890585E+00
(PID.TID 0000.0001)                    cg2d_init_res =    1.39858825756087E+00
(PID.TID 0000.0001)                       cg2d_iters =    48
(PID.TID 0000.0001)                         cg2d_res =    8.54690274156377E-10
(PID.TID 0000.0001) // =======================================================
(PID.TID 0000.0001) // Begin MONITOR dynamic field statistics
(PID.TID 0000.0001) // =======================================================
(PID.TID 0000.0001) %MON time_tsnumber                =                     3
(PID.TID 0000.0001) %MON time_secondsf                =   1.0800000000000E+04
(PID.TID 0000.0001) %MON dynstat_eta_max              =   9.1440618209100E-01
(PID.TID 0000.0001) %MON dynstat_eta_min              =  -8.1944926847391E-01
(PID.TID 0000.0001) %MON dynstat_eta_mean             =  -7.7034463540307E-04
(PID.TID 0000.0001) %MON dynstat_eta_sd               =   2.5272794264937E-01
(PID.TID 0000.0001) %MON dynstat_eta_del2             =   1.3936625840693E-02
(PID.TID 0000.0001) %MON dynstat_uvel_max             =   1.5259145693264E-01
(PID.TID 0000.0001) %MON dynstat_uvel_min             =  -1.8823399084357E-01
(PID.TID 0000.0001) %MON dynstat_uvel_mean            =  -1.2029707346446E-03
(PID.TID 0000.0001) %MON dynstat_uvel_sd              =   1.3651297867345E-02
(PID.TID 0000.0001) %MON dynstat_uvel_del2            =   1.8442558541070E-03
(PID.TID 0000.0001) %MON dynstat_vvel_max             =   2.6296604712235E-01
(PID.TID 0000.0001) %MON dynstat_vvel_min             =  -2.3199059297963E-01
(PID.TID 0000.0001) %MON dynstat_vvel_mean            =  -8.1253209551069E-04
(PID.TID 0000.0001) %MON dynstat_vvel_sd              =   1.4624778881064E-02
(PID.TID 0000.0001) %MON dynstat_vvel_del2            =   1.8033386180076E-03
(PID.TID 0000.0001) %MON dynstat_wvel_max             =   1.2503822316830E-03
(PID.TID 0000.0001) %MON dynstat_wvel_min             =  -7.6794200987736E-04
(PID.TID 0000.0001) %MON dynstat_wvel_mean            =  -3.1950946140250E-07
(PID.TID 0000.0001) %MON dynstat_wvel_sd              =   4.1390880273002E-05
(PID.TID 0000.0001) %MON dynstat_wvel_del2            =   1.0520812989263E-05
(PID.TID 0000.0001) %MON dynstat_theta_max            =   2.9363891827602E+01
(PID.TID 0000.0001) %MON dynstat_theta_min            =  -1.8556103768461E+00
(PID.TID 0000.0001) %MON dynstat_theta_mean           =   3.6028842940355E+00
(PID.TID 0000.0001) %MON dynstat_theta_sd             =   4.4400199441507E+00
(PID.TID 0000.0001) %MON dynstat_theta_del2           =   7.4450892542970E-02
(PID.TID 0000.0001) %MON dynstat_salt_max             =   4.0715746905149E+01
(PID.TID 0000.0001) %MON dynstat_salt_min             =   1.8145482716327E+01
(PID.TID 0000.0001) %MON dynstat_salt_mean            =   3.4721456643213E+01
(PID.TID 0000.0001) %MON dynstat_salt_sd              =   4.8858332479287E-01
(PID.TID 0000.0001) %MON dynstat_salt_del2            =   1.1835930288343E-02
(PID.TID 0000.0001) %MON extforcing_qnet_max          =   6.2177384837990E+02
(PID.TID 0000.0001) %MON extforcing_qnet_min          =  -1.8650271258907E+03
(PID.TID 0000.0001) %MON extforcing_qnet_mean         =   2.1724294059660E+02
(PID.TID 0000.0001) %MON extforcing_qnet_sd           =   2.7028949194798E+02
(PID.TID 0000.0001) %MON extforcing_qnet_del2         =   7.2041916607572E+00
(PID.TID 0000.0001) %MON extforcing_qsw_max           =   0.0000000000000E+00
(PID.TID 0000.0001) %MON extforcing_qsw_min           =   0.0000000000000E+00
(PID.TID 0000.0001) %MON extforcing_qsw_mean          =   0.0000000000000E+00
(PID.TID 0000.0001) %MON extforcing_qsw_sd            =   0.0000000000000E+00
(PID.TID 0000.0001) %MON extforcing_qsw_del2          =   0.0000000000000E+00
(PID.TID 0000.0001) %MON extforcing_empmr_max         =   5.9730586359924E-06
(PID.TID 0000.0001) %MON extforcing_empmr_min         =   5.2239793285695E-09
(PID.TID 0000.0001) %MON extforcing_empmr_mean        =   1.0881091919987E-07
(PID.TID 0000.0001) %MON extforcing_empmr_sd          =   2.0123199290352E-07
(PID.TID 0000.0001) %MON extforcing_empmr_del2        =   9.8727073194452E-09
(PID.TID 0000.0001) %MON extforcing_fu_max            =   5.3345734315223E-02
(PID.TID 0000.0001) %MON extforcing_fu_min            =  -1.7067926368962E-02
(PID.TID 0000.0001) %MON extforcing_fu_mean           =   3.3671925090563E-04
(PID.TID 0000.0001) %MON extforcing_fu_sd             =   2.2489067161895E-03
(PID.TID 0000.0001) %MON extforcing_fu_del2           =   2.2186083447314E-04
(PID.TID 0000.0001) %MON extforcing_fv_max            =   5.9708099460676E-02
(PID.TID 0000.0001) %MON extforcing_fv_min            =  -1.3725375941107E-02
(PID.TID 0000.0001) %MON extforcing_fv_mean           =   2.3276855059912E-04
(PID.TID 0000.0001) %MON extforcing_fv_sd             =   3.7096388214878E-03
(PID.TID 0000.0001) %MON extforcing_fv_del2           =   2.5927873132295E-04
(PID.TID 0000.0001) %MON advcfl_uvel_max              =   2.2320449260768E-03
(PID.TID 0000.0001) %MON advcfl_vvel_max              =   3.0975394411308E-03
(PID.TID 0000.0001) %MON advcfl_wvel_max              =   1.5028747056717E-02
(PID.TID 0000.0001) %MON advcfl_W_hf_max              =   1.8993741551553E-02
(PID.TID 0000.0001) %MON pe_b_mean                    =   8.5097204117972E-05
(PID.TID 0000.0001) %MON ke_max                       =   2.6306502309829E-02
(PID.TID 0000.0001) %MON ke_mean                      =   1.8580640863082E-04
(PID.TID 0000.0001) %MON ke_vol                       =   1.3398023034343E+18
(PID.TID 0000.0001) %MON vort_r_min                   =  -9.5463965040653E-07
(PID.TID 0000.0001) %MON vort_r_max                   =   8.5427597459929E-07
(PID.TID 0000.0001) %MON vort_a_mean                  =  -2.0549865324846E-05
(PID.TID 0000.0001) %MON vort_a_sd                    =   7.5257995700711E-05
(PID.TID 0000.0001) %MON vort_p_mean                  =  -2.4783516359113E-05
(PID.TID 0000.0001) %MON vort_p_sd                    =   1.2810708856833E-04
(PID.TID 0000.0001) %MON surfExpan_theta_mean         =   3.2757875257758E-05
(PID.TID 0000.0001) %MON surfExpan_salt_mean          =   1.3022920333923E-06
(PID.TID 0000.0001) // =======================================================
(PID.TID 0000.0001) // End MONITOR dynamic field statistics
(PID.TID 0000.0001) // =======================================================
time,SST,SSS,fu,fv,Q,E-P,i0,i1,a,b =   1.0800E+04  1.9743E+01  3.6365E+01  1.0745E-01  4.4936E-02  1.8510E+02  7.7658E-09    12     1  5.0417E-01  4.9583E-01
time,fu0,fu1,fu =   1.0800E+04  1.3167E-01  8.3633E-02  1.0745E-01  5.041666666666667E-01  4.958333333333333E-01
 cg2d: Sum(rhs),rhsMax =   8.63549989986012E-01  6.97143505122534E+00
(PID.TID 0000.0001)                    cg2d_init_res =    1.13007508680503E+00
(PID.TID 0000.0001)                       cg2d_iters =    48
(PID.TID 0000.0001)                         cg2d_res =    7.09284970855499E-10
(PID.TID 0000.0001) // =======================================================
(PID.TID 0000.0001) // Begin MONITOR dynamic field statistics
(PID.TID 0000.0001) // =======================================================
(PID.TID 0000.0001) %MON time_tsnumber                =                     4
(PID.TID 0000.0001) %MON time_secondsf                =   1.4400000000000E+04
(PID.TID 0000.0001) %MON dynstat_eta_max              =   1.0448010660392E+00
(PID.TID 0000.0001) %MON dynstat_eta_min              =  -9.3830074403222E-01
(PID.TID 0000.0001) %MON dynstat_eta_mean             =  -1.1192595921646E-03
(PID.TID 0000.0001) %MON dynstat_eta_sd               =   3.0824127093880E-01
(PID.TID 0000.0001) %MON dynstat_eta_del2             =   1.3412646117909E-02
(PID.TID 0000.0001) %MON dynstat_uvel_max             =   1.9675836795109E-01
(PID.TID 0000.0001) %MON dynstat_uvel_min             =  -2.4218888170137E-01
(PID.TID 0000.0001) %MON dynstat_uvel_mean            =  -1.8823455984739E-03
(PID.TID 0000.0001) %MON dynstat_uvel_sd              =   1.5907921336472E-02
(PID.TID 0000.0001) %MON dynstat_uvel_del2            =   2.3193104663148E-03
(PID.TID 0000.0001) %MON dynstat_vvel_max             =   3.3469635093610E-01
(PID.TID 0000.0001) %MON dynstat_vvel_min             =  -3.0237558317302E-01
(PID.TID 0000.0001) %MON dynstat_vvel_mean            =  -1.3984005091141E-03
(PID.TID 0000.0001) %MON dynstat_vvel_sd              =   1.7151520465856E-02
(PID.TID 0000.0001) %MON dynstat_vvel_del2            =   2.2657581128376E-03
(PID.TID 0000.0001) %MON dynstat_wvel_max             =   1.6041759979924E-03
(PID.TID 0000.0001) %MON dynstat_wvel_min             =  -9.8917834491300E-04
(PID.TID 0000.0001) %MON dynstat_wvel_mean            =  -2.0027800345035E-07
(PID.TID 0000.0001) %MON dynstat_wvel_sd              =   4.7890518498723E-05
(PID.TID 0000.0001) %MON dynstat_wvel_del2            =   1.2553609563016E-05
(PID.TID 0000.0001) %MON dynstat_theta_max            =   2.9355311521602E+01
(PID.TID 0000.0001) %MON dynstat_theta_min            =  -1.8556828393219E+00
(PID.TID 0000.0001) %MON dynstat_theta_mean           =   3.6028430406541E+00
(PID.TID 0000.0001) %MON dynstat_theta_sd             =   4.4397482255833E+00
(PID.TID 0000.0001) %MON dynstat_theta_del2           =   7.4334837108920E-02
(PID.TID 0000.0001) %MON dynstat_salt_max             =   4.0715746809096E+01
(PID.TID 0000.0001) %MON dynstat_salt_min             =   1.8145845660490E+01
(PID.TID 0000.0001) %MON dynstat_salt_mean            =   3.4721460038099E+01
(PID.TID 0000.0001) %MON dynstat_salt_sd              =   4.8858551838327E-01
(PID.TID 0000.0001) %MON dynstat_salt_del2            =   1.1829655766437E-02
(PID.TID 0000.0001) %MON extforcing_qnet_max          =   5.9998458801755E+02
(PID.TID 0000.0001) %MON extforcing_qnet_min          =  -2.3689635244619E+02
(PID.TID 0000.0001) %MON extforcing_qnet_mean         =   2.0527597306845E+02
(PID.TID 0000.0001) %MON extforcing_qnet_sd           =   2.5967497752707E+02
(PID.TID 0000.0001) %MON extforcing_qnet_del2         =   4.7583317247375E+00
(PID.TID 0000.0001) %MON extforcing_qsw_max           =   0.0000000000000E+00
(PID.TID 0000.0001) %MON extforcing_qsw_min           =   0.0000000000000E+00
(PID.TID 0000.0001) %MON extforcing_qsw_mean          =   0.0000000000000E+00
(PID.TID 0000.0001) %MON extforcing_qsw_sd            =   0.0000000000000E+00
(PID.TID 0000.0001) %MON extforcing_qsw_del2          =   0.0000000000000E+00
(PID.TID 0000.0001) %MON extforcing_empmr_max         =   6.6616445661475E-07
(PID.TID 0000.0001) %MON extforcing_empmr_min         =   5.1976571641228E-09
(PID.TID 0000.0001) %MON extforcing_empmr_mean        =   9.9828445962315E-08
(PID.TID 0000.0001) %MON extforcing_empmr_sd          =   7.4058454913877E-08
(PID.TID 0000.0001) %MON extforcing_empmr_del2        =   2.6180883233351E-09
(PID.TID 0000.0001) %MON extforcing_fu_max            =   3.0172431934137E-02
(PID.TID 0000.0001) %MON extforcing_fu_min            =  -5.0299712260105E-02
(PID.TID 0000.0001) %MON extforcing_fu_mean           =   1.4569838195398E-04
(PID.TID 0000.0001) %MON extforcing_fu_sd             =   3.3351027614573E-03
(PID.TID 0000.0001) %MON extforcing_fu_del2           =   3.3267650750604E-04
(PID.TID 0000.0001) %MON extforcing_fv_max            =   3.3264070379462E-02
(PID.TID 0000.0001) %MON extforcing_fv_min            =  -1.3194802198306E-02
(PID.TID 0000.0001) %MON extforcing_fv_mean           =   3.2553601509114E-04
(PID.TID 0000.0001) %MON extforcing_fv_sd             =   3.4287512898736E-03
(PID.TID 0000.0001) %MON extforcing_fv_del2           =   3.2815628279372E-04
(PID.TID 0000.0001) %MON advcfl_uvel_max              =   2.8718323514854E-03
(PID.TID 0000.0001) %MON advcfl_vvel_max              =   3.9424677032346E-03
(PID.TID 0000.0001) %MON advcfl_wvel_max              =   1.9246794319786E-02
(PID.TID 0000.0001) %MON advcfl_W_hf_max              =   2.4276211796620E-02
(PID.TID 0000.0001) %MON pe_b_mean                    =   1.2658430388162E-04
(PID.TID 0000.0001) %MON ke_max                       =   4.2178007399275E-02
(PID.TID 0000.0001) %MON ke_mean                      =   2.5526389432245E-04
(PID.TID 0000.0001) %MON ke_vol                       =   1.3398021650446E+18
(PID.TID 0000.0001) %MON vort_r_min                   =  -1.2138681740938E-06
(PID.TID 0000.0001) %MON vort_r_max                   =   1.0873002599371E-06
(PID.TID 0000.0001) %MON vort_a_mean                  =  -2.0549865324846E-05
(PID.TID 0000.0001) %MON vort_a_sd                    =   7.5257527710702E-05
(PID.TID 0000.0001) %MON vort_p_mean                  =  -2.4783512811909E-05
(PID.TID 0000.0001) %MON vort_p_sd                    =   1.2810633081015E-04
(PID.TID 0000.0001) %MON surfExpan_theta_mean         =   2.8146026718146E-05
(PID.TID 0000.0001) %MON surfExpan_salt_mean          =   1.2423070809614E-06
(PID.TID 0000.0001) // =======================================================
(PID.TID 0000.0001) // End MONITOR dynamic field statistics
(PID.TID 0000.0001) // =======================================================
time,SST,SSS,fu,fv,Q,E-P,i0,i1,a,b =   1.4400E+04  1.9741E+01  3.6365E+01  1.0738E-01  4.4986E-02  1.8506E+02  7.7658E-09    12     1  5.0556E-01  4.9444E-01
time,fu0,fu1,fu =   1.4400E+04  1.3167E-01  8.3633E-02  1.0738E-01  5.055555555555555E-01  4.944444444444445E-01
 cg2d: Sum(rhs),rhsMax =   1.14066129855975E+00  6.87396504344684E+00
(PID.TID 0000.0001)                    cg2d_init_res =    9.39444559100724E-01
(PID.TID 0000.0001)                       cg2d_iters =    47
(PID.TID 0000.0001)                         cg2d_res =    9.74793509536074E-10
(PID.TID 0000.0001) // =======================================================
(PID.TID 0000.0001) // Begin MONITOR dynamic field statistics
(PID.TID 0000.0001) // =======================================================
(PID.TID 0000.0001) %MON time_tsnumber                =                     5
(PID.TID 0000.0001) %MON time_secondsf                =   1.8000000000000E+04
(PID.TID 0000.0001) %MON dynstat_eta_max              =   1.0999010826655E+00
(PID.TID 0000.0001) %MON dynstat_eta_min              =  -1.0583608439229E+00
(PID.TID 0000.0001) %MON dynstat_eta_mean             =  -1.4577571552706E-03
(PID.TID 0000.0001) %MON dynstat_eta_sd               =   3.4219510742357E-01
(PID.TID 0000.0001) %MON dynstat_eta_del2             =   1.3272222829212E-02
(PID.TID 0000.0001) %MON dynstat_uvel_max             =   2.3755745639100E-01
(PID.TID 0000.0001) %MON dynstat_uvel_min             =  -2.9216118394514E-01
(PID.TID 0000.0001) %MON dynstat_uvel_mean            =  -2.3677620807222E-03
(PID.TID 0000.0001) %MON dynstat_uvel_sd              =   1.7688242304349E-02
(PID.TID 0000.0001) %MON dynstat_uvel_del2            =   2.7458652984236E-03
(PID.TID 0000.0001) %MON dynstat_vvel_max             =   4.0197842637109E-01
(PID.TID 0000.0001) %MON dynstat_vvel_min             =  -3.6776200122398E-01
(PID.TID 0000.0001) %MON dynstat_vvel_mean            =  -1.9013948868810E-03
(PID.TID 0000.0001) %MON dynstat_vvel_sd              =   1.8879920444947E-02
(PID.TID 0000.0001) %MON dynstat_vvel_del2            =   2.6731104798124E-03
(PID.TID 0000.0001) %MON dynstat_wvel_max             =   1.9358812195278E-03
(PID.TID 0000.0001) %MON dynstat_wvel_min             =  -1.1954539974346E-03
(PID.TID 0000.0001) %MON dynstat_wvel_mean            =  -4.8313893446629E-08
(PID.TID 0000.0001) %MON dynstat_wvel_sd              =   5.1976232750571E-05
(PID.TID 0000.0001) %MON dynstat_wvel_del2            =   1.4111392976530E-05
(PID.TID 0000.0001) %MON dynstat_theta_max            =   2.9347054761730E+01
(PID.TID 0000.0001) %MON dynstat_theta_min            =  -1.8556371379556E+00
(PID.TID 0000.0001) %MON dynstat_theta_mean           =   3.6028077986837E+00
(PID.TID 0000.0001) %MON dynstat_theta_sd             =   4.4394908615471E+00
(PID.TID 0000.0001) %MON dynstat_theta_del2           =   7.4206532230092E-02
(PID.TID 0000.0001) %MON dynstat_salt_max             =   4.0715746705954E+01
(PID.TID 0000.0001) %MON dynstat_salt_min             =   1.8146261213062E+01
(PID.TID 0000.0001) %MON dynstat_salt_mean            =   3.4721463672910E+01
(PID.TID 0000.0001) %MON dynstat_salt_sd              =   4.8858780360013E-01
(PID.TID 0000.0001) %MON dynstat_salt_del2            =   1.1822841410529E-02
(PID.TID 0000.0001) %MON extforcing_qnet_max          =   5.7824479464126E+02
(PID.TID 0000.0001) %MON extforcing_qnet_min          =  -2.4448612662258E+02
(PID.TID 0000.0001) %MON extforcing_qnet_mean         =   1.9389949970235E+02
(PID.TID 0000.0001) %MON extforcing_qnet_sd           =   2.5588214388930E+02
(PID.TID 0000.0001) %MON extforcing_qnet_del2         =   4.4402224917761E+00
(PID.TID 0000.0001) %MON extforcing_qsw_max           =   0.0000000000000E+00
(PID.TID 0000.0001) %MON extforcing_qsw_min           =   0.0000000000000E+00
(PID.TID 0000.0001) %MON extforcing_qsw_mean          =   0.0000000000000E+00
(PID.TID 0000.0001) %MON extforcing_qsw_sd            =   0.0000000000000E+00
(PID.TID 0000.0001) %MON extforcing_qsw_del2          =   0.0000000000000E+00
(PID.TID 0000.0001) %MON extforcing_empmr_max         =   9.1902377569023E-07
(PID.TID 0000.0001) %MON extforcing_empmr_min         =   5.1749459170943E-09
(PID.TID 0000.0001) %MON extforcing_empmr_mean        =   9.6847913888620E-08
(PID.TID 0000.0001) %MON extforcing_empmr_sd          =   6.9304448667340E-08
(PID.TID 0000.0001) %MON extforcing_empmr_del2        =   1.9096720962486E-09
(PID.TID 0000.0001) %MON extforcing_fu_max            =   2.0326025608244E-02
(PID.TID 0000.0001) %MON extforcing_fu_min            =  -3.5503462934682E-02
(PID.TID 0000.0001) %MON extforcing_fu_mean           =  -5.9122434827985E-05
(PID.TID 0000.0001) %MON extforcing_fu_sd             =   3.8776358623709E-03
(PID.TID 0000.0001) %MON extforcing_fu_del2           =   4.8469204661317E-04
(PID.TID 0000.0001) %MON extforcing_fv_max            =   2.8978209676964E-02
(PID.TID 0000.0001) %MON extforcing_fv_min            =  -2.7562968897658E-02
(PID.TID 0000.0001) %MON extforcing_fv_mean           =   2.4975440862400E-04
(PID.TID 0000.0001) %MON extforcing_fv_sd             =   3.8084111836790E-03
(PID.TID 0000.0001) %MON extforcing_fv_del2           =   4.5606539078919E-04
(PID.TID 0000.0001) %MON advcfl_uvel_max              =   3.4643949549117E-03
(PID.TID 0000.0001) %MON advcfl_vvel_max              =   4.7349992282039E-03
(PID.TID 0000.0001) %MON advcfl_wvel_max              =   2.3205999509170E-02
(PID.TID 0000.0001) %MON advcfl_W_hf_max              =   2.9235031912899E-02
(PID.TID 0000.0001) %MON pe_b_mean                    =   1.5600896542006E-04
(PID.TID 0000.0001) %MON ke_max                       =   5.9578471215927E-02
(PID.TID 0000.0001) %MON ke_mean                      =   3.1335272133236E-04
(PID.TID 0000.0001) %MON ke_vol                       =   1.3398020380790E+18
(PID.TID 0000.0001) %MON vort_r_min                   =  -1.4599028434069E-06
(PID.TID 0000.0001) %MON vort_r_max                   =   1.3058739548847E-06
(PID.TID 0000.0001) %MON vort_a_mean                  =  -2.0549865324846E-05
(PID.TID 0000.0001) %MON vort_a_sd                    =   7.5257267494359E-05
(PID.TID 0000.0001) %MON vort_p_mean                  =  -2.4783510593682E-05
(PID.TID 0000.0001) %MON vort_p_sd                    =   1.2810582598720E-04
(PID.TID 0000.0001) %MON surfExpan_theta_mean         =   2.1397609794992E-05
(PID.TID 0000.0001) %MON surfExpan_salt_mean          =   9.5437859326701E-07
(PID.TID 0000.0001) // =======================================================
(PID.TID 0000.0001) // End MONITOR dynamic field statistics
(PID.TID 0000.0001) // =======================================================
(PID.TID 0000.0001) %CHECKPOINT         5 ckptA
(PID.TID 0000.0001)   Seconds in section "ALL                    [THE_MODEL_MAIN]":
(PID.TID 0000.0001)           User time:   7.32000017166138
(PID.TID 0000.0001)         System time:  0.540000012144446
(PID.TID 0000.0001)     Wall clock time:   28.3474400043488
(PID.TID 0000.0001)          No. starts:           1
(PID.TID 0000.0001)           No. stops:           1
(PID.TID 0000.0001)   Seconds in section "INITIALISE_FIXED       [THE_MODEL_MAIN]":
(PID.TID 0000.0001)           User time:  0.270000010728836
(PID.TID 0000.0001)         System time:  0.130000000819564
(PID.TID 0000.0001)     Wall clock time:   1.96254301071167
(PID.TID 0000.0001)          No. starts:           1
(PID.TID 0000.0001)           No. stops:           1
(PID.TID 0000.0001)   Seconds in section "THE_MAIN_LOOP          [THE_MODEL_MAIN]":
(PID.TID 0000.0001)           User time:   6.94000002741814
(PID.TID 0000.0001)         System time:  0.290000006556511
(PID.TID 0000.0001)     Wall clock time:   24.8941640853882
(PID.TID 0000.0001)          No. starts:           1
(PID.TID 0000.0001)           No. stops:           1
(PID.TID 0000.0001)   Seconds in section "INITIALISE_VARIA    [THE_MAIN_LOOP]":
(PID.TID 0000.0001)           User time:  0.569999963045120
(PID.TID 0000.0001)         System time:  0.149999991059303
(PID.TID 0000.0001)     Wall clock time:  0.976671934127808
(PID.TID 0000.0001)          No. starts:           1
(PID.TID 0000.0001)           No. stops:           1
(PID.TID 0000.0001)   Seconds in section "MAIN LOOP           [THE_MAIN_LOOP]":
(PID.TID 0000.0001)           User time:   6.37000006437302
(PID.TID 0000.0001)         System time:  0.140000015497208
(PID.TID 0000.0001)     Wall clock time:   23.9174368381500
(PID.TID 0000.0001)          No. starts:           1
(PID.TID 0000.0001)           No. stops:           1
(PID.TID 0000.0001)   Seconds in section "FORWARD_STEP        [THE_MAIN_LOOP]":
(PID.TID 0000.0001)           User time:   6.37000006437302
(PID.TID 0000.0001)         System time:  0.140000015497208
(PID.TID 0000.0001)     Wall clock time:   23.9173309803009
(PID.TID 0000.0001)          No. starts:           5
(PID.TID 0000.0001)           No. stops:           5
(PID.TID 0000.0001)   Seconds in section "LOAD_FIELDS_DRIVER  [FORWARD_STEP]":
(PID.TID 0000.0001)           User time:  2.000004053115845E-002
(PID.TID 0000.0001)         System time:  1.000002026557922E-002
(PID.TID 0000.0001)     Wall clock time:  4.099631309509277E-002
(PID.TID 0000.0001)          No. starts:           5
(PID.TID 0000.0001)           No. stops:           5
(PID.TID 0000.0001)   Seconds in section "EXTERNAL_FLDS_LOAD [LOAD_FLDS_DRIVER]":
(PID.TID 0000.0001)           User time:  2.000004053115845E-002
(PID.TID 0000.0001)         System time:  1.000002026557922E-002
(PID.TID 0000.0001)     Wall clock time:  4.081392288208008E-002
(PID.TID 0000.0001)          No. starts:           5
(PID.TID 0000.0001)           No. stops:           5
(PID.TID 0000.0001)   Seconds in section "CPL_EXPORT-IMPORT  [FORWARD_STEP]":
(PID.TID 0000.0001)           User time:  3.999996185302734E-002
(PID.TID 0000.0001)         System time:  9.999990463256836E-003
(PID.TID 0000.0001)     Wall clock time:   16.2217087745667
(PID.TID 0000.0001)          No. starts:           5
(PID.TID 0000.0001)           No. stops:           5
(PID.TID 0000.0001)   Seconds in section "DO_ATMOSPHERIC_PHYS [FORWARD_STEP]":
(PID.TID 0000.0001)           User time:  0.000000000000000E+000
(PID.TID 0000.0001)         System time:  0.000000000000000E+000
(PID.TID 0000.0001)     Wall clock time:  9.369850158691406E-005
(PID.TID 0000.0001)          No. starts:           5
(PID.TID 0000.0001)           No. stops:           5
(PID.TID 0000.0001)   Seconds in section "DO_OCEANIC_PHYS     [FORWARD_STEP]":
(PID.TID 0000.0001)           User time:  0.810000300407410
(PID.TID 0000.0001)         System time:  0.000000000000000E+000
(PID.TID 0000.0001)     Wall clock time:  0.820459604263306
(PID.TID 0000.0001)          No. starts:           5
(PID.TID 0000.0001)           No. stops:           5
(PID.TID 0000.0001)   Seconds in section "DYNAMICS            [FORWARD_STEP]":
(PID.TID 0000.0001)           User time:   1.67999970912933
(PID.TID 0000.0001)         System time:  0.000000000000000E+000
(PID.TID 0000.0001)     Wall clock time:   1.67945098876953
(PID.TID 0000.0001)          No. starts:           5
(PID.TID 0000.0001)           No. stops:           5
(PID.TID 0000.0001)   Seconds in section "UPDATE_R_STAR       [FORWARD_STEP]":
(PID.TID 0000.0001)           User time:  8.000016212463379E-002
(PID.TID 0000.0001)         System time:  0.000000000000000E+000
(PID.TID 0000.0001)     Wall clock time:  8.998680114746094E-002
(PID.TID 0000.0001)          No. starts:           5
(PID.TID 0000.0001)           No. stops:           5
(PID.TID 0000.0001)   Seconds in section "UPDATE_CG2D         [FORWARD_STEP]":
(PID.TID 0000.0001)           User time:  5.000042915344238E-002
(PID.TID 0000.0001)         System time:  0.000000000000000E+000
(PID.TID 0000.0001)     Wall clock time:  3.955507278442383E-002
(PID.TID 0000.0001)          No. starts:           5
(PID.TID 0000.0001)           No. stops:           5
(PID.TID 0000.0001)   Seconds in section "SOLVE_FOR_PRESSURE  [FORWARD_STEP]":
(PID.TID 0000.0001)           User time:  0.550000071525574
(PID.TID 0000.0001)         System time:  9.999990463256836E-003
(PID.TID 0000.0001)     Wall clock time:  0.553044319152832
(PID.TID 0000.0001)          No. starts:           5
(PID.TID 0000.0001)           No. stops:           5
(PID.TID 0000.0001)   Seconds in section "MOM_CORRECTION_STEP [FORWARD_STEP]":
(PID.TID 0000.0001)           User time:  0.149999618530273
(PID.TID 0000.0001)         System time:  0.000000000000000E+000
(PID.TID 0000.0001)     Wall clock time:  0.137603044509888
(PID.TID 0000.0001)          No. starts:           5
(PID.TID 0000.0001)           No. stops:           5
(PID.TID 0000.0001)   Seconds in section "UPDATE_ETAH         [FORWARD_STEP]":
(PID.TID 0000.0001)           User time:  0.000000000000000E+000
(PID.TID 0000.0001)         System time:  0.000000000000000E+000
(PID.TID 0000.0001)     Wall clock time:  1.209020614624023E-003
(PID.TID 0000.0001)          No. starts:           5
(PID.TID 0000.0001)           No. stops:           5
(PID.TID 0000.0001)   Seconds in section "CALC_R_STAR         [FORWARD_STEP]":
(PID.TID 0000.0001)           User time:  0.000000000000000E+000
(PID.TID 0000.0001)         System time:  0.000000000000000E+000
(PID.TID 0000.0001)     Wall clock time:  2.181315422058105E-002
(PID.TID 0000.0001)          No. starts:           5
(PID.TID 0000.0001)           No. stops:           5
(PID.TID 0000.0001)   Seconds in section "BLOCKING_EXCHANGES  [FORWARD_STEP]":
(PID.TID 0000.0001)           User time:  0.179999709129333
(PID.TID 0000.0001)         System time:  0.000000000000000E+000
(PID.TID 0000.0001)     Wall clock time:  0.181314945220947
(PID.TID 0000.0001)          No. starts:          10
(PID.TID 0000.0001)           No. stops:          10
(PID.TID 0000.0001)   Seconds in section "THERMODYNAMICS      [FORWARD_STEP]":
(PID.TID 0000.0001)           User time:   1.25999975204468
(PID.TID 0000.0001)         System time:  0.000000000000000E+000
(PID.TID 0000.0001)     Wall clock time:   1.26165699958801
(PID.TID 0000.0001)          No. starts:           5
(PID.TID 0000.0001)           No. stops:           5
(PID.TID 0000.0001)   Seconds in section "TRC_CORRECTION_STEP [FORWARD_STEP]":
(PID.TID 0000.0001)           User time:  4.000043869018555E-002
(PID.TID 0000.0001)         System time:  0.000000000000000E+000
(PID.TID 0000.0001)     Wall clock time:  2.206420898437500E-002
(PID.TID 0000.0001)          No. starts:           5
(PID.TID 0000.0001)           No. stops:           5
(PID.TID 0000.0001)   Seconds in section "DO_STATEVARS_TAVE   [FORWARD_STEP]":
(PID.TID 0000.0001)           User time:  0.569999814033508
(PID.TID 0000.0001)         System time:  0.000000000000000E+000
(PID.TID 0000.0001)     Wall clock time:  0.556517839431763
(PID.TID 0000.0001)          No. starts:           5
(PID.TID 0000.0001)           No. stops:           5
(PID.TID 0000.0001)   Seconds in section "MONITOR             [FORWARD_STEP]":
(PID.TID 0000.0001)           User time:  0.849999904632568
(PID.TID 0000.0001)         System time:  0.000000000000000E+000
(PID.TID 0000.0001)     Wall clock time:  0.857032060623169
(PID.TID 0000.0001)          No. starts:           5
(PID.TID 0000.0001)           No. stops:           5
(PID.TID 0000.0001)   Seconds in section "DO_THE_MODEL_IO     [FORWARD_STEP]":
(PID.TID 0000.0001)           User time:  9.000015258789063E-002
(PID.TID 0000.0001)         System time:  0.110000014305115
(PID.TID 0000.0001)     Wall clock time:   1.43089509010315
(PID.TID 0000.0001)          No. starts:           5
(PID.TID 0000.0001)           No. stops:           5
(PID.TID 0000.0001)   Seconds in section "DO_WRITE_PICKUP     [FORWARD_STEP]":
(PID.TID 0000.0001)           User time:  0.000000000000000E+000
(PID.TID 0000.0001)         System time:  0.000000000000000E+000
(PID.TID 0000.0001)     Wall clock time:  9.322166442871094E-005
(PID.TID 0000.0001)          No. starts:           5
(PID.TID 0000.0001)           No. stops:           5
(PID.TID 0000.0001)   Seconds in section "DO_WRITE_PICKUP        [THE_MODEL_MAIN]":
(PID.TID 0000.0001)           User time:  0.110000133514404
(PID.TID 0000.0001)         System time:  0.120000004768372
(PID.TID 0000.0001)     Wall clock time:   1.49065399169922
(PID.TID 0000.0001)          No. starts:           1
(PID.TID 0000.0001)           No. stops:           1
(PID.TID 0000.0001) // ======================================================
(PID.TID 0000.0001) // Tile <-> Tile communication statistics
(PID.TID 0000.0001) // ======================================================
(PID.TID 0000.0001) // o Tile number: 000001
(PID.TID 0000.0001) //         No. X exchanges =              0
(PID.TID 0000.0001) //            Max. X spins =              0
(PID.TID 0000.0001) //            Min. X spins =     1000000000
(PID.TID 0000.0001) //          Total. X spins =              0
(PID.TID 0000.0001) //            Avg. X spins =       0.00E+00
(PID.TID 0000.0001) //         No. Y exchanges =              0
(PID.TID 0000.0001) //            Max. Y spins =              0
(PID.TID 0000.0001) //            Min. Y spins =     1000000000
(PID.TID 0000.0001) //          Total. Y spins =              0
(PID.TID 0000.0001) //            Avg. Y spins =       0.00E+00
(PID.TID 0000.0001) // o Tile number: 000002
(PID.TID 0000.0001) //         No. X exchanges =              0
(PID.TID 0000.0001) //            Max. X spins =              0
(PID.TID 0000.0001) //            Min. X spins =     1000000000
(PID.TID 0000.0001) //          Total. X spins =              0
(PID.TID 0000.0001) //            Avg. X spins =       0.00E+00
(PID.TID 0000.0001) //         No. Y exchanges =              0
(PID.TID 0000.0001) //            Max. Y spins =              0
(PID.TID 0000.0001) //            Min. Y spins =     1000000000
(PID.TID 0000.0001) //          Total. Y spins =              0
(PID.TID 0000.0001) //            Avg. Y spins =       0.00E+00
(PID.TID 0000.0001) // o Tile number: 000003
(PID.TID 0000.0001) //         No. X exchanges =              0
(PID.TID 0000.0001) //            Max. X spins =              0
(PID.TID 0000.0001) //            Min. X spins =     1000000000
(PID.TID 0000.0001) //          Total. X spins =              0
(PID.TID 0000.0001) //            Avg. X spins =       0.00E+00
(PID.TID 0000.0001) //         No. Y exchanges =              0
(PID.TID 0000.0001) //            Max. Y spins =              0
(PID.TID 0000.0001) //            Min. Y spins =     1000000000
(PID.TID 0000.0001) //          Total. Y spins =              0
(PID.TID 0000.0001) //            Avg. Y spins =       0.00E+00
(PID.TID 0000.0001) // o Tile number: 000004
(PID.TID 0000.0001) //         No. X exchanges =              0
(PID.TID 0000.0001) //            Max. X spins =              0
(PID.TID 0000.0001) //            Min. X spins =     1000000000
(PID.TID 0000.0001) //          Total. X spins =              0
(PID.TID 0000.0001) //            Avg. X spins =       0.00E+00
(PID.TID 0000.0001) //         No. Y exchanges =              0
(PID.TID 0000.0001) //            Max. Y spins =              0
(PID.TID 0000.0001) //            Min. Y spins =     1000000000
(PID.TID 0000.0001) //          Total. Y spins =              0
(PID.TID 0000.0001) //            Avg. Y spins =       0.00E+00
(PID.TID 0000.0001) // o Tile number: 000005
(PID.TID 0000.0001) //         No. X exchanges =              0
(PID.TID 0000.0001) //            Max. X spins =              0
(PID.TID 0000.0001) //            Min. X spins =     1000000000
(PID.TID 0000.0001) //          Total. X spins =              0
(PID.TID 0000.0001) //            Avg. X spins =       0.00E+00
(PID.TID 0000.0001) //         No. Y exchanges =              0
(PID.TID 0000.0001) //            Max. Y spins =              0
(PID.TID 0000.0001) //            Min. Y spins =     1000000000
(PID.TID 0000.0001) //          Total. Y spins =              0
(PID.TID 0000.0001) //            Avg. Y spins =       0.00E+00
(PID.TID 0000.0001) // o Tile number: 000006
(PID.TID 0000.0001) //         No. X exchanges =              0
(PID.TID 0000.0001) //            Max. X spins =              0
(PID.TID 0000.0001) //            Min. X spins =     1000000000
(PID.TID 0000.0001) //          Total. X spins =              0
(PID.TID 0000.0001) //            Avg. X spins =       0.00E+00
(PID.TID 0000.0001) //         No. Y exchanges =              0
(PID.TID 0000.0001) //            Max. Y spins =              0
(PID.TID 0000.0001) //            Min. Y spins =     1000000000
(PID.TID 0000.0001) //          Total. Y spins =              0
(PID.TID 0000.0001) //            Avg. Y spins =       0.00E+00
(PID.TID 0000.0001) // o Thread number: 000001
(PID.TID 0000.0001) //            No. barriers =           9954
(PID.TID 0000.0001) //      Max. barrier spins =              1
(PID.TID 0000.0001) //      Min. barrier spins =              1
(PID.TID 0000.0001) //     Total barrier spins =           9954
(PID.TID 0000.0001) //      Avg. barrier spins =       1.00E+00
