(PID.TID 0000.0001) 
(PID.TID 0000.0001) // ======================================================
(PID.TID 0000.0001) //                      MITgcm UV
(PID.TID 0000.0001) //                      =========
(PID.TID 0000.0001) // ======================================================
(PID.TID 0000.0001) // execution environment starting up...
(PID.TID 0000.0001) 
(PID.TID 0000.0001) // MITgcmUV version:  checkpoint67u
(PID.TID 0000.0001) // Build user:        mlosch
(PID.TID 0000.0001) // Build host:        bkli04l006
(PID.TID 0000.0001) // Build date:        Tue Feb  2 07:41:15 CET 2021
(PID.TID 0000.0001) 
(PID.TID 0000.0001) // =======================================================
(PID.TID 0000.0001) // Execution Environment parameter file "eedata"
(PID.TID 0000.0001) // =======================================================
(PID.TID 0000.0001) ># Example "eedata" file
(PID.TID 0000.0001) ># Lines beginning "#" are comments
(PID.TID 0000.0001) ># nTx - No. threads per process in X
(PID.TID 0000.0001) ># nTy - No. threads per process in Y
(PID.TID 0000.0001) > &EEPARMS
(PID.TID 0000.0001) > nTx=1,
(PID.TID 0000.0001) > nTy=1,
(PID.TID 0000.0001) > /
(PID.TID 0000.0001) ># Note: Some systems use & as the namelist terminator (as shown here).
(PID.TID 0000.0001) >#       Other systems use a / character.
(PID.TID 0000.0001) 
(PID.TID 0000.0001) // =======================================================
(PID.TID 0000.0001) // Computational Grid Specification ( see files "SIZE.h" )
(PID.TID 0000.0001) //                                  ( and "eedata"       )
(PID.TID 0000.0001) // =======================================================
(PID.TID 0000.0001)      nPx =    1 ; /* No. processes in X */
(PID.TID 0000.0001)      nPy =    1 ; /* No. processes in Y */
(PID.TID 0000.0001)      nSx =    2 ; /* No. tiles in X per process */
(PID.TID 0000.0001)      nSy =    2 ; /* No. tiles in Y per process */
(PID.TID 0000.0001)      sNx =   10 ; /* Tile size in X */
(PID.TID 0000.0001)      sNy =    8 ; /* Tile size in Y */
(PID.TID 0000.0001)      OLx =    4 ; /* Tile overlap distance in X */
(PID.TID 0000.0001)      OLy =    4 ; /* Tile overlap distance in Y */
(PID.TID 0000.0001)      nTx =    1 ; /* No. threads in X per process */
(PID.TID 0000.0001)      nTy =    1 ; /* No. threads in Y per process */
(PID.TID 0000.0001)       Nr =   23 ; /* No. levels in the vertical   */
(PID.TID 0000.0001)       Nx =   20 ; /* Total domain size in X ( = nPx*nSx*sNx ) */
(PID.TID 0000.0001)       Ny =   16 ; /* Total domain size in Y ( = nPy*nSy*sNy ) */
(PID.TID 0000.0001)   nTiles =    4 ; /* Total no. tiles per process ( = nSx*nSy ) */
(PID.TID 0000.0001)   nProcs =    1 ; /* Total no. processes ( = nPx*nPy ) */
(PID.TID 0000.0001) nThreads =    1 ; /* Total no. threads per process ( = nTx*nTy ) */
(PID.TID 0000.0001) usingMPI =    F ; /* Flag used to control whether MPI is in use */
(PID.TID 0000.0001)                   /*  note: To execute a program with MPI calls */
(PID.TID 0000.0001)                   /*  it must be launched appropriately e.g     */
(PID.TID 0000.0001)                   /*  "mpirun -np 64 ......"                    */
(PID.TID 0000.0001) useCoupler=   F ; /* Flag used to control communications with   */
(PID.TID 0000.0001)                   /*  other model components, through a coupler */
(PID.TID 0000.0001) useNest2W_parent =    F ;/* Control 2-W Nesting comm */
(PID.TID 0000.0001) useNest2W_child  =    F ;/* Control 2-W Nesting comm */
(PID.TID 0000.0001) debugMode =    F ; /* print debug msg. (sequence of S/R calls)  */
(PID.TID 0000.0001) printMapIncludesZeros=    F ; /* print zeros in Std.Output maps */
(PID.TID 0000.0001) maxLengthPrt1D=   65 /* maxLength of 1D array printed to StdOut */
(PID.TID 0000.0001) 
(PID.TID 0000.0001) // ======================================================
(PID.TID 0000.0001) // Mapping of tiles to threads
(PID.TID 0000.0001) // ======================================================
(PID.TID 0000.0001) // -o- Thread   1, tiles (   1:   2,   1:   2)
(PID.TID 0000.0001) 
(PID.TID 0000.0001) // ======================================================
(PID.TID 0000.0001) // Tile <-> Tile connectvity table
(PID.TID 0000.0001) // ======================================================
(PID.TID 0000.0001) // Tile number: 000001 (process no. = 000000)
(PID.TID 0000.0001) //        WEST: Tile = 000002, Process = 000000, Comm = put
(PID.TID 0000.0001) //                bi = 000002, bj = 000001
(PID.TID 0000.0001) //        EAST: Tile = 000002, Process = 000000, Comm = put
(PID.TID 0000.0001) //                bi = 000002, bj = 000001
(PID.TID 0000.0001) //       SOUTH: Tile = 000003, Process = 000000, Comm = put
(PID.TID 0000.0001) //                bi = 000001, bj = 000002
(PID.TID 0000.0001) //       NORTH: Tile = 000003, Process = 000000, Comm = put
(PID.TID 0000.0001) //                bi = 000001, bj = 000002
(PID.TID 0000.0001) // Tile number: 000002 (process no. = 000000)
(PID.TID 0000.0001) //        WEST: Tile = 000001, Process = 000000, Comm = put
(PID.TID 0000.0001) //                bi = 000001, bj = 000001
(PID.TID 0000.0001) //        EAST: Tile = 000001, Process = 000000, Comm = put
(PID.TID 0000.0001) //                bi = 000001, bj = 000001
(PID.TID 0000.0001) //       SOUTH: Tile = 000004, Process = 000000, Comm = put
(PID.TID 0000.0001) //                bi = 000002, bj = 000002
(PID.TID 0000.0001) //       NORTH: Tile = 000004, Process = 000000, Comm = put
(PID.TID 0000.0001) //                bi = 000002, bj = 000002
(PID.TID 0000.0001) // Tile number: 000003 (process no. = 000000)
(PID.TID 0000.0001) //        WEST: Tile = 000004, Process = 000000, Comm = put
(PID.TID 0000.0001) //                bi = 000002, bj = 000002
(PID.TID 0000.0001) //        EAST: Tile = 000004, Process = 000000, Comm = put
(PID.TID 0000.0001) //                bi = 000002, bj = 000002
(PID.TID 0000.0001) //       SOUTH: Tile = 000001, Process = 000000, Comm = put
(PID.TID 0000.0001) //                bi = 000001, bj = 000001
(PID.TID 0000.0001) //       NORTH: Tile = 000001, Process = 000000, Comm = put
(PID.TID 0000.0001) //                bi = 000001, bj = 000001
(PID.TID 0000.0001) // Tile number: 000004 (process no. = 000000)
(PID.TID 0000.0001) //        WEST: Tile = 000003, Process = 000000, Comm = put
(PID.TID 0000.0001) //                bi = 000001, bj = 000002
(PID.TID 0000.0001) //        EAST: Tile = 000003, Process = 000000, Comm = put
(PID.TID 0000.0001) //                bi = 000001, bj = 000002
(PID.TID 0000.0001) //       SOUTH: Tile = 000002, Process = 000000, Comm = put
(PID.TID 0000.0001) //                bi = 000002, bj = 000001
(PID.TID 0000.0001) //       NORTH: Tile = 000002, Process = 000000, Comm = put
(PID.TID 0000.0001) //                bi = 000002, bj = 000001
(PID.TID 0000.0001) 
(PID.TID 0000.0001)  INI_PARMS: opening model parameter file "data"
(PID.TID 0000.0001)  OPEN_COPY_DATA_FILE: opening file data
(PID.TID 0000.0001) // =======================================================
(PID.TID 0000.0001) // Parameter file "data"
(PID.TID 0000.0001) // =======================================================
(PID.TID 0000.0001) ># ====================
(PID.TID 0000.0001) ># | Model parameters |
(PID.TID 0000.0001) ># ====================
(PID.TID 0000.0001) >#
(PID.TID 0000.0001) ># Continuous equation parameters
(PID.TID 0000.0001) >#
(PID.TID 0000.0001) >#   tRef            - Reference vertical potential temperature          (deg C)
(PID.TID 0000.0001) >#   sRef            - Reference vertical salinity                         (PSU)
(PID.TID 0000.0001) >#   viscAh          - Horizontal eddy viscosity coefficient             (m^2/s)
(PID.TID 0000.0001) >#   viscAz          - Vertical eddy viscosity coefficient               (m^2/s)
(PID.TID 0000.0001) >#   diffKhT         - Horizontal temperature diffusivity                (m^2/s)
(PID.TID 0000.0001) >#   diffKzT         - Vertical temperature diffusivity                  (m^2/s)
(PID.TID 0000.0001) >#   diffKhS         - Horizontal salt diffusivity                       (m^2/s)
(PID.TID 0000.0001) >#   diffKzS         - Vertical salt diffusivity                         (m^2/s)
(PID.TID 0000.0001) >#   gravity         - Acceleration due to gravity                       (m/s^2)
(PID.TID 0000.0001) >#   rigidLid        - Set to true to use rigid lid
(PID.TID 0000.0001) >#   implicitFreeSurface - Set to true to use implicit free surface
(PID.TID 0000.0001) >#   eosType         - Flag for linear or polynomial equation of state
(PID.TID 0000.0001) >#   momAdvection    - On/Off flag for momentum self transport
(PID.TID 0000.0001) >#   momViscosity    - On/Off flag for momentum mixing
(PID.TID 0000.0001) >#
(PID.TID 0000.0001) > &PARM01
(PID.TID 0000.0001) > tRef= 24.0 , 23.0 , 22.0 , 21.0 , 20.0 ,
(PID.TID 0000.0001) >       19.0 , 18.0 , 17.0 , 16.0 , 15.0 ,
(PID.TID 0000.0001) >       14.0 , 13.0 , 12.0 , 11.0 , 10.0 ,
(PID.TID 0000.0001) >        9.0 ,  8.0 ,  7.0 ,  6.0,   5.0 ,
(PID.TID 0000.0001) >        4.0 ,  3.0 ,  2.0 ,
(PID.TID 0000.0001) > sRef= 34.65, 34.75, 34.82, 34.87, 34.90,
(PID.TID 0000.0001) >       34.90, 34.86, 34.78, 34.69, 34.60,
(PID.TID 0000.0001) >       34.58, 34.62, 34.68, 34.72, 34.73,
(PID.TID 0000.0001) >       34.74, 34.73, 34.73, 34.72, 34.72,
(PID.TID 0000.0001) >       34.71, 34.70, 34.69,
(PID.TID 0000.0001) > no_slip_sides=.FALSE.,
(PID.TID 0000.0001) > no_slip_bottom=.TRUE.,
(PID.TID 0000.0001) > viscAz=1.93e-5,
(PID.TID 0000.0001) > viscAh=5.E4,
(PID.TID 0000.0001) > diffKhT=0.0,
(PID.TID 0000.0001) > diffKzT=1.46e-5,
(PID.TID 0000.0001) > diffKhS=0.0,
(PID.TID 0000.0001) > diffKzS=1.46e-5,
(PID.TID 0000.0001) > rigidLid=.FALSE.,
(PID.TID 0000.0001) > implicitFreeSurface=.TRUE.,
(PID.TID 0000.0001) > eosType='JMD95Z',
(PID.TID 0000.0001) > saltStepping=.TRUE.,
(PID.TID 0000.0001) > tempStepping=.TRUE.,
(PID.TID 0000.0001) > momStepping=.TRUE.,
(PID.TID 0000.0001) > implicitDiffusion=.TRUE.,
(PID.TID 0000.0001) > implicitViscosity=.TRUE.,
(PID.TID 0000.0001) > allowFreezing=.FALSE.,
(PID.TID 0000.0001) > HeatCapacity_Cp = 3986.D0,
(PID.TID 0000.0001) > gravity         = 9.8156,
(PID.TID 0000.0001) > rhoConst        = 1027.D0,
(PID.TID 0000.0001) > rhoConstFresh   = 999.8,
(PID.TID 0000.0001) > useCDscheme=.TRUE.,
(PID.TID 0000.0001) > useSingleCpuIO=.TRUE.,
(PID.TID 0000.0001) > readBinaryPrec=32,
(PID.TID 0000.0001) > writeBinaryPrec=32,
(PID.TID 0000.0001) > /
(PID.TID 0000.0001) >
(PID.TID 0000.0001) ># Elliptic solver parameters
(PID.TID 0000.0001) >#
(PID.TID 0000.0001) >#   cg2dMaxIters       - Maximum number of 2d solver iterations
(PID.TID 0000.0001) >#   cg2dTargetResidual - Solver target residual
(PID.TID 0000.0001) >#
(PID.TID 0000.0001) > &PARM02
(PID.TID 0000.0001) > cg2dMaxIters=500,
(PID.TID 0000.0001) > cg2dTargetResidual=1.E-12,
(PID.TID 0000.0001) > /
(PID.TID 0000.0001) >
(PID.TID 0000.0001) ># Time stepping parameters
(PID.TID 0000.0001) >#
(PID.TID 0000.0001) >#   startTime         - Integration starting time                (s)
(PID.TID 0000.0001) >#   endTime           - Integration ending time                  (s)
(PID.TID 0000.0001) >#   tauCD             - CD scheme coupling timescale             (s)
(PID.TID 0000.0001) >#   deltaTMom         - Timestep for momemtum equations          (s)
(PID.TID 0000.0001) >#   deltaTtracer      - Tracer timestep                          (s)
(PID.TID 0000.0001) >#   deltaTClock       - Timestep used as model "clock"           (s)
(PID.TID 0000.0001) >#   abEps             - Adams-Bashforth stabilising factor
(PID.TID 0000.0001) >#   pChkPtFreq        - Frequency of permanent check pointing    (s)
(PID.TID 0000.0001) >#   chkPtFreq         - Frequency of rolling check pointing      (s)
(PID.TID 0000.0001) >#   dumpFreq          - Frequency at which model state is stored (s)
(PID.TID 0000.0001) >#   tauThetaClimRelax - Relaxation to climatology time scale     (s)
(PID.TID 0000.0001) >#   tauSaltClimRelax  - Relaxation to climatology time scale     (s)
(PID.TID 0000.0001) >#
(PID.TID 0000.0001) > &PARM03
(PID.TID 0000.0001) > tauCD=172800.,
(PID.TID 0000.0001) > startTime=0.0,
(PID.TID 0000.0001) > endTime=36000.,
(PID.TID 0000.0001) > deltaTmom=3600.0,
(PID.TID 0000.0001) > deltaTtracer=3600.0,
(PID.TID 0000.0001) > deltaTClock =3600.0,
(PID.TID 0000.0001) > cAdjFreq=0.,
(PID.TID 0000.0001) > abEps=0.1,
(PID.TID 0000.0001) > forcing_In_AB = .FALSE.,
(PID.TID 0000.0001) > pChkptFreq=36000.,
(PID.TID 0000.0001) > chkptFreq= 0.,
(PID.TID 0000.0001) > dumpFreq = 0.,
(PID.TID 0000.0001) > taveFreq = 36000.,
(PID.TID 0000.0001) > monitorFreq=1.,
(PID.TID 0000.0001) > /
(PID.TID 0000.0001) >
(PID.TID 0000.0001) ># Gridding parameters
(PID.TID 0000.0001) >#
(PID.TID 0000.0001) >#   usingSphericalPolarGrid - On/Off flag for spherical polar coordinates
(PID.TID 0000.0001) >#   delX                    - Zonal grid spacing         (degrees)
(PID.TID 0000.0001) >#   delY                    - Meridional grid spacing    (degrees)
(PID.TID 0000.0001) >#   delZ                    - Vertical grid spacing      (m)
(PID.TID 0000.0001) >#   ygOrigin                - Southern boundary latitude (degrees)
(PID.TID 0000.0001) >#
(PID.TID 0000.0001) > &PARM04
(PID.TID 0000.0001) > usingSphericalPolarGrid=.TRUE.,
(PID.TID 0000.0001) > delX=20*2.E0,
(PID.TID 0000.0001) > delY=16*2.E0,
(PID.TID 0000.0001) > delZ= 10., 10., 15., 20., 20., 25., 35., 50., 75.,
(PID.TID 0000.0001) >       100., 150., 200., 275., 350., 415., 450.,
(PID.TID 0000.0001) >       500., 500., 500., 500., 500., 500., 500.,
(PID.TID 0000.0001) > ygOrigin=46.,
(PID.TID 0000.0001) > xgOrigin=280.,
(PID.TID 0000.0001) > rSphere = 6371.D3,
(PID.TID 0000.0001) > /
(PID.TID 0000.0001) >
(PID.TID 0000.0001) ># Input datasets
(PID.TID 0000.0001) >#
(PID.TID 0000.0001) >#   bathyFile       - File containing bathymetry
(PID.TID 0000.0001) >#   hydrogThetaFile - File containing initial potential temperature data
(PID.TID 0000.0001) >#   hydrogSaltFile  - File containing initial salinity data
(PID.TID 0000.0001) >#   zonalWindFile   - File containing zonal wind data
(PID.TID 0000.0001) >#   meridWindFile   - File containing meridional wind data
(PID.TID 0000.0001) >#   thetaClimFile   - File containing theta climatology used for relaxation
(PID.TID 0000.0001) >#   saltClimFile    - File containing salt climatology used for relaxation
(PID.TID 0000.0001) >#
(PID.TID 0000.0001) > &PARM05
(PID.TID 0000.0001) > bathyFile       = 'bathy_closeN.bin',
(PID.TID 0000.0001) > hydrogThetaFile = 'T.0000008760',
(PID.TID 0000.0001) > hydrogSaltFile  = 'S.0000008760',
(PID.TID 0000.0001) > uVelInitFile    = 'U.0000008760',
(PID.TID 0000.0001) > vVelInitFile    = 'V.0000008760',
(PID.TID 0000.0001) > /
(PID.TID 0000.0001) 
(PID.TID 0000.0001)  INI_PARMS ; starts to read PARM01
(PID.TID 0000.0001)  INI_PARMS ; read PARM01 : OK
(PID.TID 0000.0001)  INI_PARMS ; starts to read PARM02
(PID.TID 0000.0001)  INI_PARMS ; read PARM02 : OK
(PID.TID 0000.0001)  INI_PARMS ; starts to read PARM03
(PID.TID 0000.0001)  INI_PARMS ; read PARM03 : OK
(PID.TID 0000.0001)  INI_PARMS ; starts to read PARM04
(PID.TID 0000.0001)  INI_PARMS ; read PARM04 : OK
(PID.TID 0000.0001)  INI_PARMS ; starts to read PARM05
(PID.TID 0000.0001)  INI_PARMS ; read PARM05 : OK
(PID.TID 0000.0001)  INI_PARMS: finished reading file "data"
(PID.TID 0000.0001)  PACKAGES_BOOT: opening data.pkg
(PID.TID 0000.0001)  OPEN_COPY_DATA_FILE: opening file data.pkg
(PID.TID 0000.0001) // =======================================================
(PID.TID 0000.0001) // Parameter file "data.pkg"
(PID.TID 0000.0001) // =======================================================
(PID.TID 0000.0001) ># Packages
(PID.TID 0000.0001) > &PACKAGES
(PID.TID 0000.0001) >  useGMRedi = .TRUE.,
(PID.TID 0000.0001) >  useKPP    = .TRUE.,
(PID.TID 0000.0001) >  useEXF    = .TRUE.,
(PID.TID 0000.0001) >  useCAL    = .TRUE.,
(PID.TID 0000.0001) >  useSEAICE = .TRUE.,
(PID.TID 0000.0001) >  useDiagnostics = .TRUE.,
(PID.TID 0000.0001) ># useMNC    = .TRUE.,
(PID.TID 0000.0001) > /
(PID.TID 0000.0001) 
(PID.TID 0000.0001)  PACKAGES_BOOT: finished reading data.pkg
(PID.TID 0000.0001)  PACKAGES_BOOT: On/Off package Summary
 --------  pkgs with a standard "usePKG" On/Off switch in "data.pkg":  --------
 pkg/kpp                  compiled   and   used ( useKPP                   = T )
 pkg/gmredi               compiled   and   used ( useGMRedi                = T )
 pkg/cal                  compiled   and   used ( useCAL                   = T )
 pkg/exf                  compiled   and   used ( useEXF                   = T )
 pkg/seaice               compiled   and   used ( useSEAICE                = T )
 pkg/salt_plume           compiled but not used ( useSALT_PLUME            = F )
 pkg/diagnostics          compiled   and   used ( useDiagnostics           = T )
 pkg/mnc                  compiled but not used ( useMNC                   = F )
 -------- pkgs without standard "usePKG" On/Off switch in "data.pkg":  --------
 pkg/generic_advdiff      compiled   and   used ( useGAD                   = T )
 pkg/mom_common           compiled   and   used ( momStepping              = T )
 pkg/mom_vecinv           compiled but not used ( +vectorInvariantMomentum = F )
 pkg/mom_fluxform         compiled   and   used ( & not vectorInvariantMom = T )
 pkg/cd_code              compiled   and   used ( useCDscheme              = T )
 pkg/monitor              compiled   and   used ( monitorFreq > 0.         = T )
 pkg/timeave              compiled   and   used ( taveFreq > 0.            = T )
 pkg/debug                compiled but not used ( debugMode                = F )
 pkg/rw                   compiled   and   used
 pkg/mdsio                compiled   and   used
(PID.TID 0000.0001)  PACKAGES_BOOT: End of package Summary
(PID.TID 0000.0001) 
(PID.TID 0000.0001) CAL_READPARMS: opening data.cal
(PID.TID 0000.0001)  OPEN_COPY_DATA_FILE: opening file data.cal
(PID.TID 0000.0001) // =======================================================
(PID.TID 0000.0001) // Parameter file "data.cal"
(PID.TID 0000.0001) // =======================================================
(PID.TID 0000.0001) >#
(PID.TID 0000.0001) ># *******************
(PID.TID 0000.0001) ># Calendar Parameters
(PID.TID 0000.0001) ># *******************
(PID.TID 0000.0001) > &CAL_NML
(PID.TID 0000.0001) > TheCalendar='gregorian',
(PID.TID 0000.0001) > startDate_1=19790101,
(PID.TID 0000.0001) > startDate_2=000000,
(PID.TID 0000.0001) > /
(PID.TID 0000.0001) 
(PID.TID 0000.0001) CAL_READPARMS: finished reading data.cal
(PID.TID 0000.0001) EXF_READPARMS: opening data.exf
(PID.TID 0000.0001)  OPEN_COPY_DATA_FILE: opening file data.exf
(PID.TID 0000.0001) // =======================================================
(PID.TID 0000.0001) // Parameter file "data.exf"
(PID.TID 0000.0001) // =======================================================
(PID.TID 0000.0001) >#
(PID.TID 0000.0001) ># *********************
(PID.TID 0000.0001) ># External Forcing Data
(PID.TID 0000.0001) ># *********************
(PID.TID 0000.0001) > &EXF_NML_01
(PID.TID 0000.0001) >#
(PID.TID 0000.0001) > useExfCheckRange  = .TRUE.,
(PID.TID 0000.0001) > repeatPeriod      = 31622400.0,
(PID.TID 0000.0001) > exf_iprec         = 32,
(PID.TID 0000.0001) >#
(PID.TID 0000.0001) > /
(PID.TID 0000.0001) >
(PID.TID 0000.0001) ># *********************
(PID.TID 0000.0001) > &EXF_NML_02
(PID.TID 0000.0001) >#
(PID.TID 0000.0001) > hfluxstartdate1   = 19781216,
(PID.TID 0000.0001) > hfluxstartdate2   = 180000,
(PID.TID 0000.0001) > hfluxperiod       = 2635200.0,
(PID.TID 0000.0001) >#
(PID.TID 0000.0001) > sfluxstartdate1   = 19781216,
(PID.TID 0000.0001) > sfluxstartdate2   = 180000,
(PID.TID 0000.0001) > sfluxperiod       = 2635200.0,
(PID.TID 0000.0001) >#
(PID.TID 0000.0001) > ustressstartdate1 = 19781216,
(PID.TID 0000.0001) > ustressstartdate2 = 180000,
(PID.TID 0000.0001) > ustressperiod     = 2635200.0,
(PID.TID 0000.0001) >#
(PID.TID 0000.0001) > vstressstartdate1 = 19781216,
(PID.TID 0000.0001) > vstressstartdate2 = 180000,
(PID.TID 0000.0001) > vstressperiod     = 2635200.0,
(PID.TID 0000.0001) >#
(PID.TID 0000.0001) > atempstartdate1   = 19781216,
(PID.TID 0000.0001) > atempstartdate2   = 180000,
(PID.TID 0000.0001) > atempperiod       = 2635200.0,
(PID.TID 0000.0001) >#
(PID.TID 0000.0001) > aqhstartdate1     = 19781216,
(PID.TID 0000.0001) > aqhstartdate2     = 180000,
(PID.TID 0000.0001) > aqhperiod         = 2635200.0,
(PID.TID 0000.0001) >#
(PID.TID 0000.0001) >#evapstartdate1    = 19781216,
(PID.TID 0000.0001) >#evapstartdate2    = 180000,
(PID.TID 0000.0001) >#evapperiod        = 2635200.0,
(PID.TID 0000.0001) >#
(PID.TID 0000.0001) > precipstartdate1  = 19781216,
(PID.TID 0000.0001) > precipstartdate2  = 180000,
(PID.TID 0000.0001) > precipperiod      = 2635200.0,
(PID.TID 0000.0001) >#
(PID.TID 0000.0001) > uwindstartdate1   = 19781216,
(PID.TID 0000.0001) > uwindstartdate2   = 180000,
(PID.TID 0000.0001) > uwindperiod       = 2635200.0,
(PID.TID 0000.0001) >#
(PID.TID 0000.0001) > vwindstartdate1   = 19781216,
(PID.TID 0000.0001) > vwindstartdate2   = 180000,
(PID.TID 0000.0001) > vwindperiod       = 2635200.0,
(PID.TID 0000.0001) >#
(PID.TID 0000.0001) > swfluxstartdate1  = 19781216,
(PID.TID 0000.0001) > swfluxstartdate2  = 180000,
(PID.TID 0000.0001) > swfluxperiod      = 2635200.0,
(PID.TID 0000.0001) >#
(PID.TID 0000.0001) > lwfluxstartdate1  = 19781216,
(PID.TID 0000.0001) > lwfluxstartdate2  = 180000,
(PID.TID 0000.0001) > lwfluxperiod      = 2635200.0,
(PID.TID 0000.0001) >#
(PID.TID 0000.0001) > swdownstartdate1  = 19781216,
(PID.TID 0000.0001) > swdownstartdate2  = 180000,
(PID.TID 0000.0001) > swdownperiod      = 2635200.0,
(PID.TID 0000.0001) >#
(PID.TID 0000.0001) > lwdownstartdate1  = 19781216,
(PID.TID 0000.0001) > lwdownstartdate2  = 180000,
(PID.TID 0000.0001) > lwdownperiod      = 2635200.0,
(PID.TID 0000.0001) >#
(PID.TID 0000.0001) > climsststartdate1  = 19781216,
(PID.TID 0000.0001) > climsststartdate2  = 180000,
(PID.TID 0000.0001) > climsstperiod      = 2635200.0,
(PID.TID 0000.0001) > climsstTauRelax    = 0.0,
(PID.TID 0000.0001) >#
(PID.TID 0000.0001) > climsssstartdate1  = 19781216,
(PID.TID 0000.0001) > climsssstartdate2  = 180000,
(PID.TID 0000.0001) > climsssperiod      = 2635200.0,
(PID.TID 0000.0001) > climsssTauRelax    = 4142330.0,
(PID.TID 0000.0001) >#
(PID.TID 0000.0001) > hfluxfile         = ' ',
(PID.TID 0000.0001) > sfluxfile         = ' ',
(PID.TID 0000.0001) > ustressfile       = ' ',
(PID.TID 0000.0001) > vstressfile       = ' ',
(PID.TID 0000.0001) > atempfile         = 'tair.labsea1979',
(PID.TID 0000.0001) > aqhfile           = 'qa.labsea1979',
(PID.TID 0000.0001) > uwindfile         = 'u10m.labsea1979',
(PID.TID 0000.0001) > vwindfile         = 'v10m.labsea1979',
(PID.TID 0000.0001) >#evapfile          = 'evap.labsea1979',
(PID.TID 0000.0001) > precipfile        = 'prate.labsea1979',
(PID.TID 0000.0001) > lwfluxfile        = ' ',
(PID.TID 0000.0001) > swfluxfile        = ' ',
(PID.TID 0000.0001) > lwdownfile        = 'flo.labsea1979',
(PID.TID 0000.0001) > swdownfile        = 'fsh.labsea1979',
(PID.TID 0000.0001) > runoffFile        = ' '
(PID.TID 0000.0001) > climsstfile       = ' ',
(PID.TID 0000.0001) > climsssfile       = 'SSS_monthly.labsea1979',
(PID.TID 0000.0001) >#
(PID.TID 0000.0001) > /
(PID.TID 0000.0001) >
(PID.TID 0000.0001) ># *********************
(PID.TID 0000.0001) > &EXF_NML_03
(PID.TID 0000.0001) > /
(PID.TID 0000.0001) >
(PID.TID 0000.0001) ># *********************
(PID.TID 0000.0001) > &EXF_NML_04
(PID.TID 0000.0001) > /
(PID.TID 0000.0001) 
(PID.TID 0000.0001) EXF_READPARMS: reading EXF_NML_01
(PID.TID 0000.0001) EXF_READPARMS: reading EXF_NML_02
(PID.TID 0000.0001) EXF_READPARMS: reading EXF_NML_03
(PID.TID 0000.0001) EXF_READPARMS: finished reading data.exf
(PID.TID 0000.0001)  KPP_READPARMS: opening data.kpp
(PID.TID 0000.0001)  OPEN_COPY_DATA_FILE: opening file data.kpp
(PID.TID 0000.0001) // =======================================================
(PID.TID 0000.0001) // Parameter file "data.kpp"
(PID.TID 0000.0001) // =======================================================
(PID.TID 0000.0001) ># KPP parameters
(PID.TID 0000.0001) > &KPP_PARM01
(PID.TID 0000.0001) > KPPmixingMaps   = .FALSE.,
(PID.TID 0000.0001) > KPPwriteState   = .TRUE.,
(PID.TID 0000.0001) > KPP_ghatUseTotalDiffus=.TRUE.,
(PID.TID 0000.0001) > /
(PID.TID 0000.0001) 
(PID.TID 0000.0001)  KPP_READPARMS ; starts to read KPP_PARM01
(PID.TID 0000.0001)  KPP_READPARMS ; read KPP_PARM01 : OK
(PID.TID 0000.0001)  KPP_READPARMS: finished reading data.kpp
(PID.TID 0000.0001)  GM_READPARMS: opening data.gmredi
(PID.TID 0000.0001)  OPEN_COPY_DATA_FILE: opening file data.gmredi
(PID.TID 0000.0001) // =======================================================
(PID.TID 0000.0001) // Parameter file "data.gmredi"
(PID.TID 0000.0001) // =======================================================
(PID.TID 0000.0001) ># GMREDI parameters
(PID.TID 0000.0001) > &GM_PARM01
(PID.TID 0000.0001) >  GM_background_K = 571.0
(PID.TID 0000.0001) >  GM_taper_scheme = 'ldd97'
(PID.TID 0000.0001) > /
(PID.TID 0000.0001) 
(PID.TID 0000.0001)  GM_READPARMS: finished reading data.gmredi
(PID.TID 0000.0001) 
(PID.TID 0000.0001)  SEAICE_READPARMS: opening data.seaice
(PID.TID 0000.0001)  OPEN_COPY_DATA_FILE: opening file data.seaice
(PID.TID 0000.0001) // =======================================================
(PID.TID 0000.0001) // Parameter file "data.seaice"
(PID.TID 0000.0001) // =======================================================
(PID.TID 0000.0001) ># SEAICE parameters
(PID.TID 0000.0001) > &SEAICE_PARM01
(PID.TID 0000.0001) >#- seaice dynamics params:
(PID.TID 0000.0001) >  SEAICE_deltaTdyn   = 3600.,
(PID.TID 0000.0001) ># turn on aEVP with some sensible parameters
(PID.TID 0000.0001) >  SEAICEaEVPcoeff =0.5,
(PID.TID 0000.0001) >  SEAICEnEVPstarSteps =500,
(PID.TID 0000.0001) >  SEAICEuseEVPstar = .TRUE.,
(PID.TID 0000.0001) >  SEAICEuseEVPrev = .TRUE..
(PID.TID 0000.0001) ># end of aEVP parameters
(PID.TID 0000.0001) >  useHB87stressCoupling = .TRUE.,
(PID.TID 0000.0001) >  SEAICE_no_slip     = .TRUE.,
(PID.TID 0000.0001) ># Depending on vertical resolution this angle should have a value > 0
(PID.TID 0000.0001) >#  (e.g., 25deg for drF(1)=10m)
(PID.TID 0000.0001) ># SEAICE_waterTurnAngle = 0.0,
(PID.TID 0000.0001) >#- seaice state & transport params:
(PID.TID 0000.0001) >  SEAICE_salt0       = 4.0,
(PID.TID 0000.0001) >#- old DIFF1 default:
(PID.TID 0000.0001) >  DIFF1 = 4.E-3,
(PID.TID 0000.0001) >#- requires old default advection scheme
(PID.TID 0000.0001) >  SEAICEadvScheme    = 2,
(PID.TID 0000.0001) >#- seaice thermodyn params:
(PID.TID 0000.0001) >  SEAICE_deltaTtherm = 3600.,
(PID.TID 0000.0001) >  SEAICE_multDim     = 1,
(PID.TID 0000.0001) ># strong ice-ocean turb-flux coeff:
(PID.TID 0000.0001) >  SEAICE_mcPheePiston= 0.001,
(PID.TID 0000.0001) >  SEAICE_frazilFrac  = 0.5,
(PID.TID 0000.0001) >#- seaice I/O params:
(PID.TID 0000.0001) >  AreaFile           = 'AREA.0000008760',
(PID.TID 0000.0001) >  HsnowFile          = 'HSNOW.0000008760',
(PID.TID 0000.0001) >  HsaltFile          = 'HSALT.0000008760',
(PID.TID 0000.0001) >  HeffFile           = 'HEFF.0000008760',
(PID.TID 0000.0001) >  SEAICEwriteState   = .TRUE.,
(PID.TID 0000.0001) ># old defaults
(PID.TID 0000.0001) > SEAICEscaleSurfStress = .FALSE.,
(PID.TID 0000.0001) > SEAICEaddSnowMass     = .FALSE.,
(PID.TID 0000.0001) > SEAICE_waterDrag  = 0.005355404089581304,
(PID.TID 0000.0001) > /
(PID.TID 0000.0001) >
(PID.TID 0000.0001) > &SEAICE_PARM03
(PID.TID 0000.0001) >  SItrNumInUse      = 0,
(PID.TID 0000.0001) > /
(PID.TID 0000.0001) 
(PID.TID 0000.0001)  SEAICE_READPARMS: finished reading data.seaice
(PID.TID 0000.0001)  DIAGNOSTICS_READPARMS: opening data.diagnostics
(PID.TID 0000.0001)  OPEN_COPY_DATA_FILE: opening file data.diagnostics
(PID.TID 0000.0001) // =======================================================
(PID.TID 0000.0001) // Parameter file "data.diagnostics"
(PID.TID 0000.0001) // =======================================================
(PID.TID 0000.0001) ># Diagnostic Package Choices
(PID.TID 0000.0001) >#--------------------
(PID.TID 0000.0001) >#  dumpAtLast (logical): always write output at the end of simulation (default=F)
(PID.TID 0000.0001) >#  diag_mnc   (logical): write to NetCDF files (default=useMNC)
(PID.TID 0000.0001) >#--for each output-stream:
(PID.TID 0000.0001) >#  fileName(n) : prefix of the output file name (max 80c long) for outp.stream n
(PID.TID 0000.0001) >#  frequency(n):< 0 : write snap-shot output every |frequency| seconds
(PID.TID 0000.0001) >#               > 0 : write time-average output every frequency seconds
(PID.TID 0000.0001) >#  timePhase(n)     : write at time = timePhase + multiple of |frequency|
(PID.TID 0000.0001) >#    averagingFreq  : frequency (in s) for periodic averaging interval
(PID.TID 0000.0001) >#    averagingPhase : phase     (in s) for periodic averaging interval
(PID.TID 0000.0001) >#    repeatCycle    : number of averaging intervals in 1 cycle
(PID.TID 0000.0001) >#  levels(:,n) : list of levels to write to file (Notes: declared as REAL)
(PID.TID 0000.0001) >#                when this entry is missing, select all common levels of this list
(PID.TID 0000.0001) >#  fields(:,n) : list of selected diagnostics fields (8.c) in outp.stream n
(PID.TID 0000.0001) >#                (see "available_diagnostics.log" file for the full list of diags)
(PID.TID 0000.0001) >#  missing_value(n) : missing value for real-type fields in output file "n"
(PID.TID 0000.0001) >#  fileFlags(n)     : specific code (8c string) for output file "n"
(PID.TID 0000.0001) >#--------------------
(PID.TID 0000.0001) ># This example dumps EXF diagnostics as snapshot after 10 time-steps
(PID.TID 0000.0001) ># Note: EXF air-sea fluxes over Sea-Ice are wrong
(PID.TID 0000.0001) > &DIAGNOSTICS_LIST
(PID.TID 0000.0001) >   dumpAtLast  = .TRUE.,
(PID.TID 0000.0001) >#--
(PID.TID 0000.0001) >  fields(1:11,1) = 'EXFtaux ','EXFtauy ','EXFqnet ','EXFempmr',
(PID.TID 0000.0001) >                   'EXFhl   ','EXFhs   ','EXFswnet','EXFlwnet',
(PID.TID 0000.0001) >                   'EXFuwind','EXFvwind','EXFatemp',
(PID.TID 0000.0001) >   fileName(1) = 'diagsEXF',
(PID.TID 0000.0001) >  frequency(1) = -36000.,
(PID.TID 0000.0001) >
(PID.TID 0000.0001) >  fields(1:5,2)  = 'SIarea  ','SIheff  ','SIhsnow ',
(PID.TID 0000.0001) >                   'SIuice  ','SIvice  ',
(PID.TID 0000.0001) >   fileName(2) = 'diagsSI',
(PID.TID 0000.0001) >  frequency(2) =  36000.,
(PID.TID 0000.0001) >
(PID.TID 0000.0001) >  fields(1:2,3)  = 'MXLDEPTH','KPPhbl  ',
(PID.TID 0000.0001) >   fileName(3) = 'diagsKPP',
(PID.TID 0000.0001) >  frequency(3) =  36000.,
(PID.TID 0000.0001) >  fields(1,4)  = 'KPPghatK',
(PID.TID 0000.0001) >   fileName(4) = 'KPPghatK',
(PID.TID 0000.0001) >  frequency(4) =  36000.,
(PID.TID 0000.0001) > /
(PID.TID 0000.0001) >
(PID.TID 0000.0001) >#--------------------
(PID.TID 0000.0001) ># Parameter for Diagnostics of per level statistics:
(PID.TID 0000.0001) >#--------------------
(PID.TID 0000.0001) >#  diagSt_mnc (logical): write stat-diags to NetCDF files (default=diag_mnc)
(PID.TID 0000.0001) >#  diagSt_regMaskFile : file containing the region-mask to read-in
(PID.TID 0000.0001) >#  nSetRegMskFile   : number of region-mask sets within the region-mask file
(PID.TID 0000.0001) >#  set_regMask(i)   : region-mask set-index that identifies the region "i"
(PID.TID 0000.0001) >#  val_regMask(i)   : region "i" identifier value in the region mask
(PID.TID 0000.0001) >#--for each output-stream:
(PID.TID 0000.0001) >#  stat_fName(n) : prefix of the output file name (max 80c long) for outp.stream n
(PID.TID 0000.0001) >#  stat_freq(n):< 0 : write snap-shot output every |stat_freq| seconds
(PID.TID 0000.0001) >#               > 0 : write time-average output every stat_freq seconds
(PID.TID 0000.0001) >#  stat_phase(n)    : write at time = stat_phase + multiple of |stat_freq|
(PID.TID 0000.0001) >#  stat_region(:,n) : list of "regions" (default: 1 region only=global)
(PID.TID 0000.0001) >#  stat_fields(:,n) : list of selected diagnostics fields (8.c) in outp.stream n
(PID.TID 0000.0001) >#                (see "available_diagnostics.log" file for the full list of diags)
(PID.TID 0000.0001) >#--------------------
(PID.TID 0000.0001) > &DIAG_STATIS_PARMS
(PID.TID 0000.0001) >#stat_fields(1:5,1)  = 'ETAN    ','UVEL    ','VVEL    ','WVEL    ', 'THETA   ',
(PID.TID 0000.0001) ># stat_fName(1) = 'dynStDiag',
(PID.TID 0000.0001) >#  stat_freq(1) = -36000.,
(PID.TID 0000.0001) ># stat_phase(1) = 0.,
(PID.TID 0000.0001) > /
(PID.TID 0000.0001) >
(PID.TID 0000.0001) 
(PID.TID 0000.0001) S/R DIAGNOSTICS_READPARMS, read namelist "diagnostics_list": start
(PID.TID 0000.0001) S/R DIAGNOSTICS_READPARMS, read namelist "diagnostics_list": OK
(PID.TID 0000.0001) S/R DIAGNOSTICS_READPARMS, read namelist "DIAG_STATIS_PARMS": start
(PID.TID 0000.0001) S/R DIAGNOSTICS_READPARMS, read namelist "DIAG_STATIS_PARMS": OK
(PID.TID 0000.0001)  DIAGNOSTICS_READPARMS: global parameter summary:
(PID.TID 0000.0001)  dumpAtLast = /* always write time-ave diags at the end */
(PID.TID 0000.0001)                   T
(PID.TID 0000.0001)     ;
(PID.TID 0000.0001)  diag_mnc =   /* write NetCDF output files */
(PID.TID 0000.0001)                   F
(PID.TID 0000.0001)     ;
(PID.TID 0000.0001)  useMissingValue = /* put MissingValue where mask = 0 */
(PID.TID 0000.0001)                   F
(PID.TID 0000.0001)     ;
(PID.TID 0000.0001)  diagCG_maxIters = /* max number of iters in diag_cg2d */
(PID.TID 0000.0001)                     500
(PID.TID 0000.0001)     ;
(PID.TID 0000.0001)  diagCG_resTarget = /* residual target for diag_cg2d */
(PID.TID 0000.0001)                 1.000000000000000E-12
(PID.TID 0000.0001)     ;
(PID.TID 0000.0001)  diagCG_pcOffDFac = /* preconditioner off-diagonal factor */
(PID.TID 0000.0001)                 9.611687812379854E-01
(PID.TID 0000.0001)     ;
(PID.TID 0000.0001) -----------------------------------------------------
(PID.TID 0000.0001)  DIAGNOSTICS_READPARMS: active diagnostics summary:
(PID.TID 0000.0001) -----------------------------------------------------
(PID.TID 0000.0001) Creating Output Stream: diagsEXF
(PID.TID 0000.0001) Output Frequency:     -36000.000000 ; Phase:       18000.000000
(PID.TID 0000.0001)  Averaging Freq.:          0.000000 , Phase:           0.000000 , Cycle:   1
(PID.TID 0000.0001)  missing value: -9.990000000000E+02
(PID.TID 0000.0001)  Levels:    will be set later
(PID.TID 0000.0001)  Fields:    EXFtaux  EXFtauy  EXFqnet  EXFempmr EXFhl    EXFhs    EXFswnet EXFlwnet EXFuwind EXFvwind
(PID.TID 0000.0001)  Fields:    EXFatemp
(PID.TID 0000.0001) Creating Output Stream: diagsSI
(PID.TID 0000.0001) Output Frequency:      36000.000000 ; Phase:           0.000000
(PID.TID 0000.0001)  Averaging Freq.:      36000.000000 , Phase:           0.000000 , Cycle:   1
(PID.TID 0000.0001)  missing value: -9.990000000000E+02
(PID.TID 0000.0001)  Levels:    will be set later
(PID.TID 0000.0001)  Fields:    SIarea   SIheff   SIhsnow  SIuice   SIvice
(PID.TID 0000.0001) Creating Output Stream: diagsKPP
(PID.TID 0000.0001) Output Frequency:      36000.000000 ; Phase:           0.000000
(PID.TID 0000.0001)  Averaging Freq.:      36000.000000 , Phase:           0.000000 , Cycle:   1
(PID.TID 0000.0001)  missing value: -9.990000000000E+02
(PID.TID 0000.0001)  Levels:    will be set later
(PID.TID 0000.0001)  Fields:    MXLDEPTH KPPhbl
(PID.TID 0000.0001) Creating Output Stream: KPPghatK
(PID.TID 0000.0001) Output Frequency:      36000.000000 ; Phase:           0.000000
(PID.TID 0000.0001)  Averaging Freq.:      36000.000000 , Phase:           0.000000 , Cycle:   1
(PID.TID 0000.0001)  missing value: -9.990000000000E+02
(PID.TID 0000.0001)  Levels:    will be set later
(PID.TID 0000.0001)  Fields:    KPPghatK
(PID.TID 0000.0001) -----------------------------------------------------
(PID.TID 0000.0001)  DIAGNOSTICS_READPARMS: statistics diags. summary:
(PID.TID 0000.0001) -----------------------------------------------------
(PID.TID 0000.0001) 
(PID.TID 0000.0001) SET_PARMS: done
(PID.TID 0000.0001) Enter INI_VERTICAL_GRID: setInterFDr=    T ; setCenterDr=    F
(PID.TID 0000.0001) %MON XC_max                       =   3.1900000000000E+02
(PID.TID 0000.0001) %MON XC_min                       =   2.8100000000000E+02
(PID.TID 0000.0001) %MON XC_mean                      =   3.0000000000000E+02
(PID.TID 0000.0001) %MON XC_sd                        =   1.1532562594671E+01
(PID.TID 0000.0001) %MON XG_max                       =   3.1800000000000E+02
(PID.TID 0000.0001) %MON XG_min                       =   2.8000000000000E+02
(PID.TID 0000.0001) %MON XG_mean                      =   2.9900000000000E+02
(PID.TID 0000.0001) %MON XG_sd                        =   1.1532562594671E+01
(PID.TID 0000.0001) %MON DXC_max                      =   1.5166951523772E+05
(PID.TID 0000.0001) %MON DXC_min                      =   5.0026831972764E+04
(PID.TID 0000.0001) %MON DXC_mean                     =   1.0305926321463E+05
(PID.TID 0000.0001) %MON DXC_sd                       =   3.1375805318756E+04
(PID.TID 0000.0001) %MON DXF_max                      =   1.5166951523772E+05
(PID.TID 0000.0001) %MON DXF_min                      =   5.0026831972764E+04
(PID.TID 0000.0001) %MON DXF_mean                     =   1.0305926321463E+05
(PID.TID 0000.0001) %MON DXF_sd                       =   3.1375805318756E+04
(PID.TID 0000.0001) %MON DXG_max                      =   1.5448497309243E+05
(PID.TID 0000.0001) %MON DXG_min                      =   5.3800974869835E+04
(PID.TID 0000.0001) %MON DXG_mean                     =   1.0642630187324E+05
(PID.TID 0000.0001) %MON DXG_sd                       =   3.1081829200899E+04
(PID.TID 0000.0001) %MON DXV_max                      =   1.5448497309243E+05
(PID.TID 0000.0001) %MON DXV_min                      =   5.3800974869835E+04
(PID.TID 0000.0001) %MON DXV_mean                     =   1.0642630187324E+05
(PID.TID 0000.0001) %MON DXV_sd                       =   3.1081829200899E+04
(PID.TID 0000.0001) %MON YC_max                       =   7.7000000000000E+01
(PID.TID 0000.0001) %MON YC_min                       =   4.7000000000000E+01
(PID.TID 0000.0001) %MON YC_mean                      =   6.2000000000000E+01
(PID.TID 0000.0001) %MON YC_sd                        =   9.2195444572929E+00
(PID.TID 0000.0001) %MON YG_max                       =   7.6000000000000E+01
(PID.TID 0000.0001) %MON YG_min                       =   4.6000000000000E+01
(PID.TID 0000.0001) %MON YG_mean                      =   6.1000000000000E+01
(PID.TID 0000.0001) %MON YG_sd                        =   9.2195444572929E+00
(PID.TID 0000.0001) %MON DYC_max                      =   2.2238985328912E+05
(PID.TID 0000.0001) %MON DYC_min                      =   2.2238985328912E+05
(PID.TID 0000.0001) %MON DYC_mean                     =   2.2238985328912E+05
(PID.TID 0000.0001) %MON DYC_sd                       =   1.4551915228367E-10
(PID.TID 0000.0001) %MON DYF_max                      =   2.2238985328912E+05
(PID.TID 0000.0001) %MON DYF_min                      =   2.2238985328912E+05
(PID.TID 0000.0001) %MON DYF_mean                     =   2.2238985328912E+05
(PID.TID 0000.0001) %MON DYF_sd                       =   1.4551915228367E-10
(PID.TID 0000.0001) %MON DYG_max                      =   2.2238985328912E+05
(PID.TID 0000.0001) %MON DYG_min                      =   2.2238985328912E+05
(PID.TID 0000.0001) %MON DYG_mean                     =   2.2238985328912E+05
(PID.TID 0000.0001) %MON DYG_sd                       =   1.4551915228367E-10
(PID.TID 0000.0001) %MON DYU_max                      =   2.2238985328912E+05
(PID.TID 0000.0001) %MON DYU_min                      =   2.2238985328912E+05
(PID.TID 0000.0001) %MON DYU_mean                     =   2.2238985328912E+05
(PID.TID 0000.0001) %MON DYU_sd                       =   1.4551915228367E-10
(PID.TID 0000.0001) %MON RA_max                       =   3.3728048822756E+10
(PID.TID 0000.0001) %MON RA_min                       =   1.1124894996734E+10
(PID.TID 0000.0001) %MON RA_mean                      =   2.2918170839356E+10
(PID.TID 0000.0001) %MON RA_sd                        =   6.9773064942263E+09
(PID.TID 0000.0001) %MON RAW_max                      =   3.3728048822756E+10
(PID.TID 0000.0001) %MON RAW_min                      =   1.1124894996734E+10
(PID.TID 0000.0001) %MON RAW_mean                     =   2.2918170839356E+10
(PID.TID 0000.0001) %MON RAW_sd                       =   6.9773064942263E+09
(PID.TID 0000.0001) %MON RAS_max                      =   3.4354146294179E+10
(PID.TID 0000.0001) %MON RAS_min                      =   1.1964183470077E+10
(PID.TID 0000.0001) %MON RAS_mean                     =   2.3666928057229E+10
(PID.TID 0000.0001) %MON RAS_sd                       =   6.9119325076329E+09
(PID.TID 0000.0001) %MON RAZ_max                      =   3.4354146294179E+10
(PID.TID 0000.0001) %MON RAZ_min                      =   1.1964183470077E+10
(PID.TID 0000.0001) %MON RAZ_mean                     =   2.3666928057229E+10
(PID.TID 0000.0001) %MON RAZ_sd                       =   6.9119325076329E+09
(PID.TID 0000.0001) %MON AngleCS_max                  =   1.0000000000000E+00
(PID.TID 0000.0001) %MON AngleCS_min                  =   1.0000000000000E+00
(PID.TID 0000.0001) %MON AngleCS_mean                 =   1.0000000000000E+00
(PID.TID 0000.0001) %MON AngleCS_sd                   =   0.0000000000000E+00
(PID.TID 0000.0001) %MON AngleSN_max                  =   0.0000000000000E+00
(PID.TID 0000.0001) %MON AngleSN_min                  =   0.0000000000000E+00
(PID.TID 0000.0001) %MON AngleSN_mean                 =   0.0000000000000E+00
(PID.TID 0000.0001) %MON AngleSN_sd                   =   0.0000000000000E+00
(PID.TID 0000.0001)  MDS_READ_FIELD: opening global file: bathy_closeN.bin
(PID.TID 0000.0001) // =======================================================
(PID.TID 0000.0001) // Field Model R_low (ini_masks_etc)
(PID.TID 0000.0001) // CMIN =         -4.200000000000000E+03
(PID.TID 0000.0001) // CMAX =         -5.500000000000000E+01
(PID.TID 0000.0001) // CINT =          1.535185185185185E+02
(PID.TID 0000.0001) // SYMBOLS (CMIN->CMAX): -abcdefghijklmnopqrstuvwxyz+
(PID.TID 0000.0001) //                  0.0: .
(PID.TID 0000.0001) // RANGE I (Lo:Hi:Step):(    -3:    24:     1)
(PID.TID 0000.0001) // RANGE J (Lo:Hi:Step):(    20:    -3:    -1)
(PID.TID 0000.0001) // RANGE K (Lo:Hi:Step):(   1:   1:   1)
(PID.TID 0000.0001) // =======================================================
(PID.TID 0000.0001) K =   1
(PID.TID 0000.0001) //                I=6       I=8       I=18
(PID.TID 0000.0001) // |--J--|321012345|789012347|901234567|901234
(PID.TID 0000.0001) //     20 cccg............zz......zzmgcccg....
(PID.TID 0000.0001) //     19 gcc-..........+.zz....+.zzxmgcc-....
(PID.TID 0000.0001) //     18 mjc-.......+zzz..z.+zzz..zzsmjc-....
(PID.TID 0000.0001) //     17 wwc-........++z+++..++z+++z+wwc-....
(PID.TID 0000.0001) //     16 ....................................
(PID.TID 0000.0001) //     15 ....yxwwuspxyxz...pxyxz.........yxww
(PID.TID 0000.0001) //     14 .....+wwspppsxzz..ppsxzz.........+ww
(PID.TID 0000.0001) //     13 ........zwsppsyz..sppsyz............
(PID.TID 0000.0001) //     12 ..........+ypswzz++ypswzz+..........
(PID.TID 0000.0001) //     11 ............+wwy+...+wwy+...........
(PID.TID 0000.0001) //     10 ...........zzzywy+.zzzywy+..........
(PID.TID 0000.0001) //      9 ...z.......+zxsmmm.+zxsmmm+....z....
(PID.TID 0000.0001) //      8 z..s.....zzzxumjjjzzxumjjjjuz..s....
(PID.TID 0000.0001) //      7 jpmj......z.+zmjggz.+zmjggggjpmj....
(PID.TID 0000.0001) //      6 gggg.........zxmjg...zxmjggggggg....
(PID.TID 0000.0001) //      5 gggg..........zzsj....zzsjgggggg....
(PID.TID 0000.0001) //     12 ..........+ypswzz++ypswzz+..........
(PID.TID 0000.0001) //     11 ............+wwy+...+wwy+...........
(PID.TID 0000.0001) //     10 ...........zzzywy+.zzzywy+..........
(PID.TID 0000.0001) //      9 ...z.......+zxsmmm.+zxsmmm+....z....
(PID.TID 0000.0001) //      8 z..s.....zzzxumjjjzzxumjjjjuz..s....
(PID.TID 0000.0001) //      7 jpmj......z.+zmjggz.+zmjggggjpmj....
(PID.TID 0000.0001) //      6 gggg.........zxmjg...zxmjggggggg....
(PID.TID 0000.0001) //      5 gggg..........zzsj....zzsjgggggg....
(PID.TID 0000.0001) //      4 cccg............zz......zzmgcccg....
(PID.TID 0000.0001) //      3 gcc-..........+.zz....+.zzxmgcc-....
(PID.TID 0000.0001) //      2 mjc-.......+zzz..z.+zzz..zzsmjc-....
(PID.TID 0000.0001) //      1 wwc-........++z+++..++z+++z+wwc-....
(PID.TID 0000.0001) //      0 ....................................
(PID.TID 0000.0001) //     -1 ....yxwwuspxyxz...pxyxz.........yxww
(PID.TID 0000.0001) //     -2 .....+wwspppsxzz..ppsxzz.........+ww
(PID.TID 0000.0001) //     -3 ........zwsppsyz..sppsyz............
(PID.TID 0000.0001) // =======================================================
(PID.TID 0000.0001) // END OF FIELD                                          =
(PID.TID 0000.0001) // =======================================================
(PID.TID 0000.0001) 
(PID.TID 0000.0001) // =======================================================
(PID.TID 0000.0001) // Field Model Ro_surf (ini_masks_etc)
(PID.TID 0000.0001) // CMIN =          1.000000000000000E+32
(PID.TID 0000.0001) // CMAX =         -1.000000000000000E+32
(PID.TID 0000.0001) // CINT =          0.000000000000000E+00
(PID.TID 0000.0001) // SYMBOLS (CMIN->CMAX): -abcdefghijklmnopqrstuvwxyz+
(PID.TID 0000.0001) //                  0.0: .
(PID.TID 0000.0001) // RANGE I (Lo:Hi:Step):(    -3:    24:     1)
(PID.TID 0000.0001) // RANGE J (Lo:Hi:Step):(    20:    -3:    -1)
(PID.TID 0000.0001) // RANGE K (Lo:Hi:Step):(   1:   1:   1)
(PID.TID 0000.0001) // =======================================================
(PID.TID 0000.0001) // =======================================================
(PID.TID 0000.0001) // END OF FIELD                                          =
(PID.TID 0000.0001) // =======================================================
(PID.TID 0000.0001) 
(PID.TID 0000.0001) // =======================================================
(PID.TID 0000.0001) // Field hFacC at iteration          0
(PID.TID 0000.0001) // CMIN =          1.000000000000000E+00
(PID.TID 0000.0001) // CMAX =          1.000000000000000E+00
(PID.TID 0000.0001) // CINT =          0.000000000000000E+00
(PID.TID 0000.0001) // SYMBOLS (CMIN->CMAX): -abcdefghijklmnopqrstuvwxyz+
(PID.TID 0000.0001) //                  0.0: .
(PID.TID 0000.0001) // RANGE I (Lo:Hi:Step):(    -3:    24:     1)
(PID.TID 0000.0001) // RANGE J (Lo:Hi:Step):(    20:    -3:    -1)
(PID.TID 0000.0001) // RANGE K (Lo:Hi:Step):(   1:   1:   1)
(PID.TID 0000.0001) // =======================================================
(PID.TID 0000.0001) // =======================================================
(PID.TID 0000.0001) // END OF FIELD                                          =
(PID.TID 0000.0001) // =======================================================
(PID.TID 0000.0001) 
(PID.TID 0000.0001) // =======================================================
(PID.TID 0000.0001) // Field hFacW at iteration          0
(PID.TID 0000.0001) // CMIN =          1.000000000000000E+00
(PID.TID 0000.0001) // CMAX =          1.000000000000000E+00
(PID.TID 0000.0001) // CINT =          0.000000000000000E+00
(PID.TID 0000.0001) // SYMBOLS (CMIN->CMAX): -abcdefghijklmnopqrstuvwxyz+
(PID.TID 0000.0001) //                  0.0: .
(PID.TID 0000.0001) // RANGE I (Lo:Hi:Step):(    -3:    24:     1)
(PID.TID 0000.0001) // RANGE J (Lo:Hi:Step):(    20:    -3:    -1)
(PID.TID 0000.0001) // RANGE K (Lo:Hi:Step):(   1:   1:   1)
(PID.TID 0000.0001) // =======================================================
(PID.TID 0000.0001) // =======================================================
(PID.TID 0000.0001) // END OF FIELD                                          =
(PID.TID 0000.0001) // =======================================================
(PID.TID 0000.0001) 
(PID.TID 0000.0001) // =======================================================
(PID.TID 0000.0001) // Field hFacS at iteration          0
(PID.TID 0000.0001) // CMIN =          1.000000000000000E+00
(PID.TID 0000.0001) // CMAX =          1.000000000000000E+00
(PID.TID 0000.0001) // CINT =          0.000000000000000E+00
(PID.TID 0000.0001) // SYMBOLS (CMIN->CMAX): -abcdefghijklmnopqrstuvwxyz+
(PID.TID 0000.0001) //                  0.0: .
(PID.TID 0000.0001) // RANGE I (Lo:Hi:Step):(    -3:    24:     1)
(PID.TID 0000.0001) // RANGE J (Lo:Hi:Step):(    20:    -3:    -1)
(PID.TID 0000.0001) // RANGE K (Lo:Hi:Step):(   1:   1:   1)
(PID.TID 0000.0001) // =======================================================
(PID.TID 0000.0001) // =======================================================
(PID.TID 0000.0001) // END OF FIELD                                          =
(PID.TID 0000.0001) // =======================================================
(PID.TID 0000.0001) 
(PID.TID 0000.0001) 
(PID.TID 0000.0001) // =======================================================
(PID.TID 0000.0001) // Calendar configuration >>> START <<<
(PID.TID 0000.0001) // =======================================================
(PID.TID 0000.0001) 
(PID.TID 0000.0001) modelstart = /* Start time of the model integration [s] */
(PID.TID 0000.0001)                 0.000000000000000E+00
(PID.TID 0000.0001)     ;
(PID.TID 0000.0001) modelend  = /* End time of the model integration [s] */
(PID.TID 0000.0001)                 3.600000000000000E+04
(PID.TID 0000.0001)     ;
(PID.TID 0000.0001) modelStep = /* Time interval for a model forward step [s] */
(PID.TID 0000.0001)                 3.600000000000000E+03
(PID.TID 0000.0001)     ;
(PID.TID 0000.0001) usingGregorianCalendar= /* Calendar Type: Gregorian Calendar */
(PID.TID 0000.0001)                   T
(PID.TID 0000.0001)     ;
(PID.TID 0000.0001) usingJulianCalendar = /* Calendar Type: Julian Calendar */
(PID.TID 0000.0001)                   F
(PID.TID 0000.0001)     ;
(PID.TID 0000.0001) usingNoLeapYearCal  = /* Calendar Type: without Leap Year */
(PID.TID 0000.0001)                   F
(PID.TID 0000.0001)     ;
(PID.TID 0000.0001) usingModelCalendar  = /* Calendar Type: Model Calendar */
(PID.TID 0000.0001)                   F
(PID.TID 0000.0001)     ;
(PID.TID 0000.0001) modelStartDate YYYYMMDD = /* Model start date YYYY-MM-DD */
(PID.TID 0000.0001)                19790101
(PID.TID 0000.0001)     ;
(PID.TID 0000.0001)   modelStartDate HHMMSS = /* Model start date HH-MM-SS  */
(PID.TID 0000.0001)                       0
(PID.TID 0000.0001)     ;
(PID.TID 0000.0001) modelEndDate   YYYYMMDD = /* Model end date YYYY-MM-DD */
(PID.TID 0000.0001)                19790101
(PID.TID 0000.0001)     ;
(PID.TID 0000.0001)   modelEndDate   HHMMSS = /* Model end date HH-MM-SS  */
(PID.TID 0000.0001)                  100000
(PID.TID 0000.0001)     ;
(PID.TID 0000.0001) intyears = /* Number of calendar years affected by the integration */
(PID.TID 0000.0001)                       1
(PID.TID 0000.0001)     ;
(PID.TID 0000.0001) intmonths= /* Number of calendar months affected by the integration */
(PID.TID 0000.0001)                       1
(PID.TID 0000.0001)     ;
(PID.TID 0000.0001) intdays = /* Number of calendar days affected by the integration */
(PID.TID 0000.0001)                       1
(PID.TID 0000.0001)     ;
(PID.TID 0000.0001) modelIter0 = /* Base timestep number  */
(PID.TID 0000.0001)                       0
(PID.TID 0000.0001)     ;
(PID.TID 0000.0001) modelIterEnd = /* Final timestep number  */
(PID.TID 0000.0001)                      10
(PID.TID 0000.0001)     ;
(PID.TID 0000.0001) modelIntSteps= /* Number of model timesteps  */
(PID.TID 0000.0001)                      10
(PID.TID 0000.0001)     ;
(PID.TID 0000.0001) 
(PID.TID 0000.0001) // =======================================================
(PID.TID 0000.0001) // Calendar configuration  >>> END <<<
(PID.TID 0000.0001) // =======================================================
(PID.TID 0000.0001) 
(PID.TID 0000.0001) GAD_INIT_FIXED: GAD_OlMinSize=  1  0  1
(PID.TID 0000.0001) 
(PID.TID 0000.0001) // ===================================
(PID.TID 0000.0001) // GAD parameters :
(PID.TID 0000.0001) // ===================================
(PID.TID 0000.0001) tempAdvScheme =   /* Temp. Horiz.Advection scheme selector */
(PID.TID 0000.0001)                       2
(PID.TID 0000.0001)     ;
(PID.TID 0000.0001) tempVertAdvScheme =   /* Temp. Vert. Advection scheme selector */
(PID.TID 0000.0001)                       2
(PID.TID 0000.0001)     ;
(PID.TID 0000.0001) tempMultiDimAdvec =   /* use Muti-Dim Advec method for Temp */
(PID.TID 0000.0001)                   F
(PID.TID 0000.0001)     ;
(PID.TID 0000.0001) tempSOM_Advection = /* use 2nd Order Moment Advection for Temp */
(PID.TID 0000.0001)                   F
(PID.TID 0000.0001)     ;
(PID.TID 0000.0001) AdamsBashforthGt = /* apply Adams-Bashforth extrapolation on Gt */
(PID.TID 0000.0001)                   T
(PID.TID 0000.0001)     ;
(PID.TID 0000.0001) AdamsBashforth_T = /* apply Adams-Bashforth extrapolation on Temp */
(PID.TID 0000.0001)                   F
(PID.TID 0000.0001)     ;
(PID.TID 0000.0001) saltAdvScheme =   /* Salt. Horiz.advection scheme selector */
(PID.TID 0000.0001)                       2
(PID.TID 0000.0001)     ;
(PID.TID 0000.0001) saltVertAdvScheme =   /* Salt. Vert. Advection scheme selector */
(PID.TID 0000.0001)                       2
(PID.TID 0000.0001)     ;
(PID.TID 0000.0001) saltMultiDimAdvec =   /* use Muti-Dim Advec method for Salt */
(PID.TID 0000.0001)                   F
(PID.TID 0000.0001)     ;
(PID.TID 0000.0001) saltSOM_Advection = /* use 2nd Order Moment Advection for Salt */
(PID.TID 0000.0001)                   F
(PID.TID 0000.0001)     ;
(PID.TID 0000.0001) AdamsBashforthGs = /* apply Adams-Bashforth extrapolation on Gs */
(PID.TID 0000.0001)                   T
(PID.TID 0000.0001)     ;
(PID.TID 0000.0001) AdamsBashforth_S = /* apply Adams-Bashforth extrapolation on Salt */
(PID.TID 0000.0001)                   F
(PID.TID 0000.0001)     ;
(PID.TID 0000.0001) // ===================================
(PID.TID 0000.0001) 
(PID.TID 0000.0001) // =======================================================
(PID.TID 0000.0001) // External forcing (EXF) configuration >>> START <<<
(PID.TID 0000.0001) // =======================================================
(PID.TID 0000.0001) 
(PID.TID 0000.0001)  EXF general parameters:
(PID.TID 0000.0001) 
(PID.TID 0000.0001) exf_iprec = /* exf file precision */
(PID.TID 0000.0001)                      32
(PID.TID 0000.0001)     ;
(PID.TID 0000.0001) useExfYearlyFields = /* add extension _YEAR to input file names */
(PID.TID 0000.0001)                   F
(PID.TID 0000.0001)     ;
(PID.TID 0000.0001) twoDigitYear = /* use 2-digit year extension */
(PID.TID 0000.0001)                   F
(PID.TID 0000.0001)     ;
(PID.TID 0000.0001) useExfCheckRange = /* check for fields range */
(PID.TID 0000.0001)                   T
(PID.TID 0000.0001)     ;
(PID.TID 0000.0001) diags_opOceWeighted = /* weight flux diags by open-ocean fraction */
(PID.TID 0000.0001)                   T
(PID.TID 0000.0001)     ;
(PID.TID 0000.0001) exf_debugLev = /* select EXF-debug printing level */
(PID.TID 0000.0001)                       2
(PID.TID 0000.0001)     ;
(PID.TID 0000.0001) exf_monFreq  = /* EXF monitor frequency [ s ] */
(PID.TID 0000.0001)                 1.000000000000000E+00
(PID.TID 0000.0001)     ;
(PID.TID 0000.0001) repeatPeriod = /* period for cycling forcing dataset [ s ] */
(PID.TID 0000.0001)                 3.162240000000000E+07
(PID.TID 0000.0001)     ;
(PID.TID 0000.0001) climTempFreeze= /* Minimum climatological temperature [deg.C] */
(PID.TID 0000.0001)                -1.900000000000000E+00
(PID.TID 0000.0001)     ;
(PID.TID 0000.0001) windStressMax = /* Maximum absolute windstress [ Pa ] */
(PID.TID 0000.0001)                 2.000000000000000E+00
(PID.TID 0000.0001)     ;
(PID.TID 0000.0001) stressIsOnCgrid = /* set u,v_stress on Arakawa C-grid */
(PID.TID 0000.0001)                   F
(PID.TID 0000.0001)     ;
(PID.TID 0000.0001) rotateStressOnAgrid = /* rotate u,v_stress on Arakawa A-grid */
(PID.TID 0000.0001)                   F
(PID.TID 0000.0001)     ;
(PID.TID 0000.0001) cen2kel = /* conversion of deg. Centigrade to Kelvin [K] */
(PID.TID 0000.0001)                 2.731500000000000E+02
(PID.TID 0000.0001)     ;
(PID.TID 0000.0001) gravity_mks= /* gravitational acceleration [m/s^2] */
(PID.TID 0000.0001)                 9.810000000000000E+00
(PID.TID 0000.0001)     ;
(PID.TID 0000.0001) atmrho =  /* mean atmospheric density [kg/m^3] */
(PID.TID 0000.0001)                 1.200000000000000E+00
(PID.TID 0000.0001)     ;
(PID.TID 0000.0001) atmcp =  /* mean atmospheric specific heat [J/kg/K] */
(PID.TID 0000.0001)                 1.005000000000000E+03
(PID.TID 0000.0001)     ;
(PID.TID 0000.0001) flamb =  /* latent heat of evaporation [J/kg] */
(PID.TID 0000.0001)                 2.500000000000000E+06
(PID.TID 0000.0001)     ;
(PID.TID 0000.0001) flami =  /* latent heat of pure-ice melting [J/kg] */
(PID.TID 0000.0001)                 3.340000000000000E+05
(PID.TID 0000.0001)     ;
(PID.TID 0000.0001) cvapor_fac = /* const. for Saturation calculation [?] */
(PID.TID 0000.0001)                 6.403800000000000E+05
(PID.TID 0000.0001)     ;
(PID.TID 0000.0001) cvapor_exp = /* const. for Saturation calculation [?] */
(PID.TID 0000.0001)                 5.107400000000000E+03
(PID.TID 0000.0001)     ;
(PID.TID 0000.0001) cvapor_fac_ice= /* const. for Saturation calculation [?] */
(PID.TID 0000.0001)                 1.163780000000000E+07
(PID.TID 0000.0001)     ;
(PID.TID 0000.0001) cvapor_exp_ice= /* const. for Saturation calculation [?] */
(PID.TID 0000.0001)                 5.897800000000000E+03
(PID.TID 0000.0001)     ;
(PID.TID 0000.0001) humid_fac = /* humidity coef. in virtual temp. [(kg/kg)^-1] */
(PID.TID 0000.0001)                 6.060000000000000E-01
(PID.TID 0000.0001)     ;
(PID.TID 0000.0001) gamma_blk = /* adiabatic lapse rate [?] */
(PID.TID 0000.0001)                 1.000000000000000E-02
(PID.TID 0000.0001)     ;
(PID.TID 0000.0001) saltsat = /* reduction of Qsat over salty water [-] */
(PID.TID 0000.0001)                 9.800000000000000E-01
(PID.TID 0000.0001)     ;
(PID.TID 0000.0001) noNegativeEvap = /* prevent negative Evaporation */
(PID.TID 0000.0001)                   F
(PID.TID 0000.0001)     ;
(PID.TID 0000.0001) sstExtrapol = /* extrapolation coeff from lev. 1 & 2 to surf [-] */
(PID.TID 0000.0001)                 0.000000000000000E+00
(PID.TID 0000.0001)     ;
(PID.TID 0000.0001) cDrag_1 = /* coef used in drag calculation [?] */
(PID.TID 0000.0001)                 2.700000000000000E-03
(PID.TID 0000.0001)     ;
(PID.TID 0000.0001) cDrag_2 = /* coef used in drag calculation [?] */
(PID.TID 0000.0001)                 1.420000000000000E-04
(PID.TID 0000.0001)     ;
(PID.TID 0000.0001) cDrag_3 = /* coef used in drag calculation [?] */
(PID.TID 0000.0001)                 7.640000000000000E-05
(PID.TID 0000.0001)     ;
(PID.TID 0000.0001) cStanton_1 = /* coef used in Stanton number calculation [?] */
(PID.TID 0000.0001)                 3.270000000000000E-02
(PID.TID 0000.0001)     ;
(PID.TID 0000.0001) cStanton_2 = /* coef used in Stanton number calculation [?] */
(PID.TID 0000.0001)                 1.800000000000000E-02
(PID.TID 0000.0001)     ;
(PID.TID 0000.0001) cDalton = /* coef used in Dalton number calculation [?] */
(PID.TID 0000.0001)                 3.460000000000000E-02
(PID.TID 0000.0001)     ;
(PID.TID 0000.0001) exf_scal_BulkCdn= /* Drag coefficient scaling factor [-] */
(PID.TID 0000.0001)                 1.000000000000000E+00
(PID.TID 0000.0001)     ;
(PID.TID 0000.0001) zolmin = /* minimum stability parameter [?] */
(PID.TID 0000.0001)                -1.000000000000000E+02
(PID.TID 0000.0001)     ;
(PID.TID 0000.0001) psim_fac = /* coef used in turbulent fluxes calculation [-] */
(PID.TID 0000.0001)                 5.000000000000000E+00
(PID.TID 0000.0001)     ;
(PID.TID 0000.0001) zref =  /* reference height [ m ] */
(PID.TID 0000.0001)                 1.000000000000000E+01
(PID.TID 0000.0001)     ;
(PID.TID 0000.0001) hu =  /* height of mean wind [ m ] */
(PID.TID 0000.0001)                 1.000000000000000E+01
(PID.TID 0000.0001)     ;
(PID.TID 0000.0001) ht =  /* height of mean temperature [ m ] */
(PID.TID 0000.0001)                 2.000000000000000E+00
(PID.TID 0000.0001)     ;
(PID.TID 0000.0001) hq =  /* height of mean spec.humidity [ m ] */
(PID.TID 0000.0001)                 2.000000000000000E+00
(PID.TID 0000.0001)     ;
(PID.TID 0000.0001) uMin = /* minimum wind speed [m/s] */
(PID.TID 0000.0001)                 5.000000000000000E-01
(PID.TID 0000.0001)     ;
(PID.TID 0000.0001) useStabilityFct_overIce= /* transfert Coeffs over sea-ice depend on stability */
(PID.TID 0000.0001)                   F
(PID.TID 0000.0001)     ;
(PID.TID 0000.0001) exf_iceCd = /* drag coefficient over sea-ice (fixed) [-] */
(PID.TID 0000.0001)                 1.630000000000000E-03
(PID.TID 0000.0001)     ;
(PID.TID 0000.0001) exf_iceCe = /* transfert coeff. over sea-ice, for Evap (fixed) [-] */
(PID.TID 0000.0001)                 1.630000000000000E-03
(PID.TID 0000.0001)     ;
(PID.TID 0000.0001) exf_iceCh = /* transfert coeff. over sea-ice, Sens.Heat.(fixed)[-] */
(PID.TID 0000.0001)                 1.630000000000000E-03
(PID.TID 0000.0001)     ;
(PID.TID 0000.0001) exf_albedo =  /* Sea-water albedo [-] */
(PID.TID 0000.0001)                 1.000000000000000E-01
(PID.TID 0000.0001)     ;
(PID.TID 0000.0001) useExfZenAlbedo = /* Sea-water albedo varies with zenith angle */
(PID.TID 0000.0001)                   F
(PID.TID 0000.0001)     ;
(PID.TID 0000.0001) select_ZenAlbedo = /* Sea-water albedo computation method */
(PID.TID 0000.0001)                       0
(PID.TID 0000.0001)     ;
(PID.TID 0000.0001) useExfZenIncoming = /* compute incoming solar radiation */
(PID.TID 0000.0001)                   F
(PID.TID 0000.0001)     ;
(PID.TID 0000.0001) ocean_emissivity = /* longwave ocean-surface emissivity [-] */
(PID.TID 0000.0001)                 9.700176366843034E-01
(PID.TID 0000.0001)     ;
(PID.TID 0000.0001) ice_emissivity = /* longwave seaice emissivity [-] */
(PID.TID 0000.0001)                 9.500000000000000E-01
(PID.TID 0000.0001)     ;
(PID.TID 0000.0001) snow_emissivity = /* longwave snow  emissivity [-] */
(PID.TID 0000.0001)                 9.500000000000000E-01
(PID.TID 0000.0001)     ;
(PID.TID 0000.0001) 
(PID.TID 0000.0001)  EXF main CPP flags:
(PID.TID 0000.0001) 
(PID.TID 0000.0001) // USE_EXF_INTERPOLATION:          NOT defined
(PID.TID 0000.0001) // ALLOW_ATM_TEMP:                     defined
(PID.TID 0000.0001) // ALLOW_ATM_WIND (useAtmWind):        defined
(PID.TID 0000.0001) // ALLOW_DOWNWARD_RADIATION:           defined
(PID.TID 0000.0001) // ALLOW_BULKFORMULAE:                 defined
(PID.TID 0000.0001) 
(PID.TID 0000.0001)    Zonal wind forcing starts at                   -1317600.
(PID.TID 0000.0001)    Zonal wind forcing period is                    2635200.
(PID.TID 0000.0001)    Zonal wind forcing repeat-cycle is             31622400.
(PID.TID 0000.0001)    Zonal wind forcing is read from file:
(PID.TID 0000.0001)    >> u10m.labsea1979 <<
(PID.TID 0000.0001) 
(PID.TID 0000.0001)    Meridional wind forcing starts at              -1317600.
(PID.TID 0000.0001)    Meridional wind forcing period is               2635200.
(PID.TID 0000.0001)    Meridional wind forcing repeat-cycle is        31622400.
(PID.TID 0000.0001)    Meridional wind forcing is read from file:
(PID.TID 0000.0001)    >> v10m.labsea1979 <<
(PID.TID 0000.0001) 
(PID.TID 0000.0001)    Atmospheric temperature starts at              -1317600.
(PID.TID 0000.0001)    Atmospheric temperature period is               2635200.
(PID.TID 0000.0001)    Atmospheric temperature repeat-cycle is        31622400.
(PID.TID 0000.0001)    Atmospheric temperature is read from file:
(PID.TID 0000.0001)    >> tair.labsea1979 <<
(PID.TID 0000.0001) 
(PID.TID 0000.0001)    Atmospheric specific humidity starts at        -1317600.
(PID.TID 0000.0001)    Atmospheric specific humidity period is         2635200.
(PID.TID 0000.0001)    Atmospheric specific humidity rep-cycle is     31622400.
(PID.TID 0000.0001)    Atmospheric specific humidity is read from file:
(PID.TID 0000.0001)    >> qa.labsea1979 <<
(PID.TID 0000.0001) 
(PID.TID 0000.0001) // ALLOW_READ_TURBFLUXES:          NOT defined
(PID.TID 0000.0001) // EXF_READ_EVAP:                  NOT defined
(PID.TID 0000.0001) 
(PID.TID 0000.0001)    Precipitation data starts at                   -1317600.
(PID.TID 0000.0001)    Precipitation data period is                    2635200.
(PID.TID 0000.0001)    Precipitation data repeat-cycle is             31622400.
(PID.TID 0000.0001)    Precipitation data is read from file:
(PID.TID 0000.0001)    >> prate.labsea1979 <<
(PID.TID 0000.0001) 
(PID.TID 0000.0001) // ALLOW_RUNOFF:                       defined
(PID.TID 0000.0001) // ALLOW_RUNOFTEMP:                NOT defined
(PID.TID 0000.0001) // ALLOW_SALTFLX:                      defined
(PID.TID 0000.0001) 
(PID.TID 0000.0001)    Downward shortwave flux starts at              -1317600.
(PID.TID 0000.0001)    Downward shortwave flux period is               2635200.
(PID.TID 0000.0001)    Downward shortwave flux repeat-cycle is        31622400.
(PID.TID 0000.0001)    Downward shortwave flux is read from file:
(PID.TID 0000.0001)    >> fsh.labsea1979 <<
(PID.TID 0000.0001) 
(PID.TID 0000.0001)    Downward longwave flux starts at               -1317600.
(PID.TID 0000.0001)    Downward longwave flux period is                2635200.
(PID.TID 0000.0001)    Downward longwave flux repeat-cycle is         31622400.
(PID.TID 0000.0001)    Downward longwave flux is read from file:
(PID.TID 0000.0001)    >> flo.labsea1979 <<
(PID.TID 0000.0001) 
(PID.TID 0000.0001) // =======================================================
(PID.TID 0000.0001) // External forcing (EXF) climatology configuration :
(PID.TID 0000.0001) // =======================================================
(PID.TID 0000.0001) 
(PID.TID 0000.0001) // ALLOW_CLIMSST_RELAXATION:           defined
(PID.TID 0000.0001)    climsst relaxation is NOT used
(PID.TID 0000.0001) 
(PID.TID 0000.0001) // ALLOW_CLIMSSS_RELAXATION:           defined
(PID.TID 0000.0001)    Climatological SSS starts at                   -1317600.
(PID.TID 0000.0001)    Climatological SSS period is                    2635200.
(PID.TID 0000.0001)    Climatological SSS repeat-cycle is             31622400.
(PID.TID 0000.0001)    Climatological SSS is read from file:
(PID.TID 0000.0001)    >> SSS_monthly.labsea1979 <<
(PID.TID 0000.0001) 
(PID.TID 0000.0001) // =======================================================
(PID.TID 0000.0001) // External forcing (EXF) configuration  >>> END <<<
(PID.TID 0000.0001) // =======================================================
(PID.TID 0000.0001) 
(PID.TID 0000.0001) // =======================================================
(PID.TID 0000.0001) // Seaice configuration (SEAICE_PARM01) >>> START <<<
(PID.TID 0000.0001) // =======================================================
(PID.TID 0000.0001) 
(PID.TID 0000.0001)    Seaice time stepping configuration   > START <
(PID.TID 0000.0001)    ----------------------------------------------
(PID.TID 0000.0001) SEAICE_deltaTtherm= /* thermodynamic timestep */
(PID.TID 0000.0001)                 3.600000000000000E+03
(PID.TID 0000.0001)     ;
(PID.TID 0000.0001) SEAICE_deltaTdyn  = /* dynamic timestep */
(PID.TID 0000.0001)                 3.600000000000000E+03
(PID.TID 0000.0001)     ;
(PID.TID 0000.0001) SEAICE_deltaTevp  = /* EVP timestep */
(PID.TID 0000.0001)                 1.234567000000000E+05
(PID.TID 0000.0001)     ;
(PID.TID 0000.0001) SEAICEuseBDF2  = /* use backw. differencing for mom. eq. */
(PID.TID 0000.0001)                   F
(PID.TID 0000.0001)     ;
(PID.TID 0000.0001) SEAICEupdateOceanStress= /* update Ocean surf. stress */
(PID.TID 0000.0001)                   T
(PID.TID 0000.0001)     ;
(PID.TID 0000.0001) SEAICErestoreUnderIce  = /* restore T and S under ice */
(PID.TID 0000.0001)                   F
(PID.TID 0000.0001)     ;
(PID.TID 0000.0001) 
(PID.TID 0000.0001)    Seaice dynamics configuration   > START <
(PID.TID 0000.0001)    ------------------------------------------
(PID.TID 0000.0001) SEAICEuseDYNAMICS = /* use dynamics */
(PID.TID 0000.0001)                   T
(PID.TID 0000.0001)     ;
(PID.TID 0000.0001) model grid type   = /* type of sea ice model grid */
(PID.TID 0000.0001)               'C-GRID'
(PID.TID 0000.0001)     ;
(PID.TID 0000.0001) SEAICEuseStrImpCpl = /* use strongly implicit coupling */
(PID.TID 0000.0001)                   F
(PID.TID 0000.0001)     ;
(PID.TID 0000.0001) SEAICEusePicardAsPrecon = /* Picard as preconditioner */
(PID.TID 0000.0001)                   F
(PID.TID 0000.0001)     ;
(PID.TID 0000.0001) SEAICEuseLSR      = /* use default Picard-LSR solver */
(PID.TID 0000.0001)                   F
(PID.TID 0000.0001)     ;
(PID.TID 0000.0001) SEAICEuseKrylov   = /* use Picard-Krylov solver */
(PID.TID 0000.0001)                   F
(PID.TID 0000.0001)     ;
(PID.TID 0000.0001) SEAICEuseEVP      = /* use EVP solver rather than LSR */
(PID.TID 0000.0001)                   T
(PID.TID 0000.0001)     ;
(PID.TID 0000.0001) SEAICEuseJFNK     = /* use JFNK solver */
(PID.TID 0000.0001)                   F
(PID.TID 0000.0001)     ;
(PID.TID 0000.0001) SEAICEuseFREEDRIFT = /* use free drift solution */
(PID.TID 0000.0001)                   F
(PID.TID 0000.0001)     ;
(PID.TID 0000.0001) OCEAN_drag        = /* air-ocean drag coefficient */
(PID.TID 0000.0001)                 1.000000000000000E-03
(PID.TID 0000.0001)     ;
(PID.TID 0000.0001) SEAICE_drag       = /* air-ice drag coefficient */
(PID.TID 0000.0001)                 1.000000000000000E-03
(PID.TID 0000.0001)     ;
(PID.TID 0000.0001) SEAICE_drag_south      = /* Southern Ocean SEAICE_drag */
(PID.TID 0000.0001)                 1.000000000000000E-03
(PID.TID 0000.0001)     ;
(PID.TID 0000.0001) SEAICE_waterDrag  = /* water-ice drag (no units) */
(PID.TID 0000.0001)                 5.355404089581304E-03
(PID.TID 0000.0001)     ;
(PID.TID 0000.0001) SEAICE_waterDrag_south = /* Southern Ocean waterDrag (no units) */
(PID.TID 0000.0001)                 5.355404089581304E-03
(PID.TID 0000.0001)     ;
(PID.TID 0000.0001) SEAICEdWatMin = /* minimum linear water-ice drag (in m/s) */
(PID.TID 0000.0001)                 2.500000000000000E-01
(PID.TID 0000.0001)     ;
(PID.TID 0000.0001) SEAICEbasalDragK2 = /* Basal drag parameter */
(PID.TID 0000.0001)                 0.000000000000000E+00
(PID.TID 0000.0001)     ;
(PID.TID 0000.0001) SEAICEuseTilt     = /* include surface tilt in dyna. */
(PID.TID 0000.0001)                   T
(PID.TID 0000.0001)     ;
(PID.TID 0000.0001) SEAICEuseTEM      = /* use truncated ellipse rheology */
(PID.TID 0000.0001)                   F
(PID.TID 0000.0001)     ;
(PID.TID 0000.0001) SEAICE_strength   = /* sea-ice strength Pstar */
(PID.TID 0000.0001)                 2.750000000000000E+04
(PID.TID 0000.0001)     ;
(PID.TID 0000.0001) SEAICE_cStar      = /* sea-ice strength parameter cStar */
(PID.TID 0000.0001)                 2.000000000000000E+01
(PID.TID 0000.0001)     ;
(PID.TID 0000.0001) SEAICEpressReplFac= /* press. replacement method factor */
(PID.TID 0000.0001)                 1.000000000000000E+00
(PID.TID 0000.0001)     ;
(PID.TID 0000.0001) SEAICE_tensilFac  = /* sea-ice tensile strength factor */
(PID.TID 0000.0001)                 0.000000000000000E+00
(PID.TID 0000.0001)     ;
(PID.TID 0000.0001) SEAICE_tensilDepth= /* crit. depth for tensile strength */
(PID.TID 0000.0001)                 0.000000000000000E+00
(PID.TID 0000.0001)     ;
(PID.TID 0000.0001) SEAICEpresH0   = /* sea-ice strength Heff threshold */
(PID.TID 0000.0001)                 1.000000000000000E+00
(PID.TID 0000.0001)     ;
(PID.TID 0000.0001) SEAICEpresPow0 = /* exponent for Heff<SEAICEpresH0 */
(PID.TID 0000.0001)                       1
(PID.TID 0000.0001)     ;
(PID.TID 0000.0001) SEAICEpresPow1 = /* exponent for Heff>SEAICEpresH0 */
(PID.TID 0000.0001)                       1
(PID.TID 0000.0001)     ;
(PID.TID 0000.0001) SEAICEetaZmethod = /* method computing eta at Z-point */
(PID.TID 0000.0001)                       3
(PID.TID 0000.0001)     ;
(PID.TID 0000.0001) SEAICE_zetaMaxFac = /* factor for upper viscosity bound */
(PID.TID 0000.0001)                 2.500000000000000E+08
(PID.TID 0000.0001)     ;
(PID.TID 0000.0001) SEAICE_zetaMin    = /* lower bound for viscosity */
(PID.TID 0000.0001)                 0.000000000000000E+00
(PID.TID 0000.0001)     ;
(PID.TID 0000.0001) SEAICE_eccen    = /* elliptical yield curve eccent */
(PID.TID 0000.0001)                 2.000000000000000E+00
(PID.TID 0000.0001)     ;
(PID.TID 0000.0001) SEAICEstressFactor    = /* wind stress scaling factor */
(PID.TID 0000.0001)                 1.000000000000000E+00
(PID.TID 0000.0001)     ;
(PID.TID 0000.0001) SEAICE_airTurnAngle    = /* air-ice turning angle */
(PID.TID 0000.0001)                 0.000000000000000E+00
(PID.TID 0000.0001)     ;
(PID.TID 0000.0001) SEAICE_waterTurnAngle  = /* ice-water turning angle */
(PID.TID 0000.0001)                 0.000000000000000E+00
(PID.TID 0000.0001)     ;
(PID.TID 0000.0001) SEAICEuseMetricTerms = /* use metric terms */
(PID.TID 0000.0001)                   T
(PID.TID 0000.0001)     ;
(PID.TID 0000.0001) SEAICE_no_slip    = /* no slip boundary conditions */
(PID.TID 0000.0001)                   T
(PID.TID 0000.0001)     ;
(PID.TID 0000.0001) SEAICE_2ndOrderBC = /* 2nd order no slip boundary conditions */
(PID.TID 0000.0001)                   F
(PID.TID 0000.0001)     ;
(PID.TID 0000.0001) SEAICE_clipVeloctities = /* impose max. vels. */
(PID.TID 0000.0001)                   F
(PID.TID 0000.0001)     ;
(PID.TID 0000.0001) useHB87stressCoupling  = /* altern. ice-ocean stress */
(PID.TID 0000.0001)                   T
(PID.TID 0000.0001)     ;
(PID.TID 0000.0001) SEAICEscaleSurfStress  = /* scale atm. and ocean-surface stress with AREA */
(PID.TID 0000.0001)                   F
(PID.TID 0000.0001)     ;
(PID.TID 0000.0001) SEAICE_maskRHS    = /* mask RHS of solver */
(PID.TID 0000.0001)                   F
(PID.TID 0000.0001)     ;
(PID.TID 0000.0001) SEAICEaddSnowMass = /* add snow mass to seaiceMassC/U/V */
(PID.TID 0000.0001)                   F
(PID.TID 0000.0001)     ;
(PID.TID 0000.0001) SEAICE_elasticParm= /* EVP elastic parameter */
(PID.TID 0000.0001)                 3.333333333333333E-01
(PID.TID 0000.0001)     ;
(PID.TID 0000.0001) SEAICE_evpTauRelax= /* EVP relaxation timescale */
(PID.TID 0000.0001)                 1.200000000000000E+03
(PID.TID 0000.0001)     ;
(PID.TID 0000.0001) SEAICE_evpDampC   = /* EVP damping parameter */
(PID.TID 0000.0001)                -1.000000000000000E+00
(PID.TID 0000.0001)     ;
(PID.TID 0000.0001) SEAICEuseEVPstar  = /* use EVP* solver */
(PID.TID 0000.0001)                   T
(PID.TID 0000.0001)     ;
(PID.TID 0000.0001) SEAICEuseEVPrev   = /* use "revisited EVP" solver */
(PID.TID 0000.0001)                   T
(PID.TID 0000.0001)     ;
(PID.TID 0000.0001) SEAICE_evpAlpha   = /* EVP* parameter*/
(PID.TID 0000.0001)                 1.944001419121036E-02
(PID.TID 0000.0001)     ;
(PID.TID 0000.0001) SEAICE_evpBeta    = /* EVP*  parameter */
(PID.TID 0000.0001)                 2.916002128681554E-02
(PID.TID 0000.0001)     ;
(PID.TID 0000.0001) SEAICEaEVPcoeff   = /* adaptive EVP parameter*/
(PID.TID 0000.0001)                 5.000000000000000E-01
(PID.TID 0000.0001)     ;
(PID.TID 0000.0001) SEAICEaEVPcStar   = /* adaptive EVP parameter*/
(PID.TID 0000.0001)                 4.000000000000000E+00
(PID.TID 0000.0001)     ;
(PID.TID 0000.0001) SEAICEaEVPalphaMin= /* adaptive EVP parameter*/
(PID.TID 0000.0001)                 5.000000000000000E+00
(PID.TID 0000.0001)     ;
(PID.TID 0000.0001) SEAICEnEVPstarSteps = /* num. of EVP* steps */
(PID.TID 0000.0001)                     500
(PID.TID 0000.0001)     ;
(PID.TID 0000.0001) SEAICEuseEVPpickup= /* start EVP solver with EVP pickup*/
(PID.TID 0000.0001)                   T
(PID.TID 0000.0001)     ;
(PID.TID 0000.0001) 
(PID.TID 0000.0001)    Seaice advection diffusion config,   > START <
(PID.TID 0000.0001)    -----------------------------------------------
(PID.TID 0000.0001) SEAICEmomAdvection = /* advect sea ice momentum */
(PID.TID 0000.0001)                   F
(PID.TID 0000.0001)     ;
(PID.TID 0000.0001) SEAICEadvHeff = /* advect effective ice thickness */
(PID.TID 0000.0001)                   T
(PID.TID 0000.0001)     ;
(PID.TID 0000.0001) SEAICEadvArea = /* advect fractional ice area */
(PID.TID 0000.0001)                   T
(PID.TID 0000.0001)     ;
(PID.TID 0000.0001) SEAICEadvSnow = /* advect snow layer together with ice */
(PID.TID 0000.0001)                   T
(PID.TID 0000.0001)     ;
(PID.TID 0000.0001) SEAICEadvScheme   = /* advection scheme for ice */
(PID.TID 0000.0001)                       2
(PID.TID 0000.0001)     ;
(PID.TID 0000.0001) SEAICEuseFluxForm = /* advection in FV flux form */
(PID.TID 0000.0001)                   T
(PID.TID 0000.0001)     ;
(PID.TID 0000.0001) SEAICEadvSchArea   = /* advection scheme for area */
(PID.TID 0000.0001)                       2
(PID.TID 0000.0001)     ;
(PID.TID 0000.0001) SEAICEadvSchHeff   = /* advection scheme for thickness */
(PID.TID 0000.0001)                       2
(PID.TID 0000.0001)     ;
(PID.TID 0000.0001) SEAICEadvSchSnow   = /* advection scheme for snow */
(PID.TID 0000.0001)                       2
(PID.TID 0000.0001)     ;
(PID.TID 0000.0001) SEAICEdiffKhArea   = /* diffusivity (m^2/s) for area */
(PID.TID 0000.0001)                 0.000000000000000E+00
(PID.TID 0000.0001)     ;
(PID.TID 0000.0001) SEAICEdiffKhHeff   = /* diffusivity (m^2/s) for heff */
(PID.TID 0000.0001)                 0.000000000000000E+00
(PID.TID 0000.0001)     ;
(PID.TID 0000.0001) SEAICEdiffKhSnow   = /* diffusivity (m^2/s) for snow */
(PID.TID 0000.0001)                 0.000000000000000E+00
(PID.TID 0000.0001)     ;
(PID.TID 0000.0001) DIFF1             = /* parameter used in advect.F [m/s] */
(PID.TID 0000.0001)                 4.000000000000000E-03
(PID.TID 0000.0001)     ;
(PID.TID 0000.0001) 
(PID.TID 0000.0001)    Seaice thermodynamics configuration   > START <
(PID.TID 0000.0001)    -----------------------------------------------
(PID.TID 0000.0001) SEAICE_rhoIce     = /* density of sea ice (kg/m3) */
(PID.TID 0000.0001)                 9.100000000000000E+02
(PID.TID 0000.0001)     ;
(PID.TID 0000.0001) SEAICE_rhoSnow    = /* density of snow (kg/m3) */
(PID.TID 0000.0001)                 3.300000000000000E+02
(PID.TID 0000.0001)     ;
(PID.TID 0000.0001) SEAICE_rhoAir     = /* density of air (kg/m3) */
(PID.TID 0000.0001)                 1.200000000000000E+00
(PID.TID 0000.0001)     ;
(PID.TID 0000.0001) usePW79thermodynamics  = /* default 0-layer TD */
(PID.TID 0000.0001)                   T
(PID.TID 0000.0001)     ;
(PID.TID 0000.0001) SEAICE_lhEvap     = /* latent heat of evaporation */
(PID.TID 0000.0001)                 2.500000000000000E+06
(PID.TID 0000.0001)     ;
(PID.TID 0000.0001) SEAICE_lhFusion   = /* latent heat of fusion */
(PID.TID 0000.0001)                 3.340000000000000E+05
(PID.TID 0000.0001)     ;
(PID.TID 0000.0001) SEAICE_mcPheePiston = /* turbulent flux "piston velocity" a la McPhee (m/s) */
(PID.TID 0000.0001)                 1.000000000000000E-03
(PID.TID 0000.0001)     ;
(PID.TID 0000.0001) SEAICE_mcPheeTaper = /* tapering of turbulent flux (0.< <1.) for AREA=1. */
(PID.TID 0000.0001)                 0.000000000000000E+00
(PID.TID 0000.0001)     ;
(PID.TID 0000.0001) SEAICE_mcPheeStepFunc = /* replace linear tapering with step funct. */
(PID.TID 0000.0001)                   F
(PID.TID 0000.0001)     ;
(PID.TID 0000.0001) SEAICE_frazilFrac = /* frazil (T<tempFrz) to seaice conversion rate (0.< <1.) */
(PID.TID 0000.0001)                 5.000000000000000E-01
(PID.TID 0000.0001)     ;
(PID.TID 0000.0001) SEAICE_tempFrz0   = /* freezing temp. of sea water (intercept) */
(PID.TID 0000.0001)                 9.010000000000000E-02
(PID.TID 0000.0001)     ;
(PID.TID 0000.0001) SEAICE_dTempFrz_dS= /* freezing temp. of sea water (slope) */
(PID.TID 0000.0001)                -5.750000000000000E-02
(PID.TID 0000.0001)     ;
(PID.TID 0000.0001) SEAICE_growMeltByConv  = /* grow,melt by vert. conv. */
(PID.TID 0000.0001)                   F
(PID.TID 0000.0001)     ;
(PID.TID 0000.0001) SEAICE_doOpenWaterGrowth = /* grow by open water */
(PID.TID 0000.0001)                   T
(PID.TID 0000.0001)     ;
(PID.TID 0000.0001) SEAICE_doOpenWaterMelt = /* melt by open water */
(PID.TID 0000.0001)                   F
(PID.TID 0000.0001)     ;
(PID.TID 0000.0001) SEAICE_areaGainFormula = /* ice cover gain formula (1,2)*/
(PID.TID 0000.0001)                       1
(PID.TID 0000.0001)     1=from growth by ATM
(PID.TID 0000.0001)     2=from predicted growth by ATM
(PID.TID 0000.0001)     ;
(PID.TID 0000.0001) SEAICE_areaLossFormula = /* ice cover loss formula (1,2)*/
(PID.TID 0000.0001)                       1
(PID.TID 0000.0001)     1=from all but only melt conributions by ATM and OCN
(PID.TID 0000.0001)     2=from net melt-grow>0 by ATM and OCN
(PID.TID 0000.0001)     3=from predicted melt by ATM
(PID.TID 0000.0001)     ;
(PID.TID 0000.0001) HO                = /* nominal thickness of new ice */
(PID.TID 0000.0001)                 5.000000000000000E-01
(PID.TID 0000.0001)     ;
(PID.TID 0000.0001) HO_south               = /* Southern Ocean HO */
(PID.TID 0000.0001)                 5.000000000000000E-01
(PID.TID 0000.0001)     ;
(PID.TID 0000.0001) SEAICE_area_max        = /* set to les than 1. to mimic open leads */
(PID.TID 0000.0001)                 1.000000000000000E+00
(PID.TID 0000.0001)     ;
(PID.TID 0000.0001) SEAICE_salt0   = /* constant sea ice salinity */
(PID.TID 0000.0001)                 4.000000000000000E+00
(PID.TID 0000.0001)     ;
(PID.TID 0000.0001) SEAICE_salinityTracer = /* test SITR varia. salinity */
(PID.TID 0000.0001)                   F
(PID.TID 0000.0001)     ;
(PID.TID 0000.0001) SEAICEuseFlooding = /* turn submerged snow into ice */
(PID.TID 0000.0001)                   T
(PID.TID 0000.0001)     ;
(PID.TID 0000.0001) 
(PID.TID 0000.0001)    Seaice air-sea fluxes configuration,   > START <
(PID.TID 0000.0001)    -----------------------------------------------
(PID.TID 0000.0001) SEAICEheatConsFix  = /* accound for ocn<->seaice advect. heat flux */
(PID.TID 0000.0001)                   F
(PID.TID 0000.0001)     ;
(PID.TID 0000.0001) SEAICE_multDim    = /* number of ice categories (1 or 7) */
(PID.TID 0000.0001)                       1
(PID.TID 0000.0001)     ;
(PID.TID 0000.0001) SEAICE_PDF        = /* sea-ice distribution (-) */
(PID.TID 0000.0001)                 1.000000000000000E+00,      /* K =  1 */
(PID.TID 0000.0001)     6 @  0.000000000000000E+00              /* K =  2:  7 */
(PID.TID 0000.0001)     ;
(PID.TID 0000.0001) IMAX_TICE         = /* iterations for ice surface temp */
(PID.TID 0000.0001)                      10
(PID.TID 0000.0001)     ;
(PID.TID 0000.0001) postSolvTempIter= /* flux calculation after surf. temp iter */
(PID.TID 0000.0001)                       2
(PID.TID 0000.0001)     ;
(PID.TID 0000.0001) SEAICE_dryIceAlb  = /* winter albedo */
(PID.TID 0000.0001)                 7.500000000000000E-01
(PID.TID 0000.0001)     ;
(PID.TID 0000.0001) SEAICE_wetIceAlb  = /* summer albedo */
(PID.TID 0000.0001)                 6.600000000000000E-01
(PID.TID 0000.0001)     ;
(PID.TID 0000.0001) SEAICE_drySnowAlb = /* dry snow albedo */
(PID.TID 0000.0001)                 8.400000000000000E-01
(PID.TID 0000.0001)     ;
(PID.TID 0000.0001) SEAICE_wetSnowAlb = /* wet snow albedo */
(PID.TID 0000.0001)                 7.000000000000000E-01
(PID.TID 0000.0001)     ;
(PID.TID 0000.0001) SEAICE_dryIceAlb_south = /* Southern Ocean dryIceAlb */
(PID.TID 0000.0001)                 7.500000000000000E-01
(PID.TID 0000.0001)     ;
(PID.TID 0000.0001) SEAICE_wetIceAlb_south = /* Southern Ocean wetIceAlb */
(PID.TID 0000.0001)                 6.600000000000000E-01
(PID.TID 0000.0001)     ;
(PID.TID 0000.0001) SEAICE_drySnowAlb_south= /* Southern Ocean drySnowAlb */
(PID.TID 0000.0001)                 8.400000000000000E-01
(PID.TID 0000.0001)     ;
(PID.TID 0000.0001) SEAICE_wetSnowAlb_south= /* Southern Ocean wetSnowAlb */
(PID.TID 0000.0001)                 7.000000000000000E-01
(PID.TID 0000.0001)     ;
(PID.TID 0000.0001) SEAICE_wetAlbTemp= /* Temp (o.C) threshold for wet-albedo */
(PID.TID 0000.0001)                -1.000000000000000E-03
(PID.TID 0000.0001)     ;
(PID.TID 0000.0001) SEAICE_snow_emiss = /* snow emissivity */
(PID.TID 0000.0001)                 9.500000000000000E-01
(PID.TID 0000.0001)     ;
(PID.TID 0000.0001) SEAICE_ice_emiss = /* seaice emissivity */
(PID.TID 0000.0001)                 9.500000000000000E-01
(PID.TID 0000.0001)     ;
(PID.TID 0000.0001) SEAICE_cpAir      = /* heat capacity of air */
(PID.TID 0000.0001)                 1.005000000000000E+03
(PID.TID 0000.0001)     ;
(PID.TID 0000.0001) SEAICE_dalton     = /* constant dalton number */
(PID.TID 0000.0001)                 1.750000000000000E-03
(PID.TID 0000.0001)     ;
(PID.TID 0000.0001) SEAICE_iceConduct = /* sea-ice conductivity */
(PID.TID 0000.0001)                 2.165600000000000E+00
(PID.TID 0000.0001)     ;
(PID.TID 0000.0001) SEAICE_snowConduct= /* snow conductivity */
(PID.TID 0000.0001)                 3.100000000000000E-01
(PID.TID 0000.0001)     ;
(PID.TID 0000.0001) SEAICE_snowThick  = /* cutoff snow thickness (for albedo) */
(PID.TID 0000.0001)                 1.500000000000000E-01
(PID.TID 0000.0001)     ;
(PID.TID 0000.0001) SEAICE_shortwave  = /* penetration shortwave radiation */
(PID.TID 0000.0001)                 3.000000000000000E-01
(PID.TID 0000.0001)     ;
(PID.TID 0000.0001) useMaykutSatVapPoly = /* use Maykut Polynomial for Sat.Vap.Pr */
(PID.TID 0000.0001)                   F
(PID.TID 0000.0001)     ;
(PID.TID 0000.0001) MIN_ATEMP         = /* minimum air temperature */
(PID.TID 0000.0001)                -5.000000000000000E+01
(PID.TID 0000.0001)     ;
(PID.TID 0000.0001) MIN_LWDOWN        = /* minimum downward longwave */
(PID.TID 0000.0001)                 6.000000000000000E+01
(PID.TID 0000.0001)     ;
(PID.TID 0000.0001) MIN_TICE          = /* minimum ice temperature */
(PID.TID 0000.0001)                -5.000000000000000E+01
(PID.TID 0000.0001)     ;
(PID.TID 0000.0001) 
(PID.TID 0000.0001)    Seaice initialization and IO config.,   > START <
(PID.TID 0000.0001)    -------------------------------------------------
(PID.TID 0000.0001) SEAICE_initialHEFF= /* initial sea-ice thickness */
(PID.TID 0000.0001)                 0.000000000000000E+00
(PID.TID 0000.0001)     ;
(PID.TID 0000.0001) AreaFile = /* Initial ice concentration File */
(PID.TID 0000.0001)               'AREA.0000008760'
(PID.TID 0000.0001)     ;
(PID.TID 0000.0001) HeffFile = /* Initial effective ice thickness File */
(PID.TID 0000.0001)               'HEFF.0000008760'
(PID.TID 0000.0001)     ;
(PID.TID 0000.0001) HsnowFile = /* Initial snow thickness File */
(PID.TID 0000.0001)               'HSNOW.0000008760'
(PID.TID 0000.0001)     ;
(PID.TID 0000.0001) uIceFile = /* Initial U-ice velocity File */
(PID.TID 0000.0001)               ''
(PID.TID 0000.0001)     ;
(PID.TID 0000.0001) vIceFile = /* Initial V-ice velocity File */
(PID.TID 0000.0001)               ''
(PID.TID 0000.0001)     ;
(PID.TID 0000.0001) SEAICEwriteState  = /* write sea ice state to file */
(PID.TID 0000.0001)                   T
(PID.TID 0000.0001)     ;
(PID.TID 0000.0001) SEAICE_monFreq  = /* monitor frequency */
(PID.TID 0000.0001)                 1.000000000000000E+00
(PID.TID 0000.0001)     ;
(PID.TID 0000.0001) SEAICE_dumpFreq   = /* dump frequency */
(PID.TID 0000.0001)                 0.000000000000000E+00
(PID.TID 0000.0001)     ;
(PID.TID 0000.0001) SEAICE_taveFreq   = /* time-averaging frequency */
(PID.TID 0000.0001)                 3.600000000000000E+04
(PID.TID 0000.0001)     ;
(PID.TID 0000.0001) SEAICE_mon_stdio  = /* write monitor to std-outp */
(PID.TID 0000.0001)                   T
(PID.TID 0000.0001)     ;
(PID.TID 0000.0001) SEAICE_dump_mdsio = /* write snap-shot   using MDSIO */
(PID.TID 0000.0001)                   T
(PID.TID 0000.0001)     ;
(PID.TID 0000.0001) SEAICE_tave_mdsio = /* write TimeAverage using MDSIO */
(PID.TID 0000.0001)                   T
(PID.TID 0000.0001)     ;
(PID.TID 0000.0001) SEAICE_mon_mnc    = /* write monitor to netcdf file */
(PID.TID 0000.0001)                   F
(PID.TID 0000.0001)     ;
(PID.TID 0000.0001) SEAICE_dump_mnc   = /* write snap-shot   using MNC */
(PID.TID 0000.0001)                   F
(PID.TID 0000.0001)     ;
(PID.TID 0000.0001) SEAICE_tave_mnc   = /* write TimeAverage using MNC */
(PID.TID 0000.0001)                   F
(PID.TID 0000.0001)     ;
(PID.TID 0000.0001) SItrNumInUse = /* number of tracers that are in use (<SItrMaxNum) */
(PID.TID 0000.0001)                       0
(PID.TID 0000.0001)     ;
(PID.TID 0000.0001) 
(PID.TID 0000.0001)    Seaice regularization numbers,   > START <
(PID.TID 0000.0001)    -----------------------------------------------
(PID.TID 0000.0001) SEAICE_deltaMin   = /* reduce singularities in Delta */
(PID.TID 0000.0001)                 1.000000000000000E-10
(PID.TID 0000.0001)     ;
(PID.TID 0000.0001) SEAICE_EPS        = /* small number */
(PID.TID 0000.0001)                 1.000000000000000E-10
(PID.TID 0000.0001)     ;
(PID.TID 0000.0001) SEAICE_EPS_SQ     = /* small number squared */
(PID.TID 0000.0001)                 1.000000000000000E-20
(PID.TID 0000.0001)     ;
(PID.TID 0000.0001) SEAICE_area_reg   = /* reduce derivative singularities */
(PID.TID 0000.0001)                 1.000000000000000E-05
(PID.TID 0000.0001)     ;
(PID.TID 0000.0001) SEAICE_hice_reg   = /* reduce derivative singularities */
(PID.TID 0000.0001)                 5.000000000000000E-02
(PID.TID 0000.0001)     ;
(PID.TID 0000.0001) SEAICE_area_floor = /* reduce derivative singularities */
(PID.TID 0000.0001)                 1.000000000000000E-05
(PID.TID 0000.0001)     ;
(PID.TID 0000.0001) 
(PID.TID 0000.0001) // =======================================================
(PID.TID 0000.0001) // Seaice configuration (SEAICE_PARM01) >>> END <<<
(PID.TID 0000.0001) // =======================================================
(PID.TID 0000.0001) 
(PID.TID 0000.0001) ------------------------------------------------------------
(PID.TID 0000.0001) DIAGNOSTICS_SET_LEVELS: done
(PID.TID 0000.0001)  Total Nb of available Diagnostics: ndiagt=   328
(PID.TID 0000.0001)  write list of available Diagnostics to file: available_diagnostics.log
(PID.TID 0000.0001) SETDIAG: Allocate  1 x  1 Levels for Diagnostic #   197 EXFtaux
(PID.TID 0000.0001) SETDIAG: Allocate  1 x  1 Levels for Diagnostic #   198 EXFtauy
(PID.TID 0000.0001) SETDIAG: Allocate  1 x  1 Levels for Diagnostic #   196 EXFqnet
(PID.TID 0000.0001) SETDIAG: Allocate  1 x  1 Levels for Diagnostic #   207 EXFempmr
(PID.TID 0000.0001) SETDIAG: Allocate  1 x  1 Levels for Diagnostic #   191 EXFhl
(PID.TID 0000.0001) SETDIAG: Allocate  1 x  1 Levels for Diagnostic #   190 EXFhs
(PID.TID 0000.0001) SETDIAG: Allocate  1 x  1 Levels for Diagnostic #   193 EXFswnet
(PID.TID 0000.0001) SETDIAG: Allocate  1 x  1 Levels for Diagnostic #   192 EXFlwnet
(PID.TID 0000.0001) SETDIAG: Allocate  1 x  1 Levels for Diagnostic #   199 EXFuwind
(PID.TID 0000.0001) SETDIAG: Allocate  1 x  1 Levels for Diagnostic #   200 EXFvwind
(PID.TID 0000.0001) SETDIAG: Allocate  1 x  1 Levels for Diagnostic #   202 EXFatemp
(PID.TID 0000.0001) SETDIAG: Allocate  1 x  1 Levels for Diagnostic #   251 SIarea
(PID.TID 0000.0001) SETDIAG: Allocate  1 x  1 Levels for Diagnostic #   254 SIheff
(PID.TID 0000.0001) SETDIAG: Allocate  1 x  1 Levels for Diagnostic #   256 SIhsnow
(PID.TID 0000.0001) SETDIAG: Allocate  1 x  1 Levels for Diagnostic #   268 SIuice
(PID.TID 0000.0001) SETDIAG: Allocate  1 x  1 Levels for Diagnostic #   269 SIvice
(PID.TID 0000.0001) SETDIAG: Allocate  1 x  1 Levels for Diagnostic #    76 MXLDEPTH
(PID.TID 0000.0001) SETDIAG: Allocate  1 x  1 Levels for Diagnostic #   216 KPPhbl
(PID.TID 0000.0001) SETDIAG: Allocate 23 x  1 Levels for Diagnostic #   215 KPPghatK
(PID.TID 0000.0001)   space allocated for all diagnostics:      41 levels
(PID.TID 0000.0001)   set mate pointer for diag #   268  SIuice   , Parms: UU      M1 , mate:   269
(PID.TID 0000.0001)   set mate pointer for diag #   269  SIvice   , Parms: VV      M1 , mate:   268
(PID.TID 0000.0001) DIAGNOSTICS_SET_POINTERS: Set levels for Outp.Stream: diagsEXF
(PID.TID 0000.0001)  Levels:       1.
(PID.TID 0000.0001) DIAGNOSTICS_SET_POINTERS: Set levels for Outp.Stream: diagsSI
(PID.TID 0000.0001)  Levels:       1.
(PID.TID 0000.0001) DIAGNOSTICS_SET_POINTERS: Set levels for Outp.Stream: diagsKPP
(PID.TID 0000.0001)  Levels:       1.
(PID.TID 0000.0001) DIAGNOSTICS_SET_POINTERS: Set levels for Outp.Stream: KPPghatK
(PID.TID 0000.0001)  Levels:       1.   2.   3.   4.   5.   6.   7.   8.   9.  10.  11.  12.  13.  14.  15.  16.  17.  18.  19.  20.
(PID.TID 0000.0001)  Levels:      21.  22.  23.
(PID.TID 0000.0001) DIAGNOSTICS_SET_POINTERS: done
(PID.TID 0000.0001) ------------------------------------------------------------
(PID.TID 0000.0001) DIAGSTATS_SET_REGIONS: define no region
(PID.TID 0000.0001) ------------------------------------------------------------
(PID.TID 0000.0001)   space allocated for all stats-diags:       0 levels
(PID.TID 0000.0001) DIAGSTATS_SET_POINTERS: done
(PID.TID 0000.0001) ------------------------------------------------------------
(PID.TID 0000.0001) %MON fCori_max                    =   1.4210453727344E-04
(PID.TID 0000.0001) %MON fCori_min                    =   1.0666243053630E-04
(PID.TID 0000.0001) %MON fCori_mean                   =   1.2711058365303E-04
(PID.TID 0000.0001) %MON fCori_sd                     =   1.1031533875266E-05
(PID.TID 0000.0001) %MON fCoriG_max                   =   1.4151032568025E-04
(PID.TID 0000.0001) %MON fCoriG_min                   =   1.0491029349513E-04
(PID.TID 0000.0001) %MON fCoriG_mean                  =   1.2591168756569E-04
(PID.TID 0000.0001) %MON fCoriG_sd                    =   1.1383815633153E-05
(PID.TID 0000.0001) %MON fCoriCos_max                 =   9.9464325599212E-05
(PID.TID 0000.0001) %MON fCoriCos_min                 =   3.2807417471054E-05
(PID.TID 0000.0001) %MON fCoriCos_mean                =   6.7585896192312E-05
(PID.TID 0000.0001) %MON fCoriCos_sd                  =   2.0576140902612E-05
(PID.TID 0000.0001) INI_CG2D: CG2D normalisation factor =  1.6094939840939192E-04
(PID.TID 0000.0001) 
(PID.TID 0000.0001) // =======================================================
(PID.TID 0000.0001) // Model configuration
(PID.TID 0000.0001) // =======================================================
(PID.TID 0000.0001) //
(PID.TID 0000.0001) // "Physical" paramters ( PARM01 in namelist )
(PID.TID 0000.0001) //
(PID.TID 0000.0001) buoyancyRelation = /* Type of relation to get Buoyancy */
(PID.TID 0000.0001)               'OCEANIC'
(PID.TID 0000.0001)     ;
(PID.TID 0000.0001) fluidIsAir   =  /* fluid major constituent is Air */
(PID.TID 0000.0001)                   F
(PID.TID 0000.0001)     ;
(PID.TID 0000.0001) fluidIsWater =  /* fluid major constituent is Water */
(PID.TID 0000.0001)                   T
(PID.TID 0000.0001)     ;
(PID.TID 0000.0001) usingPCoords =  /* use p (or p*) vertical coordinate */
(PID.TID 0000.0001)                   F
(PID.TID 0000.0001)     ;
(PID.TID 0000.0001) usingZCoords =  /* use z (or z*) vertical coordinate */
(PID.TID 0000.0001)                   T
(PID.TID 0000.0001)     ;
(PID.TID 0000.0001) tRef =   /* Reference temperature profile ( oC or K ) */
(PID.TID 0000.0001)                 2.400000000000000E+01,      /* K =  1 */
(PID.TID 0000.0001)                 2.300000000000000E+01,      /* K =  2 */
(PID.TID 0000.0001)                 2.200000000000000E+01,      /* K =  3 */
(PID.TID 0000.0001)                 2.100000000000000E+01,      /* K =  4 */
(PID.TID 0000.0001)                 2.000000000000000E+01,      /* K =  5 */
(PID.TID 0000.0001)                 1.900000000000000E+01,      /* K =  6 */
(PID.TID 0000.0001)                 1.800000000000000E+01,      /* K =  7 */
(PID.TID 0000.0001)                 1.700000000000000E+01,      /* K =  8 */
(PID.TID 0000.0001)                 1.600000000000000E+01,      /* K =  9 */
(PID.TID 0000.0001)                 1.500000000000000E+01,      /* K = 10 */
(PID.TID 0000.0001)                 1.400000000000000E+01,      /* K = 11 */
(PID.TID 0000.0001)                 1.300000000000000E+01,      /* K = 12 */
(PID.TID 0000.0001)                 1.200000000000000E+01,      /* K = 13 */
(PID.TID 0000.0001)                 1.100000000000000E+01,      /* K = 14 */
(PID.TID 0000.0001)                 1.000000000000000E+01,      /* K = 15 */
(PID.TID 0000.0001)                 9.000000000000000E+00,      /* K = 16 */
(PID.TID 0000.0001)                 8.000000000000000E+00,      /* K = 17 */
(PID.TID 0000.0001)                 7.000000000000000E+00,      /* K = 18 */
(PID.TID 0000.0001)                 6.000000000000000E+00,      /* K = 19 */
(PID.TID 0000.0001)                 5.000000000000000E+00,      /* K = 20 */
(PID.TID 0000.0001)                 4.000000000000000E+00,      /* K = 21 */
(PID.TID 0000.0001)                 3.000000000000000E+00,      /* K = 22 */
(PID.TID 0000.0001)                 2.000000000000000E+00       /* K = 23 */
(PID.TID 0000.0001)     ;
(PID.TID 0000.0001) sRef =   /* Reference salinity profile ( psu ) */
(PID.TID 0000.0001)                 3.465000000000000E+01,      /* K =  1 */
(PID.TID 0000.0001)                 3.475000000000000E+01,      /* K =  2 */
(PID.TID 0000.0001)                 3.482000000000000E+01,      /* K =  3 */
(PID.TID 0000.0001)                 3.487000000000000E+01,      /* K =  4 */
(PID.TID 0000.0001)     2 @  3.490000000000000E+01,             /* K =  5:  6 */
(PID.TID 0000.0001)                 3.486000000000000E+01,      /* K =  7 */
(PID.TID 0000.0001)                 3.478000000000000E+01,      /* K =  8 */
(PID.TID 0000.0001)                 3.469000000000000E+01,      /* K =  9 */
(PID.TID 0000.0001)                 3.460000000000000E+01,      /* K = 10 */
(PID.TID 0000.0001)                 3.458000000000000E+01,      /* K = 11 */
(PID.TID 0000.0001)                 3.462000000000000E+01,      /* K = 12 */
(PID.TID 0000.0001)                 3.468000000000000E+01,      /* K = 13 */
(PID.TID 0000.0001)                 3.472000000000000E+01,      /* K = 14 */
(PID.TID 0000.0001)                 3.473000000000000E+01,      /* K = 15 */
(PID.TID 0000.0001)                 3.474000000000000E+01,      /* K = 16 */
(PID.TID 0000.0001)     2 @  3.473000000000000E+01,             /* K = 17: 18 */
(PID.TID 0000.0001)     2 @  3.472000000000000E+01,             /* K = 19: 20 */
(PID.TID 0000.0001)                 3.471000000000000E+01,      /* K = 21 */
(PID.TID 0000.0001)                 3.470000000000000E+01,      /* K = 22 */
(PID.TID 0000.0001)                 3.469000000000000E+01       /* K = 23 */
(PID.TID 0000.0001)     ;
(PID.TID 0000.0001) useStrainTensionVisc= /* Use StrainTension Form of Viscous Operator */
(PID.TID 0000.0001)                   F
(PID.TID 0000.0001)     ;
(PID.TID 0000.0001) useVariableVisc = /* Use variable horizontal viscosity */
(PID.TID 0000.0001)                   F
(PID.TID 0000.0001)     ;
(PID.TID 0000.0001) useHarmonicVisc = /* Use harmonic horizontal viscosity */
(PID.TID 0000.0001)                   T
(PID.TID 0000.0001)     ;
(PID.TID 0000.0001) useBiharmonicVisc= /* Use biharmonic horiz.  viscosity */
(PID.TID 0000.0001)                   F
(PID.TID 0000.0001)     ;
(PID.TID 0000.0001) useSmag3D = /* Use isotropic 3-D Smagorinsky viscosity */
(PID.TID 0000.0001)                   F
(PID.TID 0000.0001)     ;
(PID.TID 0000.0001) viscAh  =   /* Lateral harmonic viscosity ( m^2/s ) */
(PID.TID 0000.0001)                 5.000000000000000E+04
(PID.TID 0000.0001)     ;
(PID.TID 0000.0001) viscA4  =   /* Lateral biharmonic viscosity ( m^4/s ) */
(PID.TID 0000.0001)                 0.000000000000000E+00
(PID.TID 0000.0001)     ;
(PID.TID 0000.0001) no_slip_sides =  /* Viscous BCs: No-slip sides */
(PID.TID 0000.0001)                   F
(PID.TID 0000.0001)     ;
(PID.TID 0000.0001) sideDragFactor = /* side-drag scaling factor (non-dim) */
(PID.TID 0000.0001)                 2.000000000000000E+00
(PID.TID 0000.0001)     ;
(PID.TID 0000.0001) viscArNr = /* vertical profile of vertical viscosity ( m^2/s )*/
(PID.TID 0000.0001)    23 @  1.930000000000000E-05              /* K =  1: 23 */
(PID.TID 0000.0001)     ;
(PID.TID 0000.0001) no_slip_bottom =  /* Viscous BCs: No-slip bottom */
(PID.TID 0000.0001)                   T
(PID.TID 0000.0001)     ;
(PID.TID 0000.0001) bottomVisc_pCell = /* Partial-cell in bottom Visc. BC */
(PID.TID 0000.0001)                   F
(PID.TID 0000.0001)     ;
(PID.TID 0000.0001) bottomDragLinear = /* linear bottom-drag coefficient ( m/s ) */
(PID.TID 0000.0001)                 0.000000000000000E+00
(PID.TID 0000.0001)     ;
(PID.TID 0000.0001) bottomDragQuadratic = /* quadratic bottom-drag coefficient (-) */
(PID.TID 0000.0001)                 0.000000000000000E+00
(PID.TID 0000.0001)     ;
(PID.TID 0000.0001) selectBotDragQuadr = /* select quadratic bottom drag options */
(PID.TID 0000.0001)                      -1
(PID.TID 0000.0001)     ;
(PID.TID 0000.0001) diffKhT =   /* Laplacian diffusion of heat laterally ( m^2/s ) */
(PID.TID 0000.0001)                 0.000000000000000E+00
(PID.TID 0000.0001)     ;
(PID.TID 0000.0001) diffK4T =   /* Biharmonic diffusion of heat laterally ( m^4/s ) */
(PID.TID 0000.0001)                 0.000000000000000E+00
(PID.TID 0000.0001)     ;
(PID.TID 0000.0001) diffKhS =   /* Laplacian diffusion of salt laterally ( m^2/s ) */
(PID.TID 0000.0001)                 0.000000000000000E+00
(PID.TID 0000.0001)     ;
(PID.TID 0000.0001) diffK4S =   /* Biharmonic diffusion of salt laterally ( m^4/s ) */
(PID.TID 0000.0001)                 0.000000000000000E+00
(PID.TID 0000.0001)     ;
(PID.TID 0000.0001) diffKrNrT = /* vertical profile of vertical diffusion of Temp ( m^2/s )*/
(PID.TID 0000.0001)    23 @  1.460000000000000E-05              /* K =  1: 23 */
(PID.TID 0000.0001)     ;
(PID.TID 0000.0001) diffKrNrS = /* vertical profile of vertical diffusion of Salt ( m^2/s )*/
(PID.TID 0000.0001)    23 @  1.460000000000000E-05              /* K =  1: 23 */
(PID.TID 0000.0001)     ;
(PID.TID 0000.0001) diffKrBL79surf = /* Surface diffusion for Bryan and Lewis 79 ( m^2/s ) */
(PID.TID 0000.0001)                 0.000000000000000E+00
(PID.TID 0000.0001)     ;
(PID.TID 0000.0001) diffKrBL79deep = /* Deep diffusion for Bryan and Lewis 1979 ( m^2/s ) */
(PID.TID 0000.0001)                 0.000000000000000E+00
(PID.TID 0000.0001)     ;
(PID.TID 0000.0001) diffKrBL79scl = /* Depth scale for Bryan and Lewis 1979 ( m ) */
(PID.TID 0000.0001)                 2.000000000000000E+02
(PID.TID 0000.0001)     ;
(PID.TID 0000.0001) diffKrBL79Ho = /* Turning depth for Bryan and Lewis 1979 ( m ) */
(PID.TID 0000.0001)                -2.000000000000000E+03
(PID.TID 0000.0001)     ;
(PID.TID 0000.0001) ivdc_kappa = /* Implicit Vertical Diffusivity for Convection ( m^2/s) */
(PID.TID 0000.0001)                 0.000000000000000E+00
(PID.TID 0000.0001)     ;
(PID.TID 0000.0001) hMixCriteria=  /* Criteria for mixed-layer diagnostic */
(PID.TID 0000.0001)                -8.000000000000000E-01
(PID.TID 0000.0001)     ;
(PID.TID 0000.0001) dRhoSmall =  /* Parameter for mixed-layer diagnostic */
(PID.TID 0000.0001)                 1.000000000000000E-06
(PID.TID 0000.0001)     ;
(PID.TID 0000.0001) hMixSmooth=  /* Smoothing parameter for mixed-layer diagnostic */
(PID.TID 0000.0001)                 0.000000000000000E+00
(PID.TID 0000.0001)     ;
(PID.TID 0000.0001) eosType =  /* Type of Equation of State */
(PID.TID 0000.0001)               'JMD95Z'
(PID.TID 0000.0001)     ;
(PID.TID 0000.0001) eosRefP0 = /* Reference atmospheric pressure for EOS ( Pa ) */
(PID.TID 0000.0001)                 1.013250000000000E+05
(PID.TID 0000.0001)     ;
(PID.TID 0000.0001) selectP_inEOS_Zc = /* select pressure to use in EOS (0,1,2,3) */
(PID.TID 0000.0001)                       0
(PID.TID 0000.0001)     0= -g*rhoConst*z ; 1= pRef (from tRef,sRef); 2= Hyd P ; 3= Hyd+NH P
(PID.TID 0000.0001)     ;
(PID.TID 0000.0001) surf_pRef = /* Surface reference pressure ( Pa ) */
(PID.TID 0000.0001)                 1.013250000000000E+05
(PID.TID 0000.0001)     ;
(PID.TID 0000.0001) HeatCapacity_Cp =  /* Specific heat capacity ( J/kg/K ) */
(PID.TID 0000.0001)                 3.986000000000000E+03
(PID.TID 0000.0001)     ;
(PID.TID 0000.0001) celsius2K = /* 0 degree Celsius converted to Kelvin ( K ) */
(PID.TID 0000.0001)                 2.731500000000000E+02
(PID.TID 0000.0001)     ;
(PID.TID 0000.0001) rhoConst  = /* Reference density (Boussinesq)  ( kg/m^3 ) */
(PID.TID 0000.0001)                 1.027000000000000E+03
(PID.TID 0000.0001)     ;
(PID.TID 0000.0001) rhoFacC = /* normalized Reference density @ cell-Center (-) */
(PID.TID 0000.0001)    23 @  1.000000000000000E+00              /* K =  1: 23 */
(PID.TID 0000.0001)     ;
(PID.TID 0000.0001) rhoFacF = /* normalized Reference density @ W-Interface (-) */
(PID.TID 0000.0001)    24 @  1.000000000000000E+00              /* K =  1: 24 */
(PID.TID 0000.0001)     ;
(PID.TID 0000.0001) rhoConstFresh = /* Fresh-water reference density ( kg/m^3 ) */
(PID.TID 0000.0001)                 9.998000000000000E+02
(PID.TID 0000.0001)     ;
(PID.TID 0000.0001) gravity =   /* Gravitational acceleration ( m/s^2 ) */
(PID.TID 0000.0001)                 9.815600000000000E+00
(PID.TID 0000.0001)     ;
(PID.TID 0000.0001) gBaro =   /* Barotropic gravity ( m/s^2 ) */
(PID.TID 0000.0001)                 9.815600000000000E+00
(PID.TID 0000.0001)     ;
(PID.TID 0000.0001) gravFacC = /* gravity factor (vs surf.) @ cell-Center (-) */
(PID.TID 0000.0001)    23 @  1.000000000000000E+00              /* K =  1: 23 */
(PID.TID 0000.0001)     ;
(PID.TID 0000.0001) gravFacF = /* gravity factor (vs surf.) @ W-Interface (-) */
(PID.TID 0000.0001)    24 @  1.000000000000000E+00              /* K =  1: 24 */
(PID.TID 0000.0001)     ;
(PID.TID 0000.0001) rotationPeriod =   /* Rotation Period ( s ) */
(PID.TID 0000.0001)                 8.616400000000000E+04
(PID.TID 0000.0001)     ;
(PID.TID 0000.0001) omega =   /* Angular velocity ( rad/s ) */
(PID.TID 0000.0001)                 7.292123516990375E-05
(PID.TID 0000.0001)     ;
(PID.TID 0000.0001) f0 =   /* Reference coriolis parameter ( 1/s ) */
(PID.TID 0000.0001)                 1.000000000000000E-04
(PID.TID 0000.0001)     ;
(PID.TID 0000.0001) beta =   /* Beta ( 1/(m.s) ) */
(PID.TID 0000.0001)                 9.999999999999999E-12
(PID.TID 0000.0001)     ;
(PID.TID 0000.0001) fPrime =   /* Second coriolis parameter ( 1/s ) */
(PID.TID 0000.0001)                 0.000000000000000E+00
(PID.TID 0000.0001)     ;
(PID.TID 0000.0001) rigidLid =   /* Rigid lid on/off flag */
(PID.TID 0000.0001)                   F
(PID.TID 0000.0001)     ;
(PID.TID 0000.0001) implicitFreeSurface =   /* Implicit free surface on/off flag */
(PID.TID 0000.0001)                   T
(PID.TID 0000.0001)     ;
(PID.TID 0000.0001) freeSurfFac =   /* Implicit free surface factor */
(PID.TID 0000.0001)                 1.000000000000000E+00
(PID.TID 0000.0001)     ;
(PID.TID 0000.0001) implicSurfPress =  /* Surface Pressure implicit factor (0-1)*/
(PID.TID 0000.0001)                 1.000000000000000E+00
(PID.TID 0000.0001)     ;
(PID.TID 0000.0001) implicDiv2DFlow =  /* Barot. Flow Div. implicit factor (0-1)*/
(PID.TID 0000.0001)                 1.000000000000000E+00
(PID.TID 0000.0001)     ;
(PID.TID 0000.0001) uniformLin_PhiSurf = /* use uniform Bo_surf on/off flag*/
(PID.TID 0000.0001)                   T
(PID.TID 0000.0001)     ;
(PID.TID 0000.0001) uniformFreeSurfLev = /* free-surface level-index is uniform */
(PID.TID 0000.0001)                   T
(PID.TID 0000.0001)     ;
(PID.TID 0000.0001) hFacMin =   /* minimum partial cell factor (hFac) */
(PID.TID 0000.0001)                 1.000000000000000E+00
(PID.TID 0000.0001)     ;
(PID.TID 0000.0001) hFacMinDr = /* minimum partial cell thickness ( m) */
(PID.TID 0000.0001)                 0.000000000000000E+00
(PID.TID 0000.0001)     ;
(PID.TID 0000.0001) exactConserv =  /* Exact Volume Conservation on/off flag*/
(PID.TID 0000.0001)                   F
(PID.TID 0000.0001)     ;
(PID.TID 0000.0001) linFSConserveTr = /* Tracer correction for Lin Free Surface on/off flag*/
(PID.TID 0000.0001)                   F
(PID.TID 0000.0001)     ;
(PID.TID 0000.0001) nonlinFreeSurf = /* Non-linear Free Surf. options (-1,0,1,2,3)*/
(PID.TID 0000.0001)                       0
(PID.TID 0000.0001)      -1,0= Off ; 1,2,3= On, 2=+rescale gU,gV, 3=+update cg2d solv.
(PID.TID 0000.0001)     ;
(PID.TID 0000.0001) hFacInf =   /* lower threshold for hFac (nonlinFreeSurf only)*/
(PID.TID 0000.0001)                 2.000000000000000E-01
(PID.TID 0000.0001)     ;
(PID.TID 0000.0001) hFacSup =   /* upper threshold for hFac (nonlinFreeSurf only)*/
(PID.TID 0000.0001)                 2.000000000000000E+00
(PID.TID 0000.0001)     ;
(PID.TID 0000.0001) select_rStar = /* r* Vertical coord. options (=0 r coord.; >0 uses r*)*/
(PID.TID 0000.0001)                       0
(PID.TID 0000.0001)     ;
(PID.TID 0000.0001) useRealFreshWaterFlux = /* Real Fresh Water Flux on/off flag*/
(PID.TID 0000.0001)                   F
(PID.TID 0000.0001)     ;
(PID.TID 0000.0001) temp_EvPrRn = /* Temp. of Evap/Prec/R (UNSET=use local T)(oC)*/
(PID.TID 0000.0001)                 1.234567000000000E+05
(PID.TID 0000.0001)     ;
(PID.TID 0000.0001) salt_EvPrRn = /* Salin. of Evap/Prec/R (UNSET=use local S)(psu)*/
(PID.TID 0000.0001)                 0.000000000000000E+00
(PID.TID 0000.0001)     ;
(PID.TID 0000.0001) selectAddFluid = /* option for mass source/sink of fluid (=0: off) */
(PID.TID 0000.0001)                       0
(PID.TID 0000.0001)     ;
(PID.TID 0000.0001) temp_addMass = /* Temp. of addMass array (UNSET=use local T)(oC)*/
(PID.TID 0000.0001)                 1.234567000000000E+05
(PID.TID 0000.0001)     ;
(PID.TID 0000.0001) salt_addMass = /* Salin. of addMass array (UNSET=use local S)(psu)*/
(PID.TID 0000.0001)                 0.000000000000000E+00
(PID.TID 0000.0001)     ;
(PID.TID 0000.0001) convertFW2Salt = /* convert F.W. Flux to Salt Flux (-1=use local S)(psu)*/
(PID.TID 0000.0001)                 3.500000000000000E+01
(PID.TID 0000.0001)     ;
(PID.TID 0000.0001) use3Dsolver = /* use 3-D pressure solver on/off flag */
(PID.TID 0000.0001)                   F
(PID.TID 0000.0001)     ;
(PID.TID 0000.0001) nonHydrostatic =  /* Non-Hydrostatic on/off flag */
(PID.TID 0000.0001)                   F
(PID.TID 0000.0001)     ;
(PID.TID 0000.0001) nh_Am2 = /* Non-Hydrostatic terms scaling factor */
(PID.TID 0000.0001)                 1.000000000000000E+00
(PID.TID 0000.0001)     ;
(PID.TID 0000.0001) implicitNHPress = /* Non-Hyd Pressure implicit factor (0-1)*/
(PID.TID 0000.0001)                 1.000000000000000E+00
(PID.TID 0000.0001)     ;
(PID.TID 0000.0001) selectNHfreeSurf = /* Non-Hyd (free-)Surface option */
(PID.TID 0000.0001)                       0
(PID.TID 0000.0001)     ;
(PID.TID 0000.0001) quasiHydrostatic = /* Quasi-Hydrostatic on/off flag */
(PID.TID 0000.0001)                   F
(PID.TID 0000.0001)     ;
(PID.TID 0000.0001) calc_wVelocity = /* vertical velocity calculation on/off flag */
(PID.TID 0000.0001)                   T
(PID.TID 0000.0001)     ;
(PID.TID 0000.0001) momStepping =  /* Momentum equation on/off flag */
(PID.TID 0000.0001)                   T
(PID.TID 0000.0001)     ;
(PID.TID 0000.0001) vectorInvariantMomentum= /* Vector-Invariant Momentum on/off */
(PID.TID 0000.0001)                   F
(PID.TID 0000.0001)     ;
(PID.TID 0000.0001) momAdvection =  /* Momentum advection on/off flag */
(PID.TID 0000.0001)                   T
(PID.TID 0000.0001)     ;
(PID.TID 0000.0001) momViscosity =  /* Momentum viscosity on/off flag */
(PID.TID 0000.0001)                   T
(PID.TID 0000.0001)     ;
(PID.TID 0000.0001) momImplVertAdv= /* Momentum implicit vert. advection on/off*/
(PID.TID 0000.0001)                   F
(PID.TID 0000.0001)     ;
(PID.TID 0000.0001) implicitViscosity = /* Implicit viscosity on/off flag */
(PID.TID 0000.0001)                   T
(PID.TID 0000.0001)     ;
(PID.TID 0000.0001) selectImplicitDrag= /* Implicit bot Drag options (0,1,2)*/
(PID.TID 0000.0001)                       0
(PID.TID 0000.0001)     0= Expl. ; 1= Impl. on provis. Vel ; 2= Fully Impl (with surf.P)
(PID.TID 0000.0001)     ;
(PID.TID 0000.0001) metricTerms =  /* metric-Terms on/off flag */
(PID.TID 0000.0001)                   T
(PID.TID 0000.0001)     ;
(PID.TID 0000.0001) useNHMTerms = /* Non-Hydrostatic Metric-Terms on/off */
(PID.TID 0000.0001)                   F
(PID.TID 0000.0001)     ;
(PID.TID 0000.0001) selectCoriMap = /* Coriolis Map options (0,1,2,3)*/
(PID.TID 0000.0001)                       2
(PID.TID 0000.0001)     0= f-Plane ; 1= Beta-Plane ; 2= Spherical ; 3= read from file
(PID.TID 0000.0001)     ;
(PID.TID 0000.0001) use3dCoriolis = /* 3-D Coriolis on/off flag */
(PID.TID 0000.0001)                   F
(PID.TID 0000.0001)     ;
(PID.TID 0000.0001) useCoriolis =  /* Coriolis on/off flag */
(PID.TID 0000.0001)                   T
(PID.TID 0000.0001)     ;
(PID.TID 0000.0001) useCDscheme =  /* CD scheme on/off flag */
(PID.TID 0000.0001)                   T
(PID.TID 0000.0001)     ;
(PID.TID 0000.0001) selectCoriScheme= /* Scheme selector for Coriolis-Term */
(PID.TID 0000.0001)                       0
(PID.TID 0000.0001)    = 0 : original discretization (simple averaging, no hFac)
(PID.TID 0000.0001)    = 1 : Wet-point averaging (Jamar & Ozer 1986)
(PID.TID 0000.0001)    = 2 : energy conserving scheme (no hFac weight)
(PID.TID 0000.0001)    = 3 : energy conserving scheme using Wet-point averaging
(PID.TID 0000.0001)     ;
(PID.TID 0000.0001) momForcing =  /* Momentum forcing on/off flag */
(PID.TID 0000.0001)                   T
(PID.TID 0000.0001)     ;
(PID.TID 0000.0001) momTidalForcing = /* Momentum Tidal forcing on/off flag */
(PID.TID 0000.0001)                   T
(PID.TID 0000.0001)     ;
(PID.TID 0000.0001) momPressureForcing =  /* Momentum pressure term on/off flag */
(PID.TID 0000.0001)                   T
(PID.TID 0000.0001)     ;
(PID.TID 0000.0001) implicitIntGravWave= /* Implicit Internal Gravity Wave flag */
(PID.TID 0000.0001)                   F
(PID.TID 0000.0001)     ;
(PID.TID 0000.0001) staggerTimeStep =    /* Stagger time stepping on/off flag */
(PID.TID 0000.0001)                   F
(PID.TID 0000.0001)     ;
(PID.TID 0000.0001) doResetHFactors = /* reset thickness factors @ each time-step */
(PID.TID 0000.0001)                   F
(PID.TID 0000.0001)     ;
(PID.TID 0000.0001) multiDimAdvection =  /* enable/disable Multi-Dim Advection */
(PID.TID 0000.0001)                   T
(PID.TID 0000.0001)     ;
(PID.TID 0000.0001) useMultiDimAdvec =   /* Multi-Dim Advection is/is-not used */
(PID.TID 0000.0001)                   F
(PID.TID 0000.0001)     ;
(PID.TID 0000.0001) implicitDiffusion = /* Implicit Diffusion on/off flag */
(PID.TID 0000.0001)                   T
(PID.TID 0000.0001)     ;
(PID.TID 0000.0001) tempStepping =  /* Temperature equation on/off flag */
(PID.TID 0000.0001)                   T
(PID.TID 0000.0001)     ;
(PID.TID 0000.0001) tempAdvection = /* Temperature advection on/off flag */
(PID.TID 0000.0001)                   T
(PID.TID 0000.0001)     ;
(PID.TID 0000.0001) tempImplVertAdv = /* Temp. implicit vert. advection on/off */
(PID.TID 0000.0001)                   F
(PID.TID 0000.0001)     ;
(PID.TID 0000.0001) tempForcing  =  /* Temperature forcing on/off flag */
(PID.TID 0000.0001)                   T
(PID.TID 0000.0001)     ;
(PID.TID 0000.0001) doThetaClimRelax = /* apply SST relaxation on/off flag */
(PID.TID 0000.0001)                   F
(PID.TID 0000.0001)     ;
(PID.TID 0000.0001) tempIsActiveTr = /* Temp. is a dynamically Active Tracer */
(PID.TID 0000.0001)                   T
(PID.TID 0000.0001)     ;
(PID.TID 0000.0001) saltStepping =  /* Salinity equation on/off flag */
(PID.TID 0000.0001)                   T
(PID.TID 0000.0001)     ;
(PID.TID 0000.0001) saltAdvection = /* Salinity advection on/off flag */
(PID.TID 0000.0001)                   T
(PID.TID 0000.0001)     ;
(PID.TID 0000.0001) saltImplVertAdv = /* Sali. implicit vert. advection on/off */
(PID.TID 0000.0001)                   F
(PID.TID 0000.0001)     ;
(PID.TID 0000.0001) saltForcing  =  /* Salinity forcing on/off flag */
(PID.TID 0000.0001)                   T
(PID.TID 0000.0001)     ;
(PID.TID 0000.0001) doSaltClimRelax = /* apply SSS relaxation on/off flag */
(PID.TID 0000.0001)                   T
(PID.TID 0000.0001)     ;
(PID.TID 0000.0001) saltIsActiveTr = /* Salt  is a dynamically Active Tracer */
(PID.TID 0000.0001)                   T
(PID.TID 0000.0001)     ;
(PID.TID 0000.0001)  readBinaryPrec = /* Precision used for reading binary files */
(PID.TID 0000.0001)                      32
(PID.TID 0000.0001)     ;
(PID.TID 0000.0001) writeBinaryPrec = /* Precision used for writing binary files */
(PID.TID 0000.0001)                      32
(PID.TID 0000.0001)     ;
(PID.TID 0000.0001)  rwSuffixType =   /* select format of mds file suffix */
(PID.TID 0000.0001)                       0
(PID.TID 0000.0001)    = 0 : myIter (I10.10) ;   = 1 : 100*myTime (100th sec) ;
(PID.TID 0000.0001)    = 2 : myTime (seconds);   = 3 : myTime/360 (10th of hr);
(PID.TID 0000.0001)    = 4 : myTime/3600 (hours)
(PID.TID 0000.0001)     ;
(PID.TID 0000.0001)  globalFiles = /* write "global" (=not per tile) files */
(PID.TID 0000.0001)                   F
(PID.TID 0000.0001)     ;
(PID.TID 0000.0001)  useSingleCpuIO = /* only master MPI process does I/O */
(PID.TID 0000.0001)                   T
(PID.TID 0000.0001)     ;
(PID.TID 0000.0001)  useSingleCpuInput = /* only master process reads input */
(PID.TID 0000.0001)                   T
(PID.TID 0000.0001)     ;
(PID.TID 0000.0001) /* debLev[*]  : level of debug & auxiliary message printing */
(PID.TID 0000.0001) debLevZero =  0 ; /* level of disabled aux. msg printing */
(PID.TID 0000.0001)    debLevA =  1 ; /* level of minimum  aux. msg printing */
(PID.TID 0000.0001)    debLevB =  2 ; /* level of low aux. print (report read-file opening)*/
(PID.TID 0000.0001)    debLevC =  3 ; /* level of moderate debug prt (most pkgs debug msg) */
(PID.TID 0000.0001)    debLevD =  4 ; /* level of enhanced debug prt (add DEBUG_STATS prt) */
(PID.TID 0000.0001)    debLevE =  5 ; /* level of extensive debug printing */
(PID.TID 0000.0001) debugLevel =  /* select debug printing level */
(PID.TID 0000.0001)                       2
(PID.TID 0000.0001)     ;
(PID.TID 0000.0001)  plotLevel =  /* select PLOT_FIELD printing level */
(PID.TID 0000.0001)                       2
(PID.TID 0000.0001)     ;
(PID.TID 0000.0001) //
(PID.TID 0000.0001) // Elliptic solver(s) paramters ( PARM02 in namelist )
(PID.TID 0000.0001) //
(PID.TID 0000.0001) cg2dMaxIters =   /* Upper limit on 2d con. grad iterations  */
(PID.TID 0000.0001)                     500
(PID.TID 0000.0001)     ;
(PID.TID 0000.0001) cg2dChkResFreq =   /* 2d con. grad convergence test frequency */
(PID.TID 0000.0001)                       1
(PID.TID 0000.0001)     ;
(PID.TID 0000.0001) cg2dUseMinResSol= /* use cg2d last-iter(=0) / min-resid.(=1) solution */
(PID.TID 0000.0001)                       0
(PID.TID 0000.0001)     ;
(PID.TID 0000.0001) cg2dTargetResidual =   /* 2d con. grad target residual  */
(PID.TID 0000.0001)                 1.000000000000000E-12
(PID.TID 0000.0001)     ;
(PID.TID 0000.0001) cg2dTargetResWunit =   /* CG2d target residual [W units] */
(PID.TID 0000.0001)                -1.000000000000000E+00
(PID.TID 0000.0001)     ;
(PID.TID 0000.0001) cg2dPreCondFreq =   /* Freq. for updating cg2d preconditioner */
(PID.TID 0000.0001)                       1
(PID.TID 0000.0001)     ;
(PID.TID 0000.0001) useSRCGSolver =  /* use single reduction CG solver(s) */
(PID.TID 0000.0001)                   F
(PID.TID 0000.0001)     ;
(PID.TID 0000.0001) printResidualFreq = /* Freq. for printing CG residual */
(PID.TID 0000.0001)                       0
(PID.TID 0000.0001)     ;
(PID.TID 0000.0001) //
(PID.TID 0000.0001) // Time stepping paramters ( PARM03 in namelist )
(PID.TID 0000.0001) //
(PID.TID 0000.0001) deltaTMom =   /* Momentum equation timestep ( s ) */
(PID.TID 0000.0001)                 3.600000000000000E+03
(PID.TID 0000.0001)     ;
(PID.TID 0000.0001) deltaTFreeSurf = /* FreeSurface equation timestep ( s ) */
(PID.TID 0000.0001)                 3.600000000000000E+03
(PID.TID 0000.0001)     ;
(PID.TID 0000.0001) dTtracerLev =  /* Tracer equation timestep ( s ) */
(PID.TID 0000.0001)    23 @  3.600000000000000E+03              /* K =  1: 23 */
(PID.TID 0000.0001)     ;
(PID.TID 0000.0001) deltaTClock  =   /* Model clock timestep ( s ) */
(PID.TID 0000.0001)                 3.600000000000000E+03
(PID.TID 0000.0001)     ;
(PID.TID 0000.0001) cAdjFreq =   /* Convective adjustment interval ( s ) */
(PID.TID 0000.0001)                 0.000000000000000E+00
(PID.TID 0000.0001)     ;
(PID.TID 0000.0001) momForcingOutAB = /* =1: take Momentum Forcing out of Adams-Bash. stepping */
(PID.TID 0000.0001)                       1
(PID.TID 0000.0001)     ;
(PID.TID 0000.0001) tracForcingOutAB = /* =1: take T,S,pTr Forcing out of Adams-Bash. stepping */
(PID.TID 0000.0001)                       1
(PID.TID 0000.0001)     ;
(PID.TID 0000.0001) momDissip_In_AB = /* put Dissipation Tendency in Adams-Bash. stepping */
(PID.TID 0000.0001)                   T
(PID.TID 0000.0001)     ;
(PID.TID 0000.0001) doAB_onGtGs = /* apply AB on Tendencies (rather than on T,S)*/
(PID.TID 0000.0001)                   T
(PID.TID 0000.0001)     ;
(PID.TID 0000.0001) abEps =   /* Adams-Bashforth-2 stabilizing weight */
(PID.TID 0000.0001)                 1.000000000000000E-01
(PID.TID 0000.0001)     ;
(PID.TID 0000.0001) applyExchUV_early = /* Apply EXCH to U,V earlier in time-step */
(PID.TID 0000.0001)                   F
(PID.TID 0000.0001)     ;
(PID.TID 0000.0001) tauCD =   /* CD coupling time-scale ( s ) */
(PID.TID 0000.0001)                 1.728000000000000E+05
(PID.TID 0000.0001)     ;
(PID.TID 0000.0001) rCD =   /* Normalised CD coupling parameter */
(PID.TID 0000.0001)                 9.791666666666666E-01
(PID.TID 0000.0001)     ;
(PID.TID 0000.0001) epsAB_CD = /* AB-2 stabilizing weight for CD-scheme*/
(PID.TID 0000.0001)                 1.000000000000000E-01
(PID.TID 0000.0001)     ;
(PID.TID 0000.0001) pickupStrictlyMatch= /* stop if pickup do not strictly match */
(PID.TID 0000.0001)                   T
(PID.TID 0000.0001)     ;
(PID.TID 0000.0001) nIter0   =   /* Run starting timestep number */
(PID.TID 0000.0001)                       0
(PID.TID 0000.0001)     ;
(PID.TID 0000.0001) nTimeSteps = /* Number of timesteps */
(PID.TID 0000.0001)                      10
(PID.TID 0000.0001)     ;
(PID.TID 0000.0001) nEndIter =   /* Run ending timestep number */
(PID.TID 0000.0001)                      10
(PID.TID 0000.0001)     ;
(PID.TID 0000.0001) baseTime =   /* Model base time ( s ) */
(PID.TID 0000.0001)                 0.000000000000000E+00
(PID.TID 0000.0001)     ;
(PID.TID 0000.0001) startTime =  /* Run start time ( s ) */
(PID.TID 0000.0001)                 0.000000000000000E+00
(PID.TID 0000.0001)     ;
(PID.TID 0000.0001) endTime  =   /* Integration ending time ( s ) */
(PID.TID 0000.0001)                 3.600000000000000E+04
(PID.TID 0000.0001)     ;
(PID.TID 0000.0001) pChkPtFreq = /* Permanent restart/pickup file interval ( s ) */
(PID.TID 0000.0001)                 3.600000000000000E+04
(PID.TID 0000.0001)     ;
(PID.TID 0000.0001) chkPtFreq  = /* Rolling restart/pickup file interval ( s ) */
(PID.TID 0000.0001)                 0.000000000000000E+00
(PID.TID 0000.0001)     ;
(PID.TID 0000.0001) pickup_write_mdsio =   /* Model IO flag. */
(PID.TID 0000.0001)                   T
(PID.TID 0000.0001)     ;
(PID.TID 0000.0001) pickup_read_mdsio =   /* Model IO flag. */
(PID.TID 0000.0001)                   T
(PID.TID 0000.0001)     ;
(PID.TID 0000.0001) pickup_write_mnc =   /* Model IO flag. */
(PID.TID 0000.0001)                   F
(PID.TID 0000.0001)     ;
(PID.TID 0000.0001) pickup_read_mnc =   /* Model IO flag. */
(PID.TID 0000.0001)                   F
(PID.TID 0000.0001)     ;
(PID.TID 0000.0001) writePickupAtEnd =   /* Model IO flag. */
(PID.TID 0000.0001)                   T
(PID.TID 0000.0001)     ;
(PID.TID 0000.0001) dumpFreq =   /* Model state write out interval ( s ). */
(PID.TID 0000.0001)                 0.000000000000000E+00
(PID.TID 0000.0001)     ;
(PID.TID 0000.0001) dumpInitAndLast= /* write out Initial & Last iter. model state */
(PID.TID 0000.0001)                   T
(PID.TID 0000.0001)     ;
(PID.TID 0000.0001) snapshot_mdsio =   /* Model IO flag. */
(PID.TID 0000.0001)                   T
(PID.TID 0000.0001)     ;
(PID.TID 0000.0001) snapshot_mnc =   /* Model IO flag. */
(PID.TID 0000.0001)                   F
(PID.TID 0000.0001)     ;
(PID.TID 0000.0001) monitorFreq =   /* Monitor output interval ( s ). */
(PID.TID 0000.0001)                 1.000000000000000E+00
(PID.TID 0000.0001)     ;
(PID.TID 0000.0001) monitorSelect = /* select group of variables to monitor */
(PID.TID 0000.0001)                       3
(PID.TID 0000.0001)     ;
(PID.TID 0000.0001) monitor_stdio =   /* Model IO flag. */
(PID.TID 0000.0001)                   T
(PID.TID 0000.0001)     ;
(PID.TID 0000.0001) monitor_mnc =   /* Model IO flag. */
(PID.TID 0000.0001)                   F
(PID.TID 0000.0001)     ;
(PID.TID 0000.0001) externForcingPeriod =   /* forcing period (s) */
(PID.TID 0000.0001)                 0.000000000000000E+00
(PID.TID 0000.0001)     ;
(PID.TID 0000.0001) externForcingCycle =   /* period of the cyle (s). */
(PID.TID 0000.0001)                 0.000000000000000E+00
(PID.TID 0000.0001)     ;
(PID.TID 0000.0001) tauThetaClimRelax =   /* relaxation time scale (s) */
(PID.TID 0000.0001)                 0.000000000000000E+00
(PID.TID 0000.0001)     ;
(PID.TID 0000.0001) tauSaltClimRelax =   /* relaxation time scale (s) */
(PID.TID 0000.0001)                 4.142330000000000E+06
(PID.TID 0000.0001)     ;
(PID.TID 0000.0001) latBandClimRelax =   /* max. Lat. where relaxation */
(PID.TID 0000.0001)                 1.800000000000000E+02
(PID.TID 0000.0001)     ;
(PID.TID 0000.0001) //
(PID.TID 0000.0001) // Gridding paramters ( PARM04 in namelist )
(PID.TID 0000.0001) //
(PID.TID 0000.0001) usingCartesianGrid = /* Cartesian coordinates flag ( True/False ) */
(PID.TID 0000.0001)                   F
(PID.TID 0000.0001)     ;
(PID.TID 0000.0001) usingCylindricalGrid = /* Cylindrical coordinates flag ( True/False ) */
(PID.TID 0000.0001)                   F
(PID.TID 0000.0001)     ;
(PID.TID 0000.0001) usingSphericalPolarGrid = /* Spherical coordinates flag ( True/False ) */
(PID.TID 0000.0001)                   T
(PID.TID 0000.0001)     ;
(PID.TID 0000.0001) usingCurvilinearGrid = /* Curvilinear coordinates flag ( True/False ) */
(PID.TID 0000.0001)                   F
(PID.TID 0000.0001)     ;
(PID.TID 0000.0001) useMin4hFacEdges = /* set hFacW,S as minimum of adjacent hFacC factor */
(PID.TID 0000.0001)                   F
(PID.TID 0000.0001)     ;
(PID.TID 0000.0001) interViscAr_pCell = /* account for partial-cell in interior vert. viscosity */
(PID.TID 0000.0001)                   F
(PID.TID 0000.0001)     ;
(PID.TID 0000.0001) interDiffKr_pCell = /* account for partial-cell in interior vert. diffusion */
(PID.TID 0000.0001)                   F
(PID.TID 0000.0001)     ;
(PID.TID 0000.0001) pCellMix_select = /* option to enhance mixing near surface & bottom */
(PID.TID 0000.0001)                       0
(PID.TID 0000.0001)     ;
(PID.TID 0000.0001) selectSigmaCoord = /* Hybrid-Sigma Vert. Coordinate option */
(PID.TID 0000.0001)                       0
(PID.TID 0000.0001)     ;
(PID.TID 0000.0001) rSigmaBnd = /* r/sigma transition ( units of r ==  m ) */
(PID.TID 0000.0001)                 1.234567000000000E+05
(PID.TID 0000.0001)     ;
(PID.TID 0000.0001) rkSign =   /* index orientation relative to vertical coordinate */
(PID.TID 0000.0001)                -1.000000000000000E+00
(PID.TID 0000.0001)     ;
(PID.TID 0000.0001) gravitySign = /* gravity orientation relative to vertical coordinate */
(PID.TID 0000.0001)                -1.000000000000000E+00
(PID.TID 0000.0001)     ;
(PID.TID 0000.0001) seaLev_Z =  /* reference height of sea-level [m] */
(PID.TID 0000.0001)                 0.000000000000000E+00
(PID.TID 0000.0001)     ;
(PID.TID 0000.0001) top_Pres =  /* reference pressure at the top [Pa] */
(PID.TID 0000.0001)                 0.000000000000000E+00
(PID.TID 0000.0001)     ;
(PID.TID 0000.0001) mass2rUnit = /* convert mass per unit area [kg/m2] to r-units [m] */
(PID.TID 0000.0001)                 9.737098344693282E-04
(PID.TID 0000.0001)     ;
(PID.TID 0000.0001) rUnit2mass = /* convert r-units [m] to mass per unit area [kg/m2] */
(PID.TID 0000.0001)                 1.027000000000000E+03
(PID.TID 0000.0001)     ;
(PID.TID 0000.0001) drC =   /* C spacing ( units of r ) */
(PID.TID 0000.0001)                 5.000000000000000E+00,      /* K =  1 */
(PID.TID 0000.0001)                 1.000000000000000E+01,      /* K =  2 */
(PID.TID 0000.0001)                 1.250000000000000E+01,      /* K =  3 */
(PID.TID 0000.0001)                 1.750000000000000E+01,      /* K =  4 */
(PID.TID 0000.0001)                 2.000000000000000E+01,      /* K =  5 */
(PID.TID 0000.0001)                 2.250000000000000E+01,      /* K =  6 */
(PID.TID 0000.0001)                 3.000000000000000E+01,      /* K =  7 */
(PID.TID 0000.0001)                 4.250000000000000E+01,      /* K =  8 */
(PID.TID 0000.0001)                 6.250000000000000E+01,      /* K =  9 */
(PID.TID 0000.0001)                 8.750000000000000E+01,      /* K = 10 */
(PID.TID 0000.0001)                 1.250000000000000E+02,      /* K = 11 */
(PID.TID 0000.0001)                 1.750000000000000E+02,      /* K = 12 */
(PID.TID 0000.0001)                 2.375000000000000E+02,      /* K = 13 */
(PID.TID 0000.0001)                 3.125000000000000E+02,      /* K = 14 */
(PID.TID 0000.0001)                 3.825000000000000E+02,      /* K = 15 */
(PID.TID 0000.0001)                 4.325000000000000E+02,      /* K = 16 */
(PID.TID 0000.0001)                 4.750000000000000E+02,      /* K = 17 */
(PID.TID 0000.0001)     6 @  5.000000000000000E+02,             /* K = 18: 23 */
(PID.TID 0000.0001)                 2.500000000000000E+02       /* K = 24 */
(PID.TID 0000.0001)     ;
(PID.TID 0000.0001) drF =   /* W spacing ( units of r ) */
(PID.TID 0000.0001)     2 @  1.000000000000000E+01,             /* K =  1:  2 */
(PID.TID 0000.0001)                 1.500000000000000E+01,      /* K =  3 */
(PID.TID 0000.0001)     2 @  2.000000000000000E+01,             /* K =  4:  5 */
(PID.TID 0000.0001)                 2.500000000000000E+01,      /* K =  6 */
(PID.TID 0000.0001)                 3.500000000000000E+01,      /* K =  7 */
(PID.TID 0000.0001)                 5.000000000000000E+01,      /* K =  8 */
(PID.TID 0000.0001)                 7.500000000000000E+01,      /* K =  9 */
(PID.TID 0000.0001)                 1.000000000000000E+02,      /* K = 10 */
(PID.TID 0000.0001)                 1.500000000000000E+02,      /* K = 11 */
(PID.TID 0000.0001)                 2.000000000000000E+02,      /* K = 12 */
(PID.TID 0000.0001)                 2.750000000000000E+02,      /* K = 13 */
(PID.TID 0000.0001)                 3.500000000000000E+02,      /* K = 14 */
(PID.TID 0000.0001)                 4.150000000000000E+02,      /* K = 15 */
(PID.TID 0000.0001)                 4.500000000000000E+02,      /* K = 16 */
(PID.TID 0000.0001)     7 @  5.000000000000000E+02              /* K = 17: 23 */
(PID.TID 0000.0001)     ;
(PID.TID 0000.0001) delX = /* U spacing ( m - cartesian, degrees - spherical ) */
(PID.TID 0000.0001)    20 @  2.000000000000000E+00              /* I =  1: 20 */
(PID.TID 0000.0001)     ;
(PID.TID 0000.0001) delY = /* V spacing ( m - cartesian, degrees - spherical ) */
(PID.TID 0000.0001)    16 @  2.000000000000000E+00              /* J =  1: 16 */
(PID.TID 0000.0001)     ;
(PID.TID 0000.0001) xgOrigin = /* X-axis origin of West  edge (cartesian: m, lat-lon: deg) */
(PID.TID 0000.0001)                 2.800000000000000E+02
(PID.TID 0000.0001)     ;
(PID.TID 0000.0001) ygOrigin = /* Y-axis origin of South edge (cartesian: m, lat-lon: deg) */
(PID.TID 0000.0001)                 4.600000000000000E+01
(PID.TID 0000.0001)     ;
(PID.TID 0000.0001) rSphere =  /* Radius ( ignored - cartesian, m - spherical ) */
(PID.TID 0000.0001)                 6.371000000000000E+06
(PID.TID 0000.0001)     ;
(PID.TID 0000.0001) deepAtmosphere = /* Deep/Shallow Atmosphere flag (True/False) */
(PID.TID 0000.0001)                   F
(PID.TID 0000.0001)     ;
(PID.TID 0000.0001) xC =  /* xC(:,1,:,1) : P-point X coord ( deg. or m if cartesian) */
(PID.TID 0000.0001)                 2.810000000000000E+02,      /* I =  1 */
(PID.TID 0000.0001)                 2.830000000000000E+02,      /* I =  2 */
(PID.TID 0000.0001)                 2.850000000000000E+02,      /* I =  3 */
(PID.TID 0000.0001)                 2.870000000000000E+02,      /* I =  4 */
(PID.TID 0000.0001)                 2.890000000000000E+02,      /* I =  5 */
(PID.TID 0000.0001)                 2.910000000000000E+02,      /* I =  6 */
(PID.TID 0000.0001)                 2.930000000000000E+02,      /* I =  7 */
(PID.TID 0000.0001)                 2.950000000000000E+02,      /* I =  8 */
(PID.TID 0000.0001)                 2.970000000000000E+02,      /* I =  9 */
(PID.TID 0000.0001)                 2.990000000000000E+02,      /* I = 10 */
(PID.TID 0000.0001)                 3.010000000000000E+02,      /* I = 11 */
(PID.TID 0000.0001)                 3.030000000000000E+02,      /* I = 12 */
(PID.TID 0000.0001)                 3.050000000000000E+02,      /* I = 13 */
(PID.TID 0000.0001)                 3.070000000000000E+02,      /* I = 14 */
(PID.TID 0000.0001)                 3.090000000000000E+02,      /* I = 15 */
(PID.TID 0000.0001)                 3.110000000000000E+02,      /* I = 16 */
(PID.TID 0000.0001)                 3.130000000000000E+02,      /* I = 17 */
(PID.TID 0000.0001)                 3.150000000000000E+02,      /* I = 18 */
(PID.TID 0000.0001)                 3.170000000000000E+02,      /* I = 19 */
(PID.TID 0000.0001)                 3.190000000000000E+02       /* I = 20 */
(PID.TID 0000.0001)     ;
(PID.TID 0000.0001) yC =  /* yC(1,:,1,:) : P-point Y coord ( deg. or m if cartesian) */
(PID.TID 0000.0001)                 4.700000000000000E+01,      /* J =  1 */
(PID.TID 0000.0001)                 4.900000000000000E+01,      /* J =  2 */
(PID.TID 0000.0001)                 5.100000000000000E+01,      /* J =  3 */
(PID.TID 0000.0001)                 5.300000000000000E+01,      /* J =  4 */
(PID.TID 0000.0001)                 5.500000000000000E+01,      /* J =  5 */
(PID.TID 0000.0001)                 5.700000000000000E+01,      /* J =  6 */
(PID.TID 0000.0001)                 5.900000000000000E+01,      /* J =  7 */
(PID.TID 0000.0001)                 6.100000000000000E+01,      /* J =  8 */
(PID.TID 0000.0001)                 6.300000000000000E+01,      /* J =  9 */
(PID.TID 0000.0001)                 6.500000000000000E+01,      /* J = 10 */
(PID.TID 0000.0001)                 6.700000000000000E+01,      /* J = 11 */
(PID.TID 0000.0001)                 6.900000000000000E+01,      /* J = 12 */
(PID.TID 0000.0001)                 7.100000000000000E+01,      /* J = 13 */
(PID.TID 0000.0001)                 7.300000000000000E+01,      /* J = 14 */
(PID.TID 0000.0001)                 7.500000000000000E+01,      /* J = 15 */
(PID.TID 0000.0001)                 7.700000000000000E+01       /* J = 16 */
(PID.TID 0000.0001)     ;
(PID.TID 0000.0001) rcoord = /* P-point R coordinate (  units of r ) */
(PID.TID 0000.0001)                -5.000000000000000E+00,      /* K =  1 */
(PID.TID 0000.0001)                -1.500000000000000E+01,      /* K =  2 */
(PID.TID 0000.0001)                -2.750000000000000E+01,      /* K =  3 */
(PID.TID 0000.0001)                -4.500000000000000E+01,      /* K =  4 */
(PID.TID 0000.0001)                -6.500000000000000E+01,      /* K =  5 */
(PID.TID 0000.0001)                -8.750000000000000E+01,      /* K =  6 */
(PID.TID 0000.0001)                -1.175000000000000E+02,      /* K =  7 */
(PID.TID 0000.0001)                -1.600000000000000E+02,      /* K =  8 */
(PID.TID 0000.0001)                -2.225000000000000E+02,      /* K =  9 */
(PID.TID 0000.0001)                -3.100000000000000E+02,      /* K = 10 */
(PID.TID 0000.0001)                -4.350000000000000E+02,      /* K = 11 */
(PID.TID 0000.0001)                -6.100000000000000E+02,      /* K = 12 */
(PID.TID 0000.0001)                -8.475000000000000E+02,      /* K = 13 */
(PID.TID 0000.0001)                -1.160000000000000E+03,      /* K = 14 */
(PID.TID 0000.0001)                -1.542500000000000E+03,      /* K = 15 */
(PID.TID 0000.0001)                -1.975000000000000E+03,      /* K = 16 */
(PID.TID 0000.0001)                -2.450000000000000E+03,      /* K = 17 */
(PID.TID 0000.0001)                -2.950000000000000E+03,      /* K = 18 */
(PID.TID 0000.0001)                -3.450000000000000E+03,      /* K = 19 */
(PID.TID 0000.0001)                -3.950000000000000E+03,      /* K = 20 */
(PID.TID 0000.0001)                -4.450000000000000E+03,      /* K = 21 */
(PID.TID 0000.0001)                -4.950000000000000E+03,      /* K = 22 */
(PID.TID 0000.0001)                -5.450000000000000E+03       /* K = 23 */
(PID.TID 0000.0001)     ;
(PID.TID 0000.0001) rF =   /* W-Interf. R coordinate (  units of r ) */
(PID.TID 0000.0001)                 0.000000000000000E+00,      /* K =  1 */
(PID.TID 0000.0001)                -1.000000000000000E+01,      /* K =  2 */
(PID.TID 0000.0001)                -2.000000000000000E+01,      /* K =  3 */
(PID.TID 0000.0001)                -3.500000000000000E+01,      /* K =  4 */
(PID.TID 0000.0001)                -5.500000000000000E+01,      /* K =  5 */
(PID.TID 0000.0001)                -7.500000000000000E+01,      /* K =  6 */
(PID.TID 0000.0001)                -1.000000000000000E+02,      /* K =  7 */
(PID.TID 0000.0001)                -1.350000000000000E+02,      /* K =  8 */
(PID.TID 0000.0001)                -1.850000000000000E+02,      /* K =  9 */
(PID.TID 0000.0001)                -2.600000000000000E+02,      /* K = 10 */
(PID.TID 0000.0001)                -3.600000000000000E+02,      /* K = 11 */
(PID.TID 0000.0001)                -5.100000000000000E+02,      /* K = 12 */
(PID.TID 0000.0001)                -7.100000000000000E+02,      /* K = 13 */
(PID.TID 0000.0001)                -9.850000000000000E+02,      /* K = 14 */
(PID.TID 0000.0001)                -1.335000000000000E+03,      /* K = 15 */
(PID.TID 0000.0001)                -1.750000000000000E+03,      /* K = 16 */
(PID.TID 0000.0001)                -2.200000000000000E+03,      /* K = 17 */
(PID.TID 0000.0001)                -2.700000000000000E+03,      /* K = 18 */
(PID.TID 0000.0001)                -3.200000000000000E+03,      /* K = 19 */
(PID.TID 0000.0001)                -3.700000000000000E+03,      /* K = 20 */
(PID.TID 0000.0001)                -4.200000000000000E+03,      /* K = 21 */
(PID.TID 0000.0001)                -4.700000000000000E+03,      /* K = 22 */
(PID.TID 0000.0001)                -5.200000000000000E+03,      /* K = 23 */
(PID.TID 0000.0001)                -5.700000000000000E+03       /* K = 24 */
(PID.TID 0000.0001)     ;
(PID.TID 0000.0001) deepFacC = /* deep-model grid factor @ cell-Center (-) */
(PID.TID 0000.0001)    23 @  1.000000000000000E+00              /* K =  1: 23 */
(PID.TID 0000.0001)     ;
(PID.TID 0000.0001) deepFacF = /* deep-model grid factor @ W-Interface (-) */
(PID.TID 0000.0001)    24 @  1.000000000000000E+00              /* K =  1: 24 */
(PID.TID 0000.0001)     ;
(PID.TID 0000.0001) rVel2wUnit = /* convert units: rVel -> wSpeed (=1 if z-coord)*/
(PID.TID 0000.0001)    24 @  1.000000000000000E+00              /* K =  1: 24 */
(PID.TID 0000.0001)     ;
(PID.TID 0000.0001) wUnit2rVel = /* convert units: wSpeed -> rVel (=1 if z-coord)*/
(PID.TID 0000.0001)    24 @  1.000000000000000E+00              /* K =  1: 24 */
(PID.TID 0000.0001)     ;
(PID.TID 0000.0001) dBdrRef = /* Vertical grad. of reference buoyancy [(m/s/r)^2] */
(PID.TID 0000.0001)                 0.000000000000000E+00,      /* K =  1 */
(PID.TID 0000.0001)                 3.513461801096672E-04,      /* K =  2 */
(PID.TID 0000.0001)                 2.578462793867026E-04,      /* K =  3 */
(PID.TID 0000.0001)                 1.716535447918954E-04,      /* K =  4 */
(PID.TID 0000.0001)                 1.391849606744939E-04,      /* K =  5 */
(PID.TID 0000.0001)                 1.106038973987551E-04,      /* K =  6 */
(PID.TID 0000.0001)                 7.062448315028799E-05,      /* K =  7 */
(PID.TID 0000.0001)                 4.112152780686669E-05,      /* K =  8 */
(PID.TID 0000.0001)                 2.554455911799560E-05,      /* K =  9 */
(PID.TID 0000.0001)                 1.739274227427603E-05,      /* K = 10 */
(PID.TID 0000.0001)                 1.573008010125636E-05,      /* K = 11 */
(PID.TID 0000.0001)                 1.341763357458043E-05,      /* K = 12 */
(PID.TID 0000.0001)                 1.029886793911016E-05,      /* K = 13 */
(PID.TID 0000.0001)                 7.244777660794312E-06,      /* K = 14 */
(PID.TID 0000.0001)                 5.291061202791868E-06,      /* K = 15 */
(PID.TID 0000.0001)                 4.668992652371521E-06,      /* K = 16 */
(PID.TID 0000.0001)                 3.952349989520169E-06,      /* K = 17 */
(PID.TID 0000.0001)                 3.937600045035830E-06,      /* K = 18 */
(PID.TID 0000.0001)                 3.833348475309353E-06,      /* K = 19 */
(PID.TID 0000.0001)                 4.027570774400333E-06,      /* K = 20 */
(PID.TID 0000.0001)                 3.935806005392895E-06,      /* K = 21 */
(PID.TID 0000.0001)                 3.995673930141529E-06,      /* K = 22 */
(PID.TID 0000.0001)                 4.061338744769299E-06       /* K = 23 */
(PID.TID 0000.0001)     ;
(PID.TID 0000.0001) rotateGrid = /* use rotated grid ( True/False ) */
(PID.TID 0000.0001)                   F
(PID.TID 0000.0001)     ;
(PID.TID 0000.0001) phiEuler = /* Euler angle, rotation about original z-coordinate [rad] */
(PID.TID 0000.0001)                 0.000000000000000E+00
(PID.TID 0000.0001)     ;
(PID.TID 0000.0001) thetaEuler = /* Euler angle, rotation about new x-coordinate [rad] */
(PID.TID 0000.0001)                 0.000000000000000E+00
(PID.TID 0000.0001)     ;
(PID.TID 0000.0001) psiEuler = /* Euler angle, rotation about new z-coordinate [rad] */
(PID.TID 0000.0001)                 0.000000000000000E+00
(PID.TID 0000.0001)     ;
(PID.TID 0000.0001) dxF =  /* dxF(:,1,:,1) ( units: m ) */
(PID.TID 0000.0001)    20 @  1.516695152377178E+05              /* I =  1: 20 */
(PID.TID 0000.0001)     ;
(PID.TID 0000.0001) dxF =  /* dxF(1,:,1,:) ( units: m ) */
(PID.TID 0000.0001)                 1.516695152377178E+05,      /* J =  1 */
(PID.TID 0000.0001)                 1.459008712061998E+05,      /* J =  2 */
(PID.TID 0000.0001)                 1.399544694374234E+05,      /* J =  3 */
(PID.TID 0000.0001)                 1.338375547059709E+05,      /* J =  4 */
(PID.TID 0000.0001)                 1.275575795302040E+05,      /* J =  5 */
(PID.TID 0000.0001)                 1.211221950925184E+05,      /* J =  6 */
(PID.TID 0000.0001)                 1.145392419175564E+05,      /* J =  7 */
(PID.TID 0000.0001)                 1.078167403197357E+05,      /* J =  8 */
(PID.TID 0000.0001)                 1.009628806317309E+05,      /* J =  9 */
(PID.TID 0000.0001)                 9.398601322581600E+04,      /* J = 10 */
(PID.TID 0000.0001)                 8.689463834022089E+04,      /* J = 11 */
(PID.TID 0000.0001)                 7.969739572290120E+04,      /* J = 12 */
(PID.TID 0000.0001)                 7.240305410533583E+04,      /* J = 13 */
(PID.TID 0000.0001)                 6.502050051917860E+04,      /* J = 14 */
(PID.TID 0000.0001)                 5.755872946877906E+04,      /* J = 15 */
(PID.TID 0000.0001)                 5.002683197276441E+04       /* J = 16 */
(PID.TID 0000.0001)     ;
(PID.TID 0000.0001) dyF =  /* dyF(:,1,:,1) ( units: m ) */
(PID.TID 0000.0001)    20 @  2.223898532891175E+05              /* I =  1: 20 */
(PID.TID 0000.0001)     ;
(PID.TID 0000.0001) dyF =  /* dyF(1,:,1,:) ( units: m ) */
(PID.TID 0000.0001)    16 @  2.223898532891175E+05              /* J =  1: 16 */
(PID.TID 0000.0001)     ;
(PID.TID 0000.0001) dxG =  /* dxG(:,1,:,1) ( units: m ) */
(PID.TID 0000.0001)    20 @  1.544849730924338E+05              /* I =  1: 20 */
(PID.TID 0000.0001)     ;
(PID.TID 0000.0001) dxG =  /* dxG(1,:,1,:) ( units: m ) */
(PID.TID 0000.0001)                 1.544849730924338E+05,      /* J =  1 */
(PID.TID 0000.0001)                 1.488078573794047E+05,      /* J =  2 */
(PID.TID 0000.0001)                 1.429494422142520E+05,      /* J =  3 */
(PID.TID 0000.0001)                 1.369168651734348E+05,      /* J =  4 */
(PID.TID 0000.0001)                 1.307174760228300E+05,      /* J =  5 */
(PID.TID 0000.0001)                 1.243588277631750E+05,      /* J =  6 */
(PID.TID 0000.0001)                 1.178486674278995E+05,      /* J =  7 */
(PID.TID 0000.0001)                 1.111949266445588E+05,      /* J =  8 */
(PID.TID 0000.0001)                 1.044057119713670E+05,      /* J =  9 */
(PID.TID 0000.0001)                 9.748929502060512E+04,      /* J = 10 */
(PID.TID 0000.0001)                 9.045410238093534E+04,      /* J = 11 */
(PID.TID 0000.0001)                 8.330870535090075E+04,      /* J = 12 */
(PID.TID 0000.0001)                 7.606180949611843E+04,      /* J = 13 */
(PID.TID 0000.0001)                 6.872224404288860E+04,      /* J = 14 */
(PID.TID 0000.0001)                 6.129895112114271E+04,      /* J = 15 */
(PID.TID 0000.0001)                 5.380097486983529E+04       /* J = 16 */
(PID.TID 0000.0001)     ;
(PID.TID 0000.0001) dyG =  /* dyG(:,1,:,1) ( units: m ) */
(PID.TID 0000.0001)    20 @  2.223898532891175E+05              /* I =  1: 20 */
(PID.TID 0000.0001)     ;
(PID.TID 0000.0001) dyG =  /* dyG(1,:,1,:) ( units: m ) */
(PID.TID 0000.0001)    16 @  2.223898532891175E+05              /* J =  1: 16 */
(PID.TID 0000.0001)     ;
(PID.TID 0000.0001) dxC =  /* dxC(:,1,:,1) ( units: m ) */
(PID.TID 0000.0001)    20 @  1.516695152377178E+05              /* I =  1: 20 */
(PID.TID 0000.0001)     ;
(PID.TID 0000.0001) dxC =  /* dxC(1,:,1,:) ( units: m ) */
(PID.TID 0000.0001)                 1.516695152377178E+05,      /* J =  1 */
(PID.TID 0000.0001)                 1.459008712061998E+05,      /* J =  2 */
(PID.TID 0000.0001)                 1.399544694374234E+05,      /* J =  3 */
(PID.TID 0000.0001)                 1.338375547059709E+05,      /* J =  4 */
(PID.TID 0000.0001)                 1.275575795302040E+05,      /* J =  5 */
(PID.TID 0000.0001)                 1.211221950925184E+05,      /* J =  6 */
(PID.TID 0000.0001)                 1.145392419175564E+05,      /* J =  7 */
(PID.TID 0000.0001)                 1.078167403197357E+05,      /* J =  8 */
(PID.TID 0000.0001)                 1.009628806317309E+05,      /* J =  9 */
(PID.TID 0000.0001)                 9.398601322581600E+04,      /* J = 10 */
(PID.TID 0000.0001)                 8.689463834022089E+04,      /* J = 11 */
(PID.TID 0000.0001)                 7.969739572290120E+04,      /* J = 12 */
(PID.TID 0000.0001)                 7.240305410533583E+04,      /* J = 13 */
(PID.TID 0000.0001)                 6.502050051917860E+04,      /* J = 14 */
(PID.TID 0000.0001)                 5.755872946877906E+04,      /* J = 15 */
(PID.TID 0000.0001)                 5.002683197276441E+04       /* J = 16 */
(PID.TID 0000.0001)     ;
(PID.TID 0000.0001) dyC =  /* dyC(:,1,:,1) ( units: m ) */
(PID.TID 0000.0001)    20 @  2.223898532891175E+05              /* I =  1: 20 */
(PID.TID 0000.0001)     ;
(PID.TID 0000.0001) dyC =  /* dyC(1,:,1,:) ( units: m ) */
(PID.TID 0000.0001)    16 @  2.223898532891175E+05              /* J =  1: 16 */
(PID.TID 0000.0001)     ;
(PID.TID 0000.0001) dxV =  /* dxV(:,1,:,1) ( units: m ) */
(PID.TID 0000.0001)    20 @  1.544849730924338E+05              /* I =  1: 20 */
(PID.TID 0000.0001)     ;
(PID.TID 0000.0001) dxV =  /* dxV(1,:,1,:) ( units: m ) */
(PID.TID 0000.0001)                 1.544849730924338E+05,      /* J =  1 */
(PID.TID 0000.0001)                 1.488078573794047E+05,      /* J =  2 */
(PID.TID 0000.0001)                 1.429494422142520E+05,      /* J =  3 */
(PID.TID 0000.0001)                 1.369168651734348E+05,      /* J =  4 */
(PID.TID 0000.0001)                 1.307174760228300E+05,      /* J =  5 */
(PID.TID 0000.0001)                 1.243588277631750E+05,      /* J =  6 */
(PID.TID 0000.0001)                 1.178486674278995E+05,      /* J =  7 */
(PID.TID 0000.0001)                 1.111949266445588E+05,      /* J =  8 */
(PID.TID 0000.0001)                 1.044057119713670E+05,      /* J =  9 */
(PID.TID 0000.0001)                 9.748929502060512E+04,      /* J = 10 */
(PID.TID 0000.0001)                 9.045410238093534E+04,      /* J = 11 */
(PID.TID 0000.0001)                 8.330870535090075E+04,      /* J = 12 */
(PID.TID 0000.0001)                 7.606180949611843E+04,      /* J = 13 */
(PID.TID 0000.0001)                 6.872224404288860E+04,      /* J = 14 */
(PID.TID 0000.0001)                 6.129895112114271E+04,      /* J = 15 */
(PID.TID 0000.0001)                 5.380097486983529E+04       /* J = 16 */
(PID.TID 0000.0001)     ;
(PID.TID 0000.0001) dyU =  /* dyU(:,1,:,1) ( units: m ) */
(PID.TID 0000.0001)    20 @  2.223898532891175E+05              /* I =  1: 20 */
(PID.TID 0000.0001)     ;
(PID.TID 0000.0001) dyU =  /* dyU(1,:,1,:) ( units: m ) */
(PID.TID 0000.0001)    16 @  2.223898532891175E+05              /* J =  1: 16 */
(PID.TID 0000.0001)     ;
(PID.TID 0000.0001) rA  =  /* rA (:,1,:,1) ( units: m^2 ) */
(PID.TID 0000.0001)    20 @  3.372804882275630E+10              /* I =  1: 20 */
(PID.TID 0000.0001)     ;
(PID.TID 0000.0001) rA  =  /* rA (1,:,1,:) ( units: m^2 ) */
(PID.TID 0000.0001)                 3.372804882275630E+10,      /* J =  1 */
(PID.TID 0000.0001)                 3.244522605358471E+10,      /* J =  2 */
(PID.TID 0000.0001)                 3.112287377427108E+10,      /* J =  3 */
(PID.TID 0000.0001)                 2.976260306737437E+10,      /* J =  4 */
(PID.TID 0000.0001)                 2.836607121321784E+10,      /* J =  5 */
(PID.TID 0000.0001)                 2.693497967074614E+10,      /* J =  6 */
(PID.TID 0000.0001)                 2.547107200456132E+10,      /* J =  7 */
(PID.TID 0000.0001)                 2.397613176065682E+10,      /* J =  8 */
(PID.TID 0000.0001)                 2.245198029344207E+10,      /* J =  9 */
(PID.TID 0000.0001)                 2.090047454670177E+10,      /* J = 10 */
(PID.TID 0000.0001)                 1.932350479119805E+10,      /* J = 11 */
(PID.TID 0000.0001)                 1.772299232166360E+10,      /* J = 12 */
(PID.TID 0000.0001)                 1.610088711600326E+10,      /* J = 13 */
(PID.TID 0000.0001)                 1.445916545954351E+10,      /* J = 14 */
(PID.TID 0000.0001)                 1.279982753723478E+10,      /* J = 15 */
(PID.TID 0000.0001)                 1.112489499673432E+10       /* J = 16 */
(PID.TID 0000.0001)     ;
(PID.TID 0000.0001) rAw =  /* rAw(:,1,:,1) ( units: m^2 ) */
(PID.TID 0000.0001)    20 @  3.372804882275630E+10              /* I =  1: 20 */
(PID.TID 0000.0001)     ;
(PID.TID 0000.0001) rAw =  /* rAw(1,:,1,:) ( units: m^2 ) */
(PID.TID 0000.0001)                 3.372804882275630E+10,      /* J =  1 */
(PID.TID 0000.0001)                 3.244522605358471E+10,      /* J =  2 */
(PID.TID 0000.0001)                 3.112287377427108E+10,      /* J =  3 */
(PID.TID 0000.0001)                 2.976260306737437E+10,      /* J =  4 */
(PID.TID 0000.0001)                 2.836607121321784E+10,      /* J =  5 */
(PID.TID 0000.0001)                 2.693497967074614E+10,      /* J =  6 */
(PID.TID 0000.0001)                 2.547107200456132E+10,      /* J =  7 */
(PID.TID 0000.0001)                 2.397613176065682E+10,      /* J =  8 */
(PID.TID 0000.0001)                 2.245198029344207E+10,      /* J =  9 */
(PID.TID 0000.0001)                 2.090047454670177E+10,      /* J = 10 */
(PID.TID 0000.0001)                 1.932350479119805E+10,      /* J = 11 */
(PID.TID 0000.0001)                 1.772299232166360E+10,      /* J = 12 */
(PID.TID 0000.0001)                 1.610088711600326E+10,      /* J = 13 */
(PID.TID 0000.0001)                 1.445916545954351E+10,      /* J = 14 */
(PID.TID 0000.0001)                 1.279982753723478E+10,      /* J = 15 */
(PID.TID 0000.0001)                 1.112489499673432E+10       /* J = 16 */
(PID.TID 0000.0001)     ;
(PID.TID 0000.0001) rAs =  /* rAs(:,1,:,1) ( units: m^2 ) */
(PID.TID 0000.0001)    20 @  3.435414629417918E+10              /* I =  1: 20 */
(PID.TID 0000.0001)     ;
(PID.TID 0000.0001) rAs =  /* rAs(1,:,1,:) ( units: m^2 ) */
(PID.TID 0000.0001)                 3.435414629417918E+10,      /* J =  1 */
(PID.TID 0000.0001)                 3.309167746093097E+10,      /* J =  2 */
(PID.TID 0000.0001)                 3.178889151607872E+10,      /* J =  3 */
(PID.TID 0000.0001)                 3.044737570361747E+10,      /* J =  4 */
(PID.TID 0000.0001)                 2.906876445392020E+10,      /* J =  5 */
(PID.TID 0000.0001)                 2.765473739243563E+10,      /* J =  6 */
(PID.TID 0000.0001)                 2.620701729332415E+10,      /* J =  7 */
(PID.TID 0000.0001)                 2.472736798052209E+10,      /* J =  8 */
(PID.TID 0000.0001)                 2.321759217879512E+10,      /* J =  9 */
(PID.TID 0000.0001)                 2.167952931739416E+10,      /* J = 10 */
(PID.TID 0000.0001)                 2.011505328899539E+10,      /* J = 11 */
(PID.TID 0000.0001)                 1.852607016665020E+10,      /* J = 12 */
(PID.TID 0000.0001)                 1.691451588152944E+10,      /* J = 13 */
(PID.TID 0000.0001)                 1.528235386428863E+10,      /* J = 14 */
(PID.TID 0000.0001)                 1.363157265293026E+10,      /* J = 15 */
(PID.TID 0000.0001)                 1.196418347007692E+10       /* J = 16 */
(PID.TID 0000.0001)     ;
(PID.TID 0000.0001) globalArea = /* Integrated horizontal Area (m^2) */
(PID.TID 0000.0001)                 3.518028525317939E+12
(PID.TID 0000.0001)     ;
(PID.TID 0000.0001) // =======================================================
(PID.TID 0000.0001) // End of Model config. summary
(PID.TID 0000.0001) // =======================================================
(PID.TID 0000.0001) 
(PID.TID 0000.0001) == Packages configuration : Check & print summary ==
(PID.TID 0000.0001) 
(PID.TID 0000.0001) KPP_CHECK: #define ALLOW_KPP
(PID.TID 0000.0001)  kpp_freq = /* frequency of KPP calculation */
(PID.TID 0000.0001)                 3.600000000000000E+03
(PID.TID 0000.0001)     ;
(PID.TID 0000.0001) KPP_ghatUseTotalDiffus= /* non-local term fct of total diffus */
(PID.TID 0000.0001)                   T
(PID.TID 0000.0001)     ;
(PID.TID 0000.0001) KPPuseDoubleDiff = /* include double diffusive contrib */
(PID.TID 0000.0001)                   F
(PID.TID 0000.0001)     ;
(PID.TID 0000.0001) LimitHblStable = /* limits depth of hbl if stable cond.*/
(PID.TID 0000.0001)                   T
(PID.TID 0000.0001)     ;
(PID.TID 0000.0001)  minKPPhbl = /* minimum KPPhbl value [m] */
(PID.TID 0000.0001)                 5.000000000000000E+00
(PID.TID 0000.0001)     ;
(PID.TID 0000.0001)  epsln     = /* constant [-] */
(PID.TID 0000.0001)                 9.999999999999999E-21
(PID.TID 0000.0001)     ;
(PID.TID 0000.0001)  phepsi    = /* constant [-] */
(PID.TID 0000.0001)                 1.000000000000000E-10
(PID.TID 0000.0001)     ;
(PID.TID 0000.0001)  epsilon   = /* constant [-] */
(PID.TID 0000.0001)                 1.000000000000000E-01
(PID.TID 0000.0001)     ;
(PID.TID 0000.0001)  vonk      = /* Von Karmans constant [-] */
(PID.TID 0000.0001)                 4.000000000000000E-01
(PID.TID 0000.0001)     ;
(PID.TID 0000.0001)  dB_dz     = /* maximum N^2 in mixed layer [s^-2] */
(PID.TID 0000.0001)                 5.200000000000000E-05
(PID.TID 0000.0001)     ;
(PID.TID 0000.0001)  conc1     = /* scalar constant [-] */
(PID.TID 0000.0001)                 5.000000000000000E+00
(PID.TID 0000.0001)     ;
(PID.TID 0000.0001)  conam     = /* scalar constant [-] */
(PID.TID 0000.0001)                 1.257000000000000E+00
(PID.TID 0000.0001)     ;
(PID.TID 0000.0001)  concm     = /* scalar constant [-] */
(PID.TID 0000.0001)                 8.380000000000001E+00
(PID.TID 0000.0001)     ;
(PID.TID 0000.0001)  conc2     = /* scalar constant [-] */
(PID.TID 0000.0001)                 1.600000000000000E+01
(PID.TID 0000.0001)     ;
(PID.TID 0000.0001)  conas     = /* scalar constant [-] */
(PID.TID 0000.0001)                -2.886000000000000E+01
(PID.TID 0000.0001)     ;
(PID.TID 0000.0001)  concs     = /* scalar constant [-] */
(PID.TID 0000.0001)                 9.895999999999999E+01
(PID.TID 0000.0001)     ;
(PID.TID 0000.0001)  conc3     = /* scalar constant [-] */
(PID.TID 0000.0001)                 1.600000000000000E+01
(PID.TID 0000.0001)     ;
(PID.TID 0000.0001)  zetam     = /* scalar constant [-] */
(PID.TID 0000.0001)                -2.000000000000000E-01
(PID.TID 0000.0001)     ;
(PID.TID 0000.0001)  zetas     = /* scalar constant [-] */
(PID.TID 0000.0001)                -1.000000000000000E+00
(PID.TID 0000.0001)     ;
(PID.TID 0000.0001)  Ricr      = /* critical bulk Richardson Number [-] */
(PID.TID 0000.0001)                 3.000000000000000E-01
(PID.TID 0000.0001)     ;
(PID.TID 0000.0001)  cekman    = /* coeff for Ekman depth [-] */
(PID.TID 0000.0001)                 7.000000000000000E-01
(PID.TID 0000.0001)     ;
(PID.TID 0000.0001)  cmonob    = /* coeff for Monin-Obukhov depth [-] */
(PID.TID 0000.0001)                 1.000000000000000E+00
(PID.TID 0000.0001)     ;
(PID.TID 0000.0001)  concv     = /* buoyancy freq ratio [-] */
(PID.TID 0000.0001)                 1.800000000000000E+00
(PID.TID 0000.0001)     ;
(PID.TID 0000.0001)  hbf       = /* solar radiation depth ratio [-] */
(PID.TID 0000.0001)                 1.000000000000000E+00
(PID.TID 0000.0001)     ;
(PID.TID 0000.0001)  zmin      = /* minimum for zehat in table [m3/s3] */
(PID.TID 0000.0001)                -4.000000000000000E-07
(PID.TID 0000.0001)     ;
(PID.TID 0000.0001)  zmax      = /* maximum for zehat in table [m3/s3] */
(PID.TID 0000.0001)                 0.000000000000000E+00
(PID.TID 0000.0001)     ;
(PID.TID 0000.0001)  umin      = /* minimum for ustar in table [m/s] */
(PID.TID 0000.0001)                 0.000000000000000E+00
(PID.TID 0000.0001)     ;
(PID.TID 0000.0001)  umax      = /* maximum for ustar in table [m/s] */
(PID.TID 0000.0001)                 4.000000000000000E-02
(PID.TID 0000.0001)     ;
(PID.TID 0000.0001) num_v_smooth_Ri = /* number of vertical smoothing */
(PID.TID 0000.0001)                       0
(PID.TID 0000.0001)     ;
(PID.TID 0000.0001)  Riinfty   = /* shear instability Ri number limit [-] */
(PID.TID 0000.0001)                 7.000000000000000E-01
(PID.TID 0000.0001)     ;
(PID.TID 0000.0001)  BVSQcon   = /* Brunt-Vaisala squared (=N^2) [s^-2] */
(PID.TID 0000.0001)                -2.000000000000000E-05
(PID.TID 0000.0001)     ;
(PID.TID 0000.0001)  difm0     = /* max viscosity from shear instab. [m2/s] */
(PID.TID 0000.0001)                 5.000000000000000E-03
(PID.TID 0000.0001)     ;
(PID.TID 0000.0001)  difs0     = /* max diffusiv. from shear instab. [m2/s] */
(PID.TID 0000.0001)                 5.000000000000000E-03
(PID.TID 0000.0001)     ;
(PID.TID 0000.0001)  dift0     = /* max diffusiv. from shear instab. [m2/s] */
(PID.TID 0000.0001)                 5.000000000000000E-03
(PID.TID 0000.0001)     ;
(PID.TID 0000.0001)  difmcon   = /* convective viscosity [m2/s] */
(PID.TID 0000.0001)                 1.000000000000000E-01
(PID.TID 0000.0001)     ;
(PID.TID 0000.0001)  difscon   = /* convective diffusiv. [m2/s] */
(PID.TID 0000.0001)                 1.000000000000000E-01
(PID.TID 0000.0001)     ;
(PID.TID 0000.0001)  diftcon   = /* convective diffusiv. [m2/s] */
(PID.TID 0000.0001)                 1.000000000000000E-01
(PID.TID 0000.0001)     ;
(PID.TID 0000.0001)  Rrho0     = /* double diffusion density ratio [-] */
(PID.TID 0000.0001)                 1.900000000000000E+00
(PID.TID 0000.0001)     ;
(PID.TID 0000.0001)  dsfmax    = /* max diffusiv. for salt fingering [m2/s] */
(PID.TID 0000.0001)                 1.000000000000000E-02
(PID.TID 0000.0001)     ;
(PID.TID 0000.0001)  cstar     = /* coeff for non-locak transport [-] */
(PID.TID 0000.0001)                 1.000000000000000E+01
(PID.TID 0000.0001)     ;
(PID.TID 0000.0001) KPPwriteState = /* write KPP fields to file */
(PID.TID 0000.0001)                   T
(PID.TID 0000.0001)     ;
(PID.TID 0000.0001)  kpp_dumpFreq = /* dump freq of KPP output */
(PID.TID 0000.0001)                 0.000000000000000E+00
(PID.TID 0000.0001)     ;
(PID.TID 0000.0001)  kpp_taveFreq = /* time-averaging freq of KPP output */
(PID.TID 0000.0001)                 3.600000000000000E+04
(PID.TID 0000.0001)     ;
(PID.TID 0000.0001) 
(PID.TID 0000.0001) GMREDI_CHECK: #define GMREDI
(PID.TID 0000.0001) GM_AdvForm =     /* if FALSE => use SkewFlux Form */
(PID.TID 0000.0001)                   F
(PID.TID 0000.0001)     ;
(PID.TID 0000.0001) GM_InMomAsStress = /* if TRUE => apply as Eddy Stress */
(PID.TID 0000.0001)                   F
(PID.TID 0000.0001)     ;
(PID.TID 0000.0001) GM_AdvSeparate = /* Calc Bolus & Euler Adv. separately */
(PID.TID 0000.0001)                   F
(PID.TID 0000.0001)     ;
(PID.TID 0000.0001) GM_ExtraDiag =   /* Tensor Extra Diag (line 1&2) non 0 */
(PID.TID 0000.0001)                   F
(PID.TID 0000.0001)     ;
(PID.TID 0000.0001) GM_isopycK =    /* Background Isopyc. Diffusivity [m^2/s] */
(PID.TID 0000.0001)                 5.710000000000000E+02
(PID.TID 0000.0001)     ;
(PID.TID 0000.0001) GM_skewflx*K =  /* Background GM_SkewFlx Diffusivity [m^2/s] */
(PID.TID 0000.0001)                 5.710000000000000E+02
(PID.TID 0000.0001)     ;
(PID.TID 0000.0001) GM_advec*K =    /* Backg. GM-Advec(=Bolus) Diffusivity [m^2/s]*/
(PID.TID 0000.0001)                 0.000000000000000E+00
(PID.TID 0000.0001)     ;
(PID.TID 0000.0001) GM_Kmin_horiz = /* Minimum Horizontal Diffusivity [m^2/s] */
(PID.TID 0000.0001)                 0.000000000000000E+00
(PID.TID 0000.0001)     ;
(PID.TID 0000.0001) GM_Visbeck_alpha = /* Visbeck alpha coeff. [-] */
(PID.TID 0000.0001)                 0.000000000000000E+00
(PID.TID 0000.0001)     ;
(PID.TID 0000.0001) GM_Small_Number =  /* epsilon used in slope calc */
(PID.TID 0000.0001)                 9.999999999999999E-21
(PID.TID 0000.0001)     ;
(PID.TID 0000.0001) GM_slopeSqCutoff = /* Slope^2 cut-off value */
(PID.TID 0000.0001)                 1.000000000000000E+48
(PID.TID 0000.0001)     ;
(PID.TID 0000.0001) GM_taper_scheme =  /* Type of Tapering/Clipping scheme */
(PID.TID 0000.0001)               'ldd97                                   '
(PID.TID 0000.0001)     ;
(PID.TID 0000.0001) GM_maxSlope =  /* Maximum Slope (Tapering/Clipping) */
(PID.TID 0000.0001)                 1.000000000000000E-02
(PID.TID 0000.0001)     ;
(PID.TID 0000.0001) GM_facTrL2dz = /* Minimum Trans.Layer Thick. (factor of dz) */
(PID.TID 0000.0001)                 1.000000000000000E+00
(PID.TID 0000.0001)     ;
(PID.TID 0000.0001) GM_facTrL2ML = /* Max.Trans.Layer Thick. (factor of MxL Depth)*/
(PID.TID 0000.0001)                 5.000000000000000E+00
(PID.TID 0000.0001)     ;
(PID.TID 0000.0001) GM_maxTransLay = /* Maximum Transition Layer Thickness [m] */
(PID.TID 0000.0001)                 5.000000000000000E+02
(PID.TID 0000.0001)     ;
(PID.TID 0000.0001) GM_UseBVP = /* if TRUE => use bvp a la Ferrari et al. (2010) */
(PID.TID 0000.0001)                   F
(PID.TID 0000.0001)     ;
(PID.TID 0000.0001) GM_BVP_ModeNumber = /* Vertical mode number for BVP wave speed */
(PID.TID 0000.0001)                       1
(PID.TID 0000.0001)     ;
(PID.TID 0000.0001) GM_BVP_cMin = /* Minimum wave speed for BVP [m/s] */
(PID.TID 0000.0001)                 1.000000000000000E-01
(PID.TID 0000.0001)     ;
(PID.TID 0000.0001) GM_useSubMeso = /* if TRUE => use Sub-Meso param. (B.Fox-Kemper) */
(PID.TID 0000.0001)                   F
(PID.TID 0000.0001)     ;
(PID.TID 0000.0001) subMeso_Ceff = /* efficiency coeff. of Mixed-Layer Eddies [-] */
(PID.TID 0000.0001)                 7.000000000000001E-02
(PID.TID 0000.0001)     ;
(PID.TID 0000.0001) subMeso_invTau = /* inverse of Sub-Meso mixing time-scale [/s] */
(PID.TID 0000.0001)                 2.000000000000000E-06
(PID.TID 0000.0001)     ;
(PID.TID 0000.0001) subMeso_LfMin = /* minimum length-scale "Lf" [m] */
(PID.TID 0000.0001)                 1.000000000000000E+03
(PID.TID 0000.0001)     ;
(PID.TID 0000.0001) subMeso_Lmax = /* maximum grid-scale length [m] */
(PID.TID 0000.0001)                 1.100000000000000E+05
(PID.TID 0000.0001)     ;
(PID.TID 0000.0001) GM_useLeithQG = /* if TRUE => add QG Leith viscosity to GMRedi tensor */
(PID.TID 0000.0001)                   F
(PID.TID 0000.0001)     ;
(PID.TID 0000.0001) EXF_CHECK: #define ALLOW_EXF
(PID.TID 0000.0001) SEAICE_CHECK: #define ALLOW_SEAICE
(PID.TID 0000.0001) GAD_CHECK: #define ALLOW_GENERIC_ADVDIFF
(PID.TID 0000.0001) // =======================================================
(PID.TID 0000.0001) // Check Model config. (CONFIG_CHECK):
(PID.TID 0000.0001) // CONFIG_CHECK : Normal End
(PID.TID 0000.0001) // =======================================================
(PID.TID 0000.0001) 
(PID.TID 0000.0001)  MDS_READ_FIELD: opening global file: U.0000008760
(PID.TID 0000.0001)  MDS_READ_FIELD: opening global file: V.0000008760
(PID.TID 0000.0001)  MDS_READ_FIELD: opening global file: T.0000008760
(PID.TID 0000.0001)  MDS_READ_FIELD: opening global file: S.0000008760
(PID.TID 0000.0001) Start initial hydrostatic pressure computation
(PID.TID 0000.0001) Pressure is predetermined for buoyancyRelation OCEANIC
(PID.TID 0000.0001) 
(PID.TID 0000.0001)  write diagnostics summary to file ioUnit:      6
Iter.Nb:         0 ; Time(s):  0.0000000000000E+00
------------------------------------------------------------------------
2D/3D diagnostics: Number of lists:     4
------------------------------------------------------------------------
listId=    1 ; file name: diagsEXF
 nFlds, nActive,       freq     &     phase        , nLev               
   11  |   11  |    -36000.000000     18000.000000 |   1
 levels:   1
 diag# | name   |   ipt  |  iMate | kLev|   count |   mate.C|           
   197 |EXFtaux |      1 |      0 |   1 |       0 |
   198 |EXFtauy |      2 |      0 |   1 |       0 |
   196 |EXFqnet |      3 |      0 |   1 |       0 |
   207 |EXFempmr|      4 |      0 |   1 |       0 |
   191 |EXFhl   |      5 |      0 |   1 |       0 |
   190 |EXFhs   |      6 |      0 |   1 |       0 |
   193 |EXFswnet|      7 |      0 |   1 |       0 |
   192 |EXFlwnet|      8 |      0 |   1 |       0 |
   199 |EXFuwind|      9 |      0 |   1 |       0 |
   200 |EXFvwind|     10 |      0 |   1 |       0 |
   202 |EXFatemp|     11 |      0 |   1 |       0 |
------------------------------------------------------------------------
listId=    2 ; file name: diagsSI
 nFlds, nActive,       freq     &     phase        , nLev               
    5  |    5  |     36000.000000         0.000000 |   1
 levels:   1
 diag# | name   |   ipt  |  iMate | kLev|   count |   mate.C|           
   251 |SIarea  |     12 |      0 |   1 |       0 |
   254 |SIheff  |     13 |      0 |   1 |       0 |
   256 |SIhsnow |     14 |      0 |   1 |       0 |
   268 |SIuice  |     15 |     16 |   1 |       0 |       0 |
   269 |SIvice  |     16 |     15 |   1 |       0 |       0 |
------------------------------------------------------------------------
listId=    3 ; file name: diagsKPP
 nFlds, nActive,       freq     &     phase        , nLev               
    2  |    2  |     36000.000000         0.000000 |   1
 levels:   1
 diag# | name   |   ipt  |  iMate | kLev|   count |   mate.C|           
    76 |MXLDEPTH|     17 |      0 |   1 |       0 |
   216 |KPPhbl  |     18 |      0 |   1 |       0 |
------------------------------------------------------------------------
listId=    4 ; file name: KPPghatK
 nFlds, nActive,       freq     &     phase        , nLev               
    1  |    1  |     36000.000000         0.000000 |  23
 levels:   1   2   3   4   5   6   7   8   9  10  11  12  13  14  15  16  17  18  19  20  21  22  23
 diag# | name   |   ipt  |  iMate | kLev|   count |   mate.C|           
   215 |KPPghatK|     19 |      0 |  23 |       0 |
------------------------------------------------------------------------
Global & Regional Statistics diagnostics: Number of lists:     0
------------------------------------------------------------------------
(PID.TID 0000.0001)  MDS_READ_FIELD: opening global file: HEFF.0000008760
(PID.TID 0000.0001)  MDS_READ_FIELD: opening global file: AREA.0000008760
(PID.TID 0000.0001)  MDS_READ_FIELD: opening global file: HSNOW.0000008760
(PID.TID 0000.0001) // =======================================================
(PID.TID 0000.0001) // Model current state
(PID.TID 0000.0001) // =======================================================
(PID.TID 0000.0001) 
(PID.TID 0000.0001) // =======================================================
(PID.TID 0000.0001) // Begin MONITOR dynamic field statistics
(PID.TID 0000.0001) // =======================================================
(PID.TID 0000.0001) %MON time_tsnumber                =                     0
(PID.TID 0000.0001) %MON time_secondsf                =   0.0000000000000E+00
(PID.TID 0000.0001) %MON dynstat_eta_max              =   0.0000000000000E+00
(PID.TID 0000.0001) %MON dynstat_eta_min              =   0.0000000000000E+00
(PID.TID 0000.0001) %MON dynstat_eta_mean             =   0.0000000000000E+00
(PID.TID 0000.0001) %MON dynstat_eta_sd               =   0.0000000000000E+00
(PID.TID 0000.0001) %MON dynstat_eta_del2             =   0.0000000000000E+00
(PID.TID 0000.0001) %MON dynstat_uvel_max             =   2.9562119394541E-02
(PID.TID 0000.0001) %MON dynstat_uvel_min             =  -3.2116800546646E-02
(PID.TID 0000.0001) %MON dynstat_uvel_mean            =   7.3966954467095E-05
(PID.TID 0000.0001) %MON dynstat_uvel_sd              =   2.8230133755452E-03
(PID.TID 0000.0001) %MON dynstat_uvel_del2            =   1.2245555781964E-04
(PID.TID 0000.0001) %MON dynstat_vvel_max             =   3.0230753123760E-02
(PID.TID 0000.0001) %MON dynstat_vvel_min             =  -7.2915598750114E-02
(PID.TID 0000.0001) %MON dynstat_vvel_mean            =   5.8901812847223E-07
(PID.TID 0000.0001) %MON dynstat_vvel_sd              =   4.3557675503319E-03
(PID.TID 0000.0001) %MON dynstat_vvel_del2            =   1.6659165051517E-04
(PID.TID 0000.0001) %MON dynstat_wvel_max             =   1.0391598228656E-05
(PID.TID 0000.0001) %MON dynstat_wvel_min             =  -1.2985526788947E-05
(PID.TID 0000.0001) %MON dynstat_wvel_mean            =  -4.9544570483770E-23
(PID.TID 0000.0001) %MON dynstat_wvel_sd              =   2.9907165852535E-06
(PID.TID 0000.0001) %MON dynstat_wvel_del2            =   6.3614550255606E-08
(PID.TID 0000.0001) %MON dynstat_theta_max            =   1.2478986740112E+01
(PID.TID 0000.0001) %MON dynstat_theta_min            =  -1.8580783605576E+00
(PID.TID 0000.0001) %MON dynstat_theta_mean           =   3.0888161803488E+00
(PID.TID 0000.0001) %MON dynstat_theta_sd             =   1.4316734913970E+00
(PID.TID 0000.0001) %MON dynstat_theta_del2           =   1.7776530850766E-02
(PID.TID 0000.0001) %MON dynstat_salt_max             =   3.5292900085449E+01
(PID.TID 0000.0001) %MON dynstat_salt_min             =   3.0708011627197E+01
(PID.TID 0000.0001) %MON dynstat_salt_mean            =   3.4759291324509E+01
(PID.TID 0000.0001) %MON dynstat_salt_sd              =   4.2875014836398E-01
(PID.TID 0000.0001) %MON dynstat_salt_del2            =   4.0406357442838E-03
(PID.TID 0000.0001) %MON forcing_qnet_max             =   0.0000000000000E+00
(PID.TID 0000.0001) %MON forcing_qnet_min             =   0.0000000000000E+00
(PID.TID 0000.0001) %MON forcing_qnet_mean            =   0.0000000000000E+00
(PID.TID 0000.0001) %MON forcing_qnet_sd              =   0.0000000000000E+00
(PID.TID 0000.0001) %MON forcing_qnet_del2            =   0.0000000000000E+00
(PID.TID 0000.0001) %MON forcing_qsw_max              =   0.0000000000000E+00
(PID.TID 0000.0001) %MON forcing_qsw_min              =   0.0000000000000E+00
(PID.TID 0000.0001) %MON forcing_qsw_mean             =   0.0000000000000E+00
(PID.TID 0000.0001) %MON forcing_qsw_sd               =   0.0000000000000E+00
(PID.TID 0000.0001) %MON forcing_qsw_del2             =   0.0000000000000E+00
(PID.TID 0000.0001) %MON forcing_empmr_max            =   0.0000000000000E+00
(PID.TID 0000.0001) %MON forcing_empmr_min            =   0.0000000000000E+00
(PID.TID 0000.0001) %MON forcing_empmr_mean           =   0.0000000000000E+00
(PID.TID 0000.0001) %MON forcing_empmr_sd             =   0.0000000000000E+00
(PID.TID 0000.0001) %MON forcing_empmr_del2           =   0.0000000000000E+00
(PID.TID 0000.0001) %MON forcing_fu_max               =   0.0000000000000E+00
(PID.TID 0000.0001) %MON forcing_fu_min               =   0.0000000000000E+00
(PID.TID 0000.0001) %MON forcing_fu_mean              =   0.0000000000000E+00
(PID.TID 0000.0001) %MON forcing_fu_sd                =   0.0000000000000E+00
(PID.TID 0000.0001) %MON forcing_fu_del2              =   0.0000000000000E+00
(PID.TID 0000.0001) %MON forcing_fv_max               =   0.0000000000000E+00
(PID.TID 0000.0001) %MON forcing_fv_min               =   0.0000000000000E+00
(PID.TID 0000.0001) %MON forcing_fv_mean              =   0.0000000000000E+00
(PID.TID 0000.0001) %MON forcing_fv_sd                =   0.0000000000000E+00
(PID.TID 0000.0001) %MON forcing_fv_del2              =   0.0000000000000E+00
(PID.TID 0000.0001) %MON trAdv_CFL_u_max              =   0.0000000000000E+00
(PID.TID 0000.0001) %MON trAdv_CFL_v_max              =   0.0000000000000E+00
(PID.TID 0000.0001) %MON trAdv_CFL_w_max              =   0.0000000000000E+00
(PID.TID 0000.0001) %MON advcfl_uvel_max              =   1.1451781213500E-03
(PID.TID 0000.0001) %MON advcfl_vvel_max              =   1.1803423205606E-03
(PID.TID 0000.0001) %MON advcfl_wvel_max              =   1.0648112049042E-03
(PID.TID 0000.0001) %MON advcfl_W_hf_max              =   1.3310140061302E-03
(PID.TID 0000.0001) %MON pe_b_mean                    =   0.0000000000000E+00
(PID.TID 0000.0001) %MON ke_max                       =   2.6765885298295E-03
(PID.TID 0000.0001) %MON ke_mean                      =   1.0530059811557E-05
(PID.TID 0000.0001) %MON ke_vol                       =   5.2906584519726E+15
(PID.TID 0000.0001) %MON vort_r_min                   =  -6.7404961605360E-07
(PID.TID 0000.0001) %MON vort_r_max                   =   3.0863779721037E-07
(PID.TID 0000.0001) %MON vort_a_mean                  =   1.2074434650046E-04
(PID.TID 0000.0001) %MON vort_a_sd                    =   8.7672828044144E-06
(PID.TID 0000.0001) %MON vort_p_mean                  =   1.7734550359553E-04
(PID.TID 0000.0001) %MON vort_p_sd                    =   1.1734445415025E-04
(PID.TID 0000.0001) %MON surfExpan_theta_mean         =  -2.5234750939970E-09
(PID.TID 0000.0001) %MON surfExpan_salt_mean          =  -8.7139792668703E-10
(PID.TID 0000.0001) // =======================================================
(PID.TID 0000.0001) // End MONITOR dynamic field statistics
(PID.TID 0000.0001) // =======================================================
(PID.TID 0000.0001) // =======================================================
(PID.TID 0000.0001) // Begin MONITOR SEAICE statistics
(PID.TID 0000.0001) // =======================================================
(PID.TID 0000.0001) %MON seaice_tsnumber              =                     0
(PID.TID 0000.0001) %MON seaice_time_sec              =   0.0000000000000E+00
(PID.TID 0000.0001) %MON seaice_uice_max              =   0.0000000000000E+00
(PID.TID 0000.0001) %MON seaice_uice_min              =   0.0000000000000E+00
(PID.TID 0000.0001) %MON seaice_uice_mean             =   0.0000000000000E+00
(PID.TID 0000.0001) %MON seaice_uice_sd               =   0.0000000000000E+00
(PID.TID 0000.0001) %MON seaice_uice_del2             =   0.0000000000000E+00
(PID.TID 0000.0001) %MON seaice_vice_max              =   0.0000000000000E+00
(PID.TID 0000.0001) %MON seaice_vice_min              =   0.0000000000000E+00
(PID.TID 0000.0001) %MON seaice_vice_mean             =   0.0000000000000E+00
(PID.TID 0000.0001) %MON seaice_vice_sd               =   0.0000000000000E+00
(PID.TID 0000.0001) %MON seaice_vice_del2             =   0.0000000000000E+00
(PID.TID 0000.0001) %MON seaice_area_max              =   1.0000000000000E+00
(PID.TID 0000.0001) %MON seaice_area_min              =   0.0000000000000E+00
(PID.TID 0000.0001) %MON seaice_area_mean             =   3.1892242654168E-01
(PID.TID 0000.0001) %MON seaice_area_sd               =   4.4180255965464E-01
(PID.TID 0000.0001) %MON seaice_area_del2             =   2.1825388263643E-02
(PID.TID 0000.0001) %MON seaice_heff_max              =   1.6267043352127E+00
(PID.TID 0000.0001) %MON seaice_heff_min              =   0.0000000000000E+00
(PID.TID 0000.0001) %MON seaice_heff_mean             =   1.7018417713279E-01
(PID.TID 0000.0001) %MON seaice_heff_sd               =   3.3133654245466E-01
(PID.TID 0000.0001) %MON seaice_heff_del2             =   9.3768935006999E-03
(PID.TID 0000.0001) %MON seaice_hsnow_max             =   3.4525874257088E-01
(PID.TID 0000.0001) %MON seaice_hsnow_min             =   0.0000000000000E+00
(PID.TID 0000.0001) %MON seaice_hsnow_mean            =   3.0355852354147E-02
(PID.TID 0000.0001) %MON seaice_hsnow_sd              =   6.5055228569974E-02
(PID.TID 0000.0001) %MON seaice_hsnow_del2            =   2.1092246502145E-03
(PID.TID 0000.0001) // =======================================================
(PID.TID 0000.0001) // End MONITOR SEAICE statistics
(PID.TID 0000.0001) // =======================================================
(PID.TID 0000.0001)  MDS_READ_FIELD: opening global file: SSS_monthly.labsea1979
(PID.TID 0000.0001)  MDS_READ_FIELD: opening global file: SSS_monthly.labsea1979
(PID.TID 0000.0001)  MDS_READ_FIELD: opening global file: u10m.labsea1979
(PID.TID 0000.0001)  MDS_READ_FIELD: opening global file: u10m.labsea1979
(PID.TID 0000.0001)  MDS_READ_FIELD: opening global file: v10m.labsea1979
(PID.TID 0000.0001)  MDS_READ_FIELD: opening global file: v10m.labsea1979
(PID.TID 0000.0001)  MDS_READ_FIELD: opening global file: tair.labsea1979
(PID.TID 0000.0001)  MDS_READ_FIELD: opening global file: tair.labsea1979
(PID.TID 0000.0001)  MDS_READ_FIELD: opening global file: qa.labsea1979
(PID.TID 0000.0001)  MDS_READ_FIELD: opening global file: qa.labsea1979
(PID.TID 0000.0001)  MDS_READ_FIELD: opening global file: prate.labsea1979
(PID.TID 0000.0001)  MDS_READ_FIELD: opening global file: prate.labsea1979
(PID.TID 0000.0001)  MDS_READ_FIELD: opening global file: fsh.labsea1979
(PID.TID 0000.0001)  MDS_READ_FIELD: opening global file: fsh.labsea1979
(PID.TID 0000.0001)  MDS_READ_FIELD: opening global file: flo.labsea1979
(PID.TID 0000.0001)  MDS_READ_FIELD: opening global file: flo.labsea1979
(PID.TID 0000.0001) // =======================================================
(PID.TID 0000.0001) // Begin MONITOR EXF statistics
(PID.TID 0000.0001) // =======================================================
(PID.TID 0000.0001) %MON exf_tsnumber                 =                     0
(PID.TID 0000.0001) %MON exf_time_sec                 =   0.0000000000000E+00
(PID.TID 0000.0001) %MON exf_ustress_max              =   6.2591006380122E-02
(PID.TID 0000.0001) %MON exf_ustress_min              =  -9.3835413988280E-02
(PID.TID 0000.0001) %MON exf_ustress_mean             =   2.2458079649036E-02
(PID.TID 0000.0001) %MON exf_ustress_sd               =   2.6340941705137E-02
(PID.TID 0000.0001) %MON exf_ustress_del2             =   7.2600971254152E-04
(PID.TID 0000.0001) %MON exf_vstress_max              =   5.3854577139024E-02
(PID.TID 0000.0001) %MON exf_vstress_min              =  -5.9507418221407E-02
(PID.TID 0000.0001) %MON exf_vstress_mean             =  -5.2638556973739E-03
(PID.TID 0000.0001) %MON exf_vstress_sd               =   1.5105723224572E-02
(PID.TID 0000.0001) %MON exf_vstress_del2             =   5.1404984082935E-04
(PID.TID 0000.0001) %MON exf_hflux_max                =   6.3235647765246E+02
(PID.TID 0000.0001) %MON exf_hflux_min                =   8.9530207655674E+01
(PID.TID 0000.0001) %MON exf_hflux_mean               =   2.1601481005417E+02
(PID.TID 0000.0001) %MON exf_hflux_sd                 =   1.3234669364562E+02
(PID.TID 0000.0001) %MON exf_hflux_del2               =   1.3982779365986E+01
(PID.TID 0000.0001) %MON exf_sflux_max                =   4.0710842494884E-08
(PID.TID 0000.0001) %MON exf_sflux_min                =  -8.3161002492640E-08
(PID.TID 0000.0001) %MON exf_sflux_mean               =  -1.6149544686086E-08
(PID.TID 0000.0001) %MON exf_sflux_sd                 =   2.4277353153841E-08
(PID.TID 0000.0001) %MON exf_sflux_del2               =   1.7093569281000E-09
(PID.TID 0000.0001) %MON exf_uwind_max                =   6.4643745422363E+00
(PID.TID 0000.0001) %MON exf_uwind_min                =  -6.8372380733490E+00
(PID.TID 0000.0001) %MON exf_uwind_mean               =   2.8370181222452E+00
(PID.TID 0000.0001) %MON exf_uwind_sd                 =   2.9475532238360E+00
(PID.TID 0000.0001) %MON exf_uwind_del2               =   1.6988186825890E-01
(PID.TID 0000.0001) %MON exf_vwind_max                =   3.9240682125092E+00
(PID.TID 0000.0001) %MON exf_vwind_min                =  -6.0197033882141E+00
(PID.TID 0000.0001) %MON exf_vwind_mean               =  -7.4889380330521E-01
(PID.TID 0000.0001) %MON exf_vwind_sd                 =   1.7352211071507E+00
(PID.TID 0000.0001) %MON exf_vwind_del2               =   1.5460141596301E-01
(PID.TID 0000.0001) %MON exf_wspeed_max               =   7.8832820454477E+00
(PID.TID 0000.0001) %MON exf_wspeed_min               =   4.6035219539401E-01
(PID.TID 0000.0001) %MON exf_wspeed_mean              =   4.2109549956625E+00
(PID.TID 0000.0001) %MON exf_wspeed_sd                =   1.6051274332988E+00
(PID.TID 0000.0001) %MON exf_wspeed_del2              =   2.4139518544364E-01
(PID.TID 0000.0001) %MON exf_atemp_max                =   2.8188281250000E+02
(PID.TID 0000.0001) %MON exf_atemp_min                =   2.3646176910400E+02
(PID.TID 0000.0001) %MON exf_atemp_mean               =   2.6420336209095E+02
(PID.TID 0000.0001) %MON exf_atemp_sd                 =   1.1836420183398E+01
(PID.TID 0000.0001) %MON exf_atemp_del2               =   7.2361364858136E-01
(PID.TID 0000.0001) %MON exf_aqh_max                  =   6.3231729436666E-03
(PID.TID 0000.0001) %MON exf_aqh_min                  =   1.6369274817407E-04
(PID.TID 0000.0001) %MON exf_aqh_mean                 =   2.5064839851314E-03
(PID.TID 0000.0001) %MON exf_aqh_sd                   =   1.4163390074074E-03
(PID.TID 0000.0001) %MON exf_aqh_del2                 =   7.8609288607278E-05
(PID.TID 0000.0001) %MON exf_lwflux_max               =   1.8550934279729E+02
(PID.TID 0000.0001) %MON exf_lwflux_min               =   6.7038794074133E+01
(PID.TID 0000.0001) %MON exf_lwflux_mean              =   9.7155011940226E+01
(PID.TID 0000.0001) %MON exf_lwflux_sd                =   3.0663334456782E+01
(PID.TID 0000.0001) %MON exf_lwflux_del2              =   4.7387583432021E+00
(PID.TID 0000.0001) %MON exf_evap_max                 =   4.7035050318978E-08
(PID.TID 0000.0001) %MON exf_evap_min                 =   5.5248217499521E-09
(PID.TID 0000.0001) %MON exf_evap_mean                =   2.0553837407793E-08
(PID.TID 0000.0001) %MON exf_evap_sd                  =   6.9425121658951E-09
(PID.TID 0000.0001) %MON exf_evap_del2                =   1.0821980679275E-09
(PID.TID 0000.0001) %MON exf_precip_max               =   1.0498766300771E-07
(PID.TID 0000.0001) %MON exf_precip_min               =   2.7359498694368E-10
(PID.TID 0000.0001) %MON exf_precip_mean              =   3.6703382093879E-08
(PID.TID 0000.0001) %MON exf_precip_sd                =   2.0516284487169E-08
(PID.TID 0000.0001) %MON exf_precip_del2              =   1.7241139049865E-09
(PID.TID 0000.0001) %MON exf_swflux_max               =  -8.1205755472183E-02
(PID.TID 0000.0001) %MON exf_swflux_min               =  -6.3973114013672E+01
(PID.TID 0000.0001) %MON exf_swflux_mean              =  -2.6786802948002E+01
(PID.TID 0000.0001) %MON exf_swflux_sd                =   1.9522797885510E+01
(PID.TID 0000.0001) %MON exf_swflux_del2              =   7.9171044652527E-01
(PID.TID 0000.0001) %MON exf_swdown_max               =   7.1081237792969E+01
(PID.TID 0000.0001) %MON exf_swdown_min               =   9.0228617191315E-02
(PID.TID 0000.0001) %MON exf_swdown_mean              =   2.9763114386669E+01
(PID.TID 0000.0001) %MON exf_swdown_sd                =   2.1691997650567E+01
(PID.TID 0000.0001) %MON exf_swdown_del2              =   8.7967827391697E-01
(PID.TID 0000.0001) %MON exf_lwdown_max               =   3.0567971801758E+02
(PID.TID 0000.0001) %MON exf_lwdown_min               =   1.1599769210815E+02
(PID.TID 0000.0001) %MON exf_lwdown_mean              =   2.2684804443379E+02
(PID.TID 0000.0001) %MON exf_lwdown_sd                =   4.5866320108058E+01
(PID.TID 0000.0001) %MON exf_lwdown_del2              =   8.3967842620925E+00
(PID.TID 0000.0001) %MON exf_climsss_max              =   3.5040330886841E+01
(PID.TID 0000.0001) %MON exf_climsss_min              =   3.0666313171387E+01
(PID.TID 0000.0001) %MON exf_climsss_mean             =   3.3453764355664E+01
(PID.TID 0000.0001) %MON exf_climsss_sd               =   1.0369569882943E+00
(PID.TID 0000.0001) %MON exf_climsss_del2             =   2.7354876689838E-02
(PID.TID 0000.0001) // =======================================================
(PID.TID 0000.0001) // End MONITOR EXF statistics
(PID.TID 0000.0001) // =======================================================
(PID.TID 0000.0001) SOLVE_FOR_PRESSURE: putPmEinXvector =    F
 cg2d: Sum(rhs),rhsMax =   1.66533453693773E-16  3.20588607894846E-01
(PID.TID 0000.0001)      cg2d_init_res =   3.68429774331379E+00
(PID.TID 0000.0001)      cg2d_iters(min,last) =      -1      44
(PID.TID 0000.0001)      cg2d_last_res =   7.67921191486738E-13
(PID.TID 0000.0001) // =======================================================
(PID.TID 0000.0001) // Begin MONITOR dynamic field statistics
(PID.TID 0000.0001) // =======================================================
(PID.TID 0000.0001) %MON time_tsnumber                =                     1
(PID.TID 0000.0001) %MON time_secondsf                =   3.6000000000000E+03
(PID.TID 0000.0001) %MON dynstat_eta_max              =   5.0471098423052E-02
(PID.TID 0000.0001) %MON dynstat_eta_min              =  -7.5297814839437E-02
(PID.TID 0000.0001) %MON dynstat_eta_mean             =  -6.6892201874667E-16
(PID.TID 0000.0001) %MON dynstat_eta_sd               =   2.5112785824987E-02
(PID.TID 0000.0001) %MON dynstat_eta_del2             =   1.8072582130627E-03
(PID.TID 0000.0001) %MON dynstat_uvel_max             =   3.5486607055326E-02
(PID.TID 0000.0001) %MON dynstat_uvel_min             =  -2.7374690346763E-02
(PID.TID 0000.0001) %MON dynstat_uvel_mean            =   3.5937026822754E-04
(PID.TID 0000.0001) %MON dynstat_uvel_sd              =   3.3884128742756E-03
(PID.TID 0000.0001) %MON dynstat_uvel_del2            =   1.5867265420286E-04
(PID.TID 0000.0001) %MON dynstat_vvel_max             =   2.4642403828829E-02
(PID.TID 0000.0001) %MON dynstat_vvel_min             =  -6.0239909582724E-02
(PID.TID 0000.0001) %MON dynstat_vvel_mean            =  -1.3767289087649E-03
(PID.TID 0000.0001) %MON dynstat_vvel_sd              =   3.7077785100317E-03
(PID.TID 0000.0001) %MON dynstat_vvel_del2            =   1.3737909296863E-04
(PID.TID 0000.0001) %MON dynstat_wvel_max             =   5.2855116824858E-05
(PID.TID 0000.0001) %MON dynstat_wvel_min             =  -3.3724128397789E-05
(PID.TID 0000.0001) %MON dynstat_wvel_mean            =  -4.4590113435393E-22
(PID.TID 0000.0001) %MON dynstat_wvel_sd              =   1.3556566100111E-05
(PID.TID 0000.0001) %MON dynstat_wvel_del2            =   3.6261755623478E-07
(PID.TID 0000.0001) %MON dynstat_theta_max            =   1.2478892830414E+01
(PID.TID 0000.0001) %MON dynstat_theta_min            =  -1.8577139734367E+00
(PID.TID 0000.0001) %MON dynstat_theta_mean           =   3.0887639014009E+00
(PID.TID 0000.0001) %MON dynstat_theta_sd             =   1.4315913604400E+00
(PID.TID 0000.0001) %MON dynstat_theta_del2           =   1.7774684840355E-02
(PID.TID 0000.0001) %MON dynstat_salt_max             =   3.5292874730300E+01
(PID.TID 0000.0001) %MON dynstat_salt_min             =   3.0708027830051E+01
(PID.TID 0000.0001) %MON dynstat_salt_mean            =   3.4759295998872E+01
(PID.TID 0000.0001) %MON dynstat_salt_sd              =   4.2872754102440E-01
(PID.TID 0000.0001) %MON dynstat_salt_del2            =   4.0401059179834E-03
(PID.TID 0000.0001) %MON forcing_qnet_max             =   2.7469395350233E+02
(PID.TID 0000.0001) %MON forcing_qnet_min             =  -8.3539125682228E+01
(PID.TID 0000.0001) %MON forcing_qnet_mean            =   8.9411344353415E+01
(PID.TID 0000.0001) %MON forcing_qnet_sd              =   6.9502782804106E+01
(PID.TID 0000.0001) %MON forcing_qnet_del2            =   5.8018269240456E+00
(PID.TID 0000.0001) %MON forcing_qsw_max              =   0.0000000000000E+00
(PID.TID 0000.0001) %MON forcing_qsw_min              =  -6.3973114013672E+01
(PID.TID 0000.0001) %MON forcing_qsw_mean             =  -2.4715490806785E+01
(PID.TID 0000.0001) %MON forcing_qsw_sd               =   2.1121670601597E+01
(PID.TID 0000.0001) %MON forcing_qsw_del2             =   3.7619997977397E-01
(PID.TID 0000.0001) %MON forcing_empmr_max            =   8.0342943582396E-04
(PID.TID 0000.0001) %MON forcing_empmr_min            =  -8.3144370292142E-05
(PID.TID 0000.0001) %MON forcing_empmr_mean           =   5.0990179978946E-05
(PID.TID 0000.0001) %MON forcing_empmr_sd             =   1.3935771280748E-04
(PID.TID 0000.0001) %MON forcing_empmr_del2           =   1.5127328707800E-05
(PID.TID 0000.0001) %MON forcing_fu_max               =   6.2046177904916E-02
(PID.TID 0000.0001) %MON forcing_fu_min               =  -1.8185622661909E-02
(PID.TID 0000.0001) %MON forcing_fu_mean              =   2.3990471636792E-02
(PID.TID 0000.0001) %MON forcing_fu_sd                =   2.0888079934650E-02
(PID.TID 0000.0001) %MON forcing_fu_del2              =   5.9311313559226E-04
(PID.TID 0000.0001) %MON forcing_fv_max               =   1.4701493529220E-02
(PID.TID 0000.0001) %MON forcing_fv_min               =  -4.1890912750340E-02
(PID.TID 0000.0001) %MON forcing_fv_mean              =  -4.6379958222023E-03
(PID.TID 0000.0001) %MON forcing_fv_sd                =   1.1557940352806E-02
(PID.TID 0000.0001) %MON forcing_fv_del2              =   4.6594258136829E-04
(PID.TID 0000.0001) %MON trAdv_CFL_u_max              =   1.1452362636170E-03
(PID.TID 0000.0001) %MON trAdv_CFL_v_max              =   1.2173874020514E-03
(PID.TID 0000.0001) %MON trAdv_CFL_w_max              =   1.3310140061302E-03
(PID.TID 0000.0001) %MON advcfl_uvel_max              =   1.0015224957206E-03
(PID.TID 0000.0001) %MON advcfl_vvel_max              =   9.7515094007403E-04
(PID.TID 0000.0001) %MON advcfl_wvel_max              =   1.5059562967884E-02
(PID.TID 0000.0001) %MON advcfl_W_hf_max              =   7.7559645303900E-03
(PID.TID 0000.0001) %MON pe_b_mean                    =   2.0580990519068E-06
(PID.TID 0000.0001) %MON ke_max                       =   1.8314405316118E-03
(PID.TID 0000.0001) %MON ke_mean                      =   1.0670684612248E-05
(PID.TID 0000.0001) %MON ke_vol                       =   5.2906584519726E+15
(PID.TID 0000.0001) %MON vort_r_min                   =  -5.5291229564479E-07
(PID.TID 0000.0001) %MON vort_r_max                   =   2.7767743799361E-07
(PID.TID 0000.0001) %MON vort_a_mean                  =   1.2074434650046E-04
(PID.TID 0000.0001) %MON vort_a_sd                    =   8.7675004117722E-06
(PID.TID 0000.0001) %MON vort_p_mean                  =   1.7734550359553E-04
(PID.TID 0000.0001) %MON vort_p_sd                    =   1.1735769867913E-04
(PID.TID 0000.0001) %MON surfExpan_theta_mean         =   7.2689908665432E-06
(PID.TID 0000.0001) %MON surfExpan_salt_mean          =  -1.0542522517536E-06
(PID.TID 0000.0001) // =======================================================
(PID.TID 0000.0001) // End MONITOR dynamic field statistics
(PID.TID 0000.0001) // =======================================================
(PID.TID 0000.0001) // =======================================================
(PID.TID 0000.0001) // Begin MONITOR SEAICE statistics
(PID.TID 0000.0001) // =======================================================
(PID.TID 0000.0001) %MON seaice_tsnumber              =                     1
(PID.TID 0000.0001) %MON seaice_time_sec              =   3.6000000000000E+03
(PID.TID 0000.0001) %MON seaice_uice_max              =   1.2442667017430E-01
(PID.TID 0000.0001) %MON seaice_uice_min              =  -6.3933759860205E-02
(PID.TID 0000.0001) %MON seaice_uice_mean             =   4.9688117493415E-02
(PID.TID 0000.0001) %MON seaice_uice_sd               =   4.8533928501180E-02
(PID.TID 0000.0001) %MON seaice_uice_del2             =   1.4207092811094E-03
(PID.TID 0000.0001) %MON seaice_vice_max              =   4.5937139187222E-02
(PID.TID 0000.0001) %MON seaice_vice_min              =  -1.2546179407784E-01
(PID.TID 0000.0001) %MON seaice_vice_mean             =  -2.3864340577162E-02
(PID.TID 0000.0001) %MON seaice_vice_sd               =   3.8809698229376E-02
(PID.TID 0000.0001) %MON seaice_vice_del2             =   1.5729908011116E-03
(PID.TID 0000.0001) %MON seaice_area_max              =   9.9999657439348E-01
(PID.TID 0000.0001) %MON seaice_area_min              =   0.0000000000000E+00
(PID.TID 0000.0001) %MON seaice_area_mean             =   3.1906594076125E-01
(PID.TID 0000.0001) %MON seaice_area_sd               =   4.4180675677365E-01
(PID.TID 0000.0001) %MON seaice_area_del2             =   2.1802713133034E-02
(PID.TID 0000.0001) %MON seaice_heff_max              =   1.6269441707848E+00
(PID.TID 0000.0001) %MON seaice_heff_min              =   0.0000000000000E+00
(PID.TID 0000.0001) %MON seaice_heff_mean             =   1.7046472755144E-01
(PID.TID 0000.0001) %MON seaice_heff_sd               =   3.3145297468840E-01
(PID.TID 0000.0001) %MON seaice_heff_del2             =   9.3651630460250E-03
(PID.TID 0000.0001) %MON seaice_hsnow_max             =   3.4530448926978E-01
(PID.TID 0000.0001) %MON seaice_hsnow_min             =   0.0000000000000E+00
(PID.TID 0000.0001) %MON seaice_hsnow_mean            =   3.0405609409312E-02
(PID.TID 0000.0001) %MON seaice_hsnow_sd              =   6.5096362732883E-02
(PID.TID 0000.0001) %MON seaice_hsnow_del2            =   2.1112362938759E-03
(PID.TID 0000.0001) // =======================================================
(PID.TID 0000.0001) // End MONITOR SEAICE statistics
(PID.TID 0000.0001) // =======================================================
(PID.TID 0000.0001) // =======================================================
(PID.TID 0000.0001) // Begin MONITOR EXF statistics
(PID.TID 0000.0001) // =======================================================
(PID.TID 0000.0001) %MON exf_tsnumber                 =                     1
(PID.TID 0000.0001) %MON exf_time_sec                 =   3.6000000000000E+03
(PID.TID 0000.0001) %MON exf_ustress_max              =   6.2602047611654E-02
(PID.TID 0000.0001) %MON exf_ustress_min              =  -9.3838443106487E-02
(PID.TID 0000.0001) %MON exf_ustress_mean             =   2.2460763086368E-02
(PID.TID 0000.0001) %MON exf_ustress_sd               =   2.6345419614848E-02
(PID.TID 0000.0001) %MON exf_ustress_del2             =   7.2608836159583E-04
(PID.TID 0000.0001) %MON exf_vstress_max              =   5.3856518890348E-02
(PID.TID 0000.0001) %MON exf_vstress_min              =  -5.9490723956129E-02
(PID.TID 0000.0001) %MON exf_vstress_mean             =  -5.2593087771260E-03
(PID.TID 0000.0001) %MON exf_vstress_sd               =   1.5107341294067E-02
(PID.TID 0000.0001) %MON exf_vstress_del2             =   5.1407745357687E-04
(PID.TID 0000.0001) %MON exf_hflux_max                =   6.3246114010260E+02
(PID.TID 0000.0001) %MON exf_hflux_min                =   8.9526842472279E+01
(PID.TID 0000.0001) %MON exf_hflux_mean               =   2.1607296390734E+02
(PID.TID 0000.0001) %MON exf_hflux_sd                 =   1.3240062506954E+02
(PID.TID 0000.0001) %MON exf_hflux_del2               =   1.3989108468296E+01
(PID.TID 0000.0001) %MON exf_sflux_max                =   4.0717752374036E-08
(PID.TID 0000.0001) %MON exf_sflux_min                =  -8.3166994977651E-08
(PID.TID 0000.0001) %MON exf_sflux_mean               =  -1.6145123257967E-08
(PID.TID 0000.0001) %MON exf_sflux_sd                 =   2.4281808954240E-08
(PID.TID 0000.0001) %MON exf_sflux_del2               =   1.7096012356281E-09
(PID.TID 0000.0001) %MON exf_uwind_max                =   6.4648819946852E+00
(PID.TID 0000.0001) %MON exf_uwind_min                =  -6.8372648550513E+00
(PID.TID 0000.0001) %MON exf_uwind_mean               =   2.8371259923752E+00
(PID.TID 0000.0001) %MON exf_uwind_sd                 =   2.9478360963827E+00
(PID.TID 0000.0001) %MON exf_uwind_del2               =   8.0529766831477E-02
(PID.TID 0000.0001) %MON exf_vwind_max                =   3.9240983933048E+00
(PID.TID 0000.0001) %MON exf_vwind_min                =  -6.0187974783892E+00
(PID.TID 0000.0001) %MON exf_vwind_mean               =  -7.4826550865358E-01
(PID.TID 0000.0001) %MON exf_vwind_sd                 =   1.7353240656626E+00
(PID.TID 0000.0001) %MON exf_vwind_del2               =   4.8320498446218E-02
(PID.TID 0000.0001) %MON exf_wspeed_max               =   7.8833202965791E+00
(PID.TID 0000.0001) %MON exf_wspeed_min               =   4.6010935417159E-01
(PID.TID 0000.0001) %MON exf_wspeed_mean              =   4.2110579301607E+00
(PID.TID 0000.0001) %MON exf_wspeed_sd                =   1.6053857919163E+00
(PID.TID 0000.0001) %MON exf_wspeed_del2              =   2.4139227116736E-01
(PID.TID 0000.0001) %MON exf_atemp_max                =   2.8188110034713E+02
(PID.TID 0000.0001) %MON exf_atemp_min                =   2.3645730413635E+02
(PID.TID 0000.0001) %MON exf_atemp_mean               =   2.6419869255544E+02
(PID.TID 0000.0001) %MON exf_atemp_sd                 =   1.1837961872176E+01
(PID.TID 0000.0001) %MON exf_atemp_del2               =   7.2391945460912E-01
(PID.TID 0000.0001) %MON exf_aqh_max                  =   6.3224764028055E-03
(PID.TID 0000.0001) %MON exf_aqh_min                  =   1.6359864467567E-04
(PID.TID 0000.0001) %MON exf_aqh_mean                 =   2.5059176936890E-03
(PID.TID 0000.0001) %MON exf_aqh_sd                   =   1.4162426156286E-03
(PID.TID 0000.0001) %MON exf_aqh_del2                 =   7.8584773798079E-05
(PID.TID 0000.0001) %MON exf_lwflux_max               =   1.8553453255704E+02
(PID.TID 0000.0001) %MON exf_lwflux_min               =   6.7039869205182E+01
(PID.TID 0000.0001) %MON exf_lwflux_mean              =   9.7169288857226E+01
(PID.TID 0000.0001) %MON exf_lwflux_sd                =   3.0673101873205E+01
(PID.TID 0000.0001) %MON exf_lwflux_del2              =   4.7399819676324E+00
(PID.TID 0000.0001) %MON exf_evap_max                 =   4.7041297487199E-08
(PID.TID 0000.0001) %MON exf_evap_min                 =   5.5191742549868E-09
(PID.TID 0000.0001) %MON exf_evap_mean                =   2.0558240903163E-08
(PID.TID 0000.0001) %MON exf_evap_sd                  =   6.9430445183236E-09
(PID.TID 0000.0001) %MON exf_evap_del2                =   1.0826788709361E-09
(PID.TID 0000.0001) %MON exf_precip_max               =   1.0498904445033E-07
(PID.TID 0000.0001) %MON exf_precip_min               =   2.7346106047101E-10
(PID.TID 0000.0001) %MON exf_precip_mean              =   3.6703364161130E-08
(PID.TID 0000.0001) %MON exf_precip_sd                =   2.0516750441311E-08
(PID.TID 0000.0001) %MON exf_precip_del2              =   1.7243972579400E-09
(PID.TID 0000.0001) %MON exf_swflux_max               =  -8.1206038349965E-02
(PID.TID 0000.0001) %MON exf_swflux_min               =  -6.3991984364244E+01
(PID.TID 0000.0001) %MON exf_swflux_mean              =  -2.6797468382408E+01
(PID.TID 0000.0001) %MON exf_swflux_sd                =   1.9526520290243E+01
(PID.TID 0000.0001) %MON exf_swflux_del2              =   7.9212318734339E-01
(PID.TID 0000.0001) %MON exf_swdown_max               =   7.1102204849160E+01
(PID.TID 0000.0001) %MON exf_swdown_min               =   9.0228931499961E-02
(PID.TID 0000.0001) %MON exf_swdown_mean              =   2.9774964869343E+01
(PID.TID 0000.0001) %MON exf_swdown_sd                =   2.1696133655825E+01
(PID.TID 0000.0001) %MON exf_swdown_del2              =   8.8013687482599E-01
(PID.TID 0000.0001) %MON exf_lwdown_max               =   3.0567089193375E+02
(PID.TID 0000.0001) %MON exf_lwdown_min               =   1.1598258522951E+02
(PID.TID 0000.0001) %MON exf_lwdown_mean              =   2.2683221132984E+02
(PID.TID 0000.0001) %MON exf_lwdown_sd                =   4.5870571905766E+01
(PID.TID 0000.0001) %MON exf_lwdown_del2              =   8.3958030971217E+00
(PID.TID 0000.0001) %MON exf_climsss_max              =   3.5040515633880E+01
(PID.TID 0000.0001) %MON exf_climsss_min              =   3.0667072499385E+01
(PID.TID 0000.0001) %MON exf_climsss_mean             =   3.3454276887881E+01
(PID.TID 0000.0001) %MON exf_climsss_sd               =   1.0368790583257E+00
(PID.TID 0000.0001) %MON exf_climsss_del2             =   2.7352292621467E-02
(PID.TID 0000.0001) // =======================================================
(PID.TID 0000.0001) // End MONITOR EXF statistics
(PID.TID 0000.0001) // =======================================================
 cg2d: Sum(rhs),rhsMax =   8.62712679072786E-14  3.46518852165452E-01
(PID.TID 0000.0001)      cg2d_init_res =   4.93497153604338E-01
(PID.TID 0000.0001)      cg2d_iters(min,last) =      -1      42
(PID.TID 0000.0001)      cg2d_last_res =   3.14237368738283E-13
(PID.TID 0000.0001) // =======================================================
(PID.TID 0000.0001) // Begin MONITOR dynamic field statistics
(PID.TID 0000.0001) // =======================================================
(PID.TID 0000.0001) %MON time_tsnumber                =                     2
(PID.TID 0000.0001) %MON time_secondsf                =   7.2000000000000E+03
(PID.TID 0000.0001) %MON dynstat_eta_max              =   9.0363282000305E-02
(PID.TID 0000.0001) %MON dynstat_eta_min              =  -1.0077810814461E-01
(PID.TID 0000.0001) %MON dynstat_eta_mean             =  -8.1237862934837E-16
(PID.TID 0000.0001) %MON dynstat_eta_sd               =   3.9895400966982E-02
(PID.TID 0000.0001) %MON dynstat_eta_del2             =   1.9977921706568E-03
(PID.TID 0000.0001) %MON dynstat_uvel_max             =   4.6341746910232E-02
(PID.TID 0000.0001) %MON dynstat_uvel_min             =  -3.1800012071432E-02
(PID.TID 0000.0001) %MON dynstat_uvel_mean            =   2.0294079461649E-04
(PID.TID 0000.0001) %MON dynstat_uvel_sd              =   4.2302217940498E-03
(PID.TID 0000.0001) %MON dynstat_uvel_del2            =   2.0445441008010E-04
(PID.TID 0000.0001) %MON dynstat_vvel_max             =   1.9212038385953E-02
(PID.TID 0000.0001) %MON dynstat_vvel_min             =  -5.7049925323639E-02
(PID.TID 0000.0001) %MON dynstat_vvel_mean            =  -1.4419655540748E-03
(PID.TID 0000.0001) %MON dynstat_vvel_sd              =   3.5889401564214E-03
(PID.TID 0000.0001) %MON dynstat_vvel_del2            =   1.5504376192336E-04
(PID.TID 0000.0001) %MON dynstat_wvel_max             =   7.1289668859851E-05
(PID.TID 0000.0001) %MON dynstat_wvel_min             =  -4.6815762564834E-05
(PID.TID 0000.0001) %MON dynstat_wvel_mean            =   1.4863371145131E-22
(PID.TID 0000.0001) %MON dynstat_wvel_sd              =   1.6639890102667E-05
(PID.TID 0000.0001) %MON dynstat_wvel_del2            =   4.5839735805028E-07
(PID.TID 0000.0001) %MON dynstat_theta_max            =   1.2476411143152E+01
(PID.TID 0000.0001) %MON dynstat_theta_min            =  -1.8572595854950E+00
(PID.TID 0000.0001) %MON dynstat_theta_mean           =   3.0886800257985E+00
(PID.TID 0000.0001) %MON dynstat_theta_sd             =   1.4314602056754E+00
(PID.TID 0000.0001) %MON dynstat_theta_del2           =   1.7774745306352E-02
(PID.TID 0000.0001) %MON dynstat_salt_max             =   3.5292882891460E+01
(PID.TID 0000.0001) %MON dynstat_salt_min             =   3.0708044954787E+01
(PID.TID 0000.0001) %MON dynstat_salt_mean            =   3.4759303312636E+01
(PID.TID 0000.0001) %MON dynstat_salt_sd              =   4.2869547243407E-01
(PID.TID 0000.0001) %MON dynstat_salt_del2            =   4.0376501316813E-03
(PID.TID 0000.0001) %MON forcing_qnet_max             =   2.7465670935750E+02
(PID.TID 0000.0001) %MON forcing_qnet_min             =  -6.9147797129470E+01
(PID.TID 0000.0001) %MON forcing_qnet_mean            =   9.5817119304048E+01
(PID.TID 0000.0001) %MON forcing_qnet_sd              =   6.3295141067868E+01
(PID.TID 0000.0001) %MON forcing_qnet_del2            =   5.1675017899118E+00
(PID.TID 0000.0001) %MON forcing_qsw_max              =  -2.7903575995367E-07
(PID.TID 0000.0001) %MON forcing_qsw_min              =  -6.3991984364244E+01
(PID.TID 0000.0001) %MON forcing_qsw_mean             =  -2.4721076957370E+01
(PID.TID 0000.0001) %MON forcing_qsw_sd               =   2.1127501544713E+01
(PID.TID 0000.0001) %MON forcing_qsw_del2             =   3.7629069886786E-01
(PID.TID 0000.0001) %MON forcing_empmr_max            =   7.5811105011607E-04
(PID.TID 0000.0001) %MON forcing_empmr_min            =  -8.3150361578656E-05
(PID.TID 0000.0001) %MON forcing_empmr_mean           =   3.1676375916114E-05
(PID.TID 0000.0001) %MON forcing_empmr_sd             =   1.1583308040754E-04
(PID.TID 0000.0001) %MON forcing_empmr_del2           =   1.1213790592919E-05
(PID.TID 0000.0001) %MON forcing_fu_max               =   6.2056297628509E-02
(PID.TID 0000.0001) %MON forcing_fu_min               =  -1.8185086617675E-02
(PID.TID 0000.0001) %MON forcing_fu_mean              =   2.3948242698341E-02
(PID.TID 0000.0001) %MON forcing_fu_sd                =   2.0898773347348E-02
(PID.TID 0000.0001) %MON forcing_fu_del2              =   5.8614991229247E-04
(PID.TID 0000.0001) %MON forcing_fv_max               =   1.4705204180701E-02
(PID.TID 0000.0001) %MON forcing_fv_min               =  -4.1876813032219E-02
(PID.TID 0000.0001) %MON forcing_fv_mean              =  -4.6703497745870E-03
(PID.TID 0000.0001) %MON forcing_fv_sd                =   1.1558133977640E-02
(PID.TID 0000.0001) %MON forcing_fv_del2              =   4.4824618192564E-04
(PID.TID 0000.0001) %MON trAdv_CFL_u_max              =   1.0015733443941E-03
(PID.TID 0000.0001) %MON trAdv_CFL_v_max              =   1.0057560835240E-03
(PID.TID 0000.0001) %MON trAdv_CFL_w_max              =   7.7559645303900E-03
(PID.TID 0000.0001) %MON advcfl_uvel_max              =   1.3078822088916E-03
(PID.TID 0000.0001) %MON advcfl_vvel_max              =   9.2351214827277E-04
(PID.TID 0000.0001) %MON advcfl_wvel_max              =   8.3920288069606E-03
(PID.TID 0000.0001) %MON advcfl_W_hf_max              =   4.7235866690306E-03
(PID.TID 0000.0001) %MON pe_b_mean                    =   5.1942417136592E-06
(PID.TID 0000.0001) %MON ke_max                       =   1.6221684111141E-03
(PID.TID 0000.0001) %MON ke_mean                      =   1.2903140336993E-05
(PID.TID 0000.0001) %MON ke_vol                       =   5.2906584519726E+15
(PID.TID 0000.0001) %MON vort_r_min                   =  -4.3855831351837E-07
(PID.TID 0000.0001) %MON vort_r_max                   =   2.6247405634899E-07
(PID.TID 0000.0001) %MON vort_a_mean                  =   1.2074434650046E-04
(PID.TID 0000.0001) %MON vort_a_sd                    =   8.7672884117143E-06
(PID.TID 0000.0001) %MON vort_p_mean                  =   1.7734550359553E-04
(PID.TID 0000.0001) %MON vort_p_sd                    =   1.1736166030238E-04
(PID.TID 0000.0001) %MON surfExpan_theta_mean         =   7.3461514195377E-06
(PID.TID 0000.0001) %MON surfExpan_salt_mean          =  -8.5183751359662E-07
(PID.TID 0000.0001) // =======================================================
(PID.TID 0000.0001) // End MONITOR dynamic field statistics
(PID.TID 0000.0001) // =======================================================
(PID.TID 0000.0001) // =======================================================
(PID.TID 0000.0001) // Begin MONITOR SEAICE statistics
(PID.TID 0000.0001) // =======================================================
(PID.TID 0000.0001) %MON seaice_tsnumber              =                     2
(PID.TID 0000.0001) %MON seaice_time_sec              =   7.2000000000000E+03
(PID.TID 0000.0001) %MON seaice_uice_max              =   1.3229166804527E-01
(PID.TID 0000.0001) %MON seaice_uice_min              =  -7.3307353600929E-02
(PID.TID 0000.0001) %MON seaice_uice_mean             =   5.2963878419653E-02
(PID.TID 0000.0001) %MON seaice_uice_sd               =   5.0790285075642E-02
(PID.TID 0000.0001) %MON seaice_uice_del2             =   1.6299640701005E-03
(PID.TID 0000.0001) %MON seaice_vice_max              =   4.6929636017024E-02
(PID.TID 0000.0001) %MON seaice_vice_min              =  -1.1476808856623E-01
(PID.TID 0000.0001) %MON seaice_vice_mean             =  -2.3994377411455E-02
(PID.TID 0000.0001) %MON seaice_vice_sd               =   3.8934775883774E-02
(PID.TID 0000.0001) %MON seaice_vice_del2             =   1.5422340686887E-03
(PID.TID 0000.0001) %MON seaice_area_max              =   9.9999260867722E-01
(PID.TID 0000.0001) %MON seaice_area_min              =   0.0000000000000E+00
(PID.TID 0000.0001) %MON seaice_area_mean             =   3.1905078510604E-01
(PID.TID 0000.0001) %MON seaice_area_sd               =   4.4165946221047E-01
(PID.TID 0000.0001) %MON seaice_area_del2             =   2.1778618545423E-02
(PID.TID 0000.0001) %MON seaice_heff_max              =   1.6270664214728E+00
(PID.TID 0000.0001) %MON seaice_heff_min              =   0.0000000000000E+00
(PID.TID 0000.0001) %MON seaice_heff_mean             =   1.7066891773057E-01
(PID.TID 0000.0001) %MON seaice_heff_sd               =   3.3155897240316E-01
(PID.TID 0000.0001) %MON seaice_heff_del2             =   9.3673734878531E-03
(PID.TID 0000.0001) %MON seaice_hsnow_max             =   3.4541037724062E-01
(PID.TID 0000.0001) %MON seaice_hsnow_min             =   0.0000000000000E+00
(PID.TID 0000.0001) %MON seaice_hsnow_mean            =   3.0455284468523E-02
(PID.TID 0000.0001) %MON seaice_hsnow_sd              =   6.5137461206065E-02
(PID.TID 0000.0001) %MON seaice_hsnow_del2            =   2.1132949290555E-03
(PID.TID 0000.0001) // =======================================================
(PID.TID 0000.0001) // End MONITOR SEAICE statistics
(PID.TID 0000.0001) // =======================================================
(PID.TID 0000.0001) // =======================================================
(PID.TID 0000.0001) // Begin MONITOR EXF statistics
(PID.TID 0000.0001) // =======================================================
(PID.TID 0000.0001) %MON exf_tsnumber                 =                     2
(PID.TID 0000.0001) %MON exf_time_sec                 =   7.2000000000000E+03
(PID.TID 0000.0001) %MON exf_ustress_max              =   6.2613016445045E-02
(PID.TID 0000.0001) %MON exf_ustress_min              =  -9.3841420566427E-02
(PID.TID 0000.0001) %MON exf_ustress_mean             =   2.2463381567526E-02
(PID.TID 0000.0001) %MON exf_ustress_sd               =   2.6349682117784E-02
(PID.TID 0000.0001) %MON exf_ustress_del2             =   7.2616067417215E-04
(PID.TID 0000.0001) %MON exf_vstress_max              =   5.3858431004960E-02
(PID.TID 0000.0001) %MON exf_vstress_min              =  -5.9473902851471E-02
(PID.TID 0000.0001) %MON exf_vstress_mean             =  -5.2546429510640E-03
(PID.TID 0000.0001) %MON exf_vstress_sd               =   1.5108734561526E-02
(PID.TID 0000.0001) %MON exf_vstress_del2             =   5.1409767641265E-04
(PID.TID 0000.0001) %MON exf_hflux_max                =   6.3256251822520E+02
(PID.TID 0000.0001) %MON exf_hflux_min                =   8.9524929465185E+01
(PID.TID 0000.0001) %MON exf_hflux_mean               =   2.1611246022103E+02
(PID.TID 0000.0001) %MON exf_hflux_sd                 =   1.3245203901598E+02
(PID.TID 0000.0001) %MON exf_hflux_del2               =   1.3995191318541E+01
(PID.TID 0000.0001) %MON exf_sflux_max                =   4.0724229978660E-08
(PID.TID 0000.0001) %MON exf_sflux_min                =  -8.3173779587613E-08
(PID.TID 0000.0001) %MON exf_sflux_mean               =  -1.6142967616473E-08
(PID.TID 0000.0001) %MON exf_sflux_sd                 =   2.4285989692146E-08
(PID.TID 0000.0001) %MON exf_sflux_del2               =   1.7100421927166E-09
(PID.TID 0000.0001) %MON exf_uwind_max                =   6.4653894471340E+00
(PID.TID 0000.0001) %MON exf_uwind_min                =  -6.8372916367536E+00
(PID.TID 0000.0001) %MON exf_uwind_mean               =   2.8372338625051E+00
(PID.TID 0000.0001) %MON exf_uwind_sd                 =   2.9481190093074E+00
(PID.TID 0000.0001) %MON exf_uwind_del2               =   8.0529645937023E-02
(PID.TID 0000.0001) %MON exf_vwind_max                =   3.9241285741003E+00
(PID.TID 0000.0001) %MON exf_vwind_min                =  -6.0178915685643E+00
(PID.TID 0000.0001) %MON exf_vwind_mean               =  -7.4763721400196E-01
(PID.TID 0000.0001) %MON exf_vwind_sd                 =   1.7354271340559E+00
(PID.TID 0000.0001) %MON exf_vwind_del2               =   4.8320777218940E-02
(PID.TID 0000.0001) %MON exf_wspeed_max               =   7.8833585477315E+00
(PID.TID 0000.0001) %MON exf_wspeed_min               =   4.5986651533145E-01
(PID.TID 0000.0001) %MON exf_wspeed_mean              =   4.2111609950724E+00
(PID.TID 0000.0001) %MON exf_wspeed_sd                =   1.6056442627631E+00
(PID.TID 0000.0001) %MON exf_wspeed_del2              =   2.4138936389485E-01
(PID.TID 0000.0001) %MON exf_atemp_max                =   2.8187938819427E+02
(PID.TID 0000.0001) %MON exf_atemp_min                =   2.3645283916869E+02
(PID.TID 0000.0001) %MON exf_atemp_mean               =   2.6419402301992E+02
(PID.TID 0000.0001) %MON exf_atemp_sd                 =   1.1839504038380E+01
(PID.TID 0000.0001) %MON exf_atemp_del2               =   7.2422531938797E-01
(PID.TID 0000.0001) %MON exf_aqh_max                  =   6.3217798619445E-03
(PID.TID 0000.0001) %MON exf_aqh_min                  =   1.6350454117726E-04
(PID.TID 0000.0001) %MON exf_aqh_mean                 =   2.5053514022466E-03
(PID.TID 0000.0001) %MON exf_aqh_sd                   =   1.4161462594733E-03
(PID.TID 0000.0001) %MON exf_aqh_del2                 =   7.8560262105827E-05
(PID.TID 0000.0001) %MON exf_lwflux_max               =   1.8555069795437E+02
(PID.TID 0000.0001) %MON exf_lwflux_min               =   6.7041008891586E+01
(PID.TID 0000.0001) %MON exf_lwflux_mean              =   9.7179295323873E+01
(PID.TID 0000.0001) %MON exf_lwflux_sd                =   3.0682927815144E+01
(PID.TID 0000.0001) %MON exf_lwflux_del2              =   4.7411006068638E+00
(PID.TID 0000.0001) %MON exf_evap_max                 =   4.7047112380893E-08
(PID.TID 0000.0001) %MON exf_evap_min                 =   5.5081136609036E-09
(PID.TID 0000.0001) %MON exf_evap_mean                =   2.0560378611907E-08
(PID.TID 0000.0001) %MON exf_evap_sd                  =   6.9444837545506E-09
(PID.TID 0000.0001) %MON exf_evap_del2                =   1.0831109989440E-09
(PID.TID 0000.0001) %MON exf_precip_max               =   1.0499042589295E-07
(PID.TID 0000.0001) %MON exf_precip_min               =   2.7332713399833E-10
(PID.TID 0000.0001) %MON exf_precip_mean              =   3.6703346228381E-08
(PID.TID 0000.0001) %MON exf_precip_sd                =   2.0517217060634E-08
(PID.TID 0000.0001) %MON exf_precip_del2              =   1.7246806573498E-09
(PID.TID 0000.0001) %MON exf_swflux_max               =  -8.1206321227746E-02
(PID.TID 0000.0001) %MON exf_swflux_min               =  -6.4010854714816E+01
(PID.TID 0000.0001) %MON exf_swflux_mean              =  -2.6808133816815E+01
(PID.TID 0000.0001) %MON exf_swflux_sd                =   1.9530243278558E+01
(PID.TID 0000.0001) %MON exf_swflux_del2              =   7.9253601563180E-01
(PID.TID 0000.0001) %MON exf_swdown_max               =   7.1123171905351E+01
(PID.TID 0000.0001) %MON exf_swdown_min               =   9.0229245808607E-02
(PID.TID 0000.0001) %MON exf_swdown_mean              =   2.9786815352017E+01
(PID.TID 0000.0001) %MON exf_swdown_sd                =   2.1700270309509E+01
(PID.TID 0000.0001) %MON exf_swdown_del2              =   8.8059557292422E-01
(PID.TID 0000.0001) %MON exf_lwdown_max               =   3.0566206584993E+02
(PID.TID 0000.0001) %MON exf_lwdown_min               =   1.1596747835086E+02
(PID.TID 0000.0001) %MON exf_lwdown_mean              =   2.2681637822588E+02
(PID.TID 0000.0001) %MON exf_lwdown_sd                =   4.5874824822655E+01
(PID.TID 0000.0001) %MON exf_lwdown_del2              =   8.3948219739597E+00
(PID.TID 0000.0001) %MON exf_climsss_max              =   3.5040700380919E+01
(PID.TID 0000.0001) %MON exf_climsss_min              =   3.0667831827383E+01
(PID.TID 0000.0001) %MON exf_climsss_mean             =   3.3454789420098E+01
(PID.TID 0000.0001) %MON exf_climsss_sd               =   1.0368013469837E+00
(PID.TID 0000.0001) %MON exf_climsss_del2             =   2.7349724435664E-02
(PID.TID 0000.0001) // =======================================================
(PID.TID 0000.0001) // End MONITOR EXF statistics
(PID.TID 0000.0001) // =======================================================
 cg2d: Sum(rhs),rhsMax =   9.84490267086358E-14  3.62192522644034E-01
(PID.TID 0000.0001)      cg2d_init_res =   2.17606756639385E-01
(PID.TID 0000.0001)      cg2d_iters(min,last) =      -1      41
(PID.TID 0000.0001)      cg2d_last_res =   5.12595834138212E-13
(PID.TID 0000.0001) // =======================================================
(PID.TID 0000.0001) // Begin MONITOR dynamic field statistics
(PID.TID 0000.0001) // =======================================================
(PID.TID 0000.0001) %MON time_tsnumber                =                     3
(PID.TID 0000.0001) %MON time_secondsf                =   1.0800000000000E+04
(PID.TID 0000.0001) %MON dynstat_eta_max              =   1.0658635576251E-01
(PID.TID 0000.0001) %MON dynstat_eta_min              =  -1.0580673879275E-01
(PID.TID 0000.0001) %MON dynstat_eta_mean             =   9.6722068523591E-17
(PID.TID 0000.0001) %MON dynstat_eta_sd               =   4.6729256291286E-02
(PID.TID 0000.0001) %MON dynstat_eta_del2             =   1.8963882796084E-03
(PID.TID 0000.0001) %MON dynstat_uvel_max             =   4.9718526366615E-02
(PID.TID 0000.0001) %MON dynstat_uvel_min             =  -3.3994032333770E-02
(PID.TID 0000.0001) %MON dynstat_uvel_mean            =   1.2570254131024E-04
(PID.TID 0000.0001) %MON dynstat_uvel_sd              =   4.5799866924081E-03
(PID.TID 0000.0001) %MON dynstat_uvel_del2            =   2.1753866975409E-04
(PID.TID 0000.0001) %MON dynstat_vvel_max             =   1.8039401462699E-02
(PID.TID 0000.0001) %MON dynstat_vvel_min             =  -5.5369346999848E-02
(PID.TID 0000.0001) %MON dynstat_vvel_mean            =  -9.3694905231041E-04
(PID.TID 0000.0001) %MON dynstat_vvel_sd              =   3.6085848560411E-03
(PID.TID 0000.0001) %MON dynstat_vvel_del2            =   1.6640289131906E-04
(PID.TID 0000.0001) %MON dynstat_wvel_max             =   7.9107414654028E-05
(PID.TID 0000.0001) %MON dynstat_wvel_min             =  -4.7075078888949E-05
(PID.TID 0000.0001) %MON dynstat_wvel_mean            =  -8.9180226870786E-22
(PID.TID 0000.0001) %MON dynstat_wvel_sd              =   1.7669805530564E-05
(PID.TID 0000.0001) %MON dynstat_wvel_del2            =   4.9699858130981E-07
(PID.TID 0000.0001) %MON dynstat_theta_max            =   1.2475668709663E+01
(PID.TID 0000.0001) %MON dynstat_theta_min            =  -1.8573373639122E+00
(PID.TID 0000.0001) %MON dynstat_theta_mean           =   3.0886046929656E+00
(PID.TID 0000.0001) %MON dynstat_theta_sd             =   1.4313920587265E+00
(PID.TID 0000.0001) %MON dynstat_theta_del2           =   1.7778911166058E-02
(PID.TID 0000.0001) %MON dynstat_salt_max             =   3.5292867759418E+01
(PID.TID 0000.0001) %MON dynstat_salt_min             =   3.0708060663171E+01
(PID.TID 0000.0001) %MON dynstat_salt_mean            =   3.4759307740267E+01
(PID.TID 0000.0001) %MON dynstat_salt_sd              =   4.2867378239402E-01
(PID.TID 0000.0001) %MON dynstat_salt_del2            =   4.0374082072392E-03
(PID.TID 0000.0001) %MON forcing_qnet_max             =   2.7461357480602E+02
(PID.TID 0000.0001) %MON forcing_qnet_min             =  -5.0788585188908E+01
(PID.TID 0000.0001) %MON forcing_qnet_mean            =   9.8563040396808E+01
(PID.TID 0000.0001) %MON forcing_qnet_sd              =   6.1146088173110E+01
(PID.TID 0000.0001) %MON forcing_qnet_del2            =   5.3444287749559E+00
(PID.TID 0000.0001) %MON forcing_qsw_max              =  -5.9642476294488E-07
(PID.TID 0000.0001) %MON forcing_qsw_min              =  -6.4010854714816E+01
(PID.TID 0000.0001) %MON forcing_qsw_mean             =  -2.4728880889658E+01
(PID.TID 0000.0001) %MON forcing_qsw_sd               =   2.1131384285306E+01
(PID.TID 0000.0001) %MON forcing_qsw_del2             =   3.7649516111554E-01
(PID.TID 0000.0001) %MON forcing_empmr_max            =   7.0103075768006E-04
(PID.TID 0000.0001) %MON forcing_empmr_min            =  -8.3157144831696E-05
(PID.TID 0000.0001) %MON forcing_empmr_mean           =   2.3390905860135E-05
(PID.TID 0000.0001) %MON forcing_empmr_sd             =   1.0509277376404E-04
(PID.TID 0000.0001) %MON forcing_empmr_del2           =   1.0845784603748E-05
(PID.TID 0000.0001) %MON forcing_fu_max               =   6.2066298446454E-02
(PID.TID 0000.0001) %MON forcing_fu_min               =  -1.8198453812535E-02
(PID.TID 0000.0001) %MON forcing_fu_mean              =   2.3896453327948E-02
(PID.TID 0000.0001) %MON forcing_fu_sd                =   2.0923648108495E-02
(PID.TID 0000.0001) %MON forcing_fu_del2              =   5.8796959465604E-04
(PID.TID 0000.0001) %MON forcing_fv_max               =   1.4708886241339E-02
(PID.TID 0000.0001) %MON forcing_fv_min               =  -4.1862610601436E-02
(PID.TID 0000.0001) %MON forcing_fv_mean              =  -4.7043780203055E-03
(PID.TID 0000.0001) %MON forcing_fv_sd                =   1.1568541058475E-02
(PID.TID 0000.0001) %MON forcing_fv_del2              =   4.4036946478171E-04
(PID.TID 0000.0001) %MON trAdv_CFL_u_max              =   1.3079486118688E-03
(PID.TID 0000.0001) %MON trAdv_CFL_v_max              =   9.5249660659009E-04
(PID.TID 0000.0001) %MON trAdv_CFL_w_max              =   4.4343608054942E-03
(PID.TID 0000.0001) %MON advcfl_uvel_max              =   1.4031835315394E-03
(PID.TID 0000.0001) %MON advcfl_vvel_max              =   8.9630730112634E-04
(PID.TID 0000.0001) %MON advcfl_wvel_max              =   4.7572039694389E-03
(PID.TID 0000.0001) %MON advcfl_W_hf_max              =   3.2363564575403E-03
(PID.TID 0000.0001) %MON pe_b_mean                    =   7.1261379512278E-06
(PID.TID 0000.0001) %MON ke_max                       =   1.4618584420956E-03
(PID.TID 0000.0001) %MON ke_mean                      =   1.3697811647881E-05
(PID.TID 0000.0001) %MON ke_vol                       =   5.2906584519726E+15
(PID.TID 0000.0001) %MON vort_r_min                   =  -3.9440903323769E-07
(PID.TID 0000.0001) %MON vort_r_max                   =   2.4133400481136E-07
(PID.TID 0000.0001) %MON vort_a_mean                  =   1.2074434650046E-04
(PID.TID 0000.0001) %MON vort_a_sd                    =   8.7671817648039E-06
(PID.TID 0000.0001) %MON vort_p_mean                  =   1.7734550359553E-04
(PID.TID 0000.0001) %MON vort_p_sd                    =   1.1736185527529E-04
(PID.TID 0000.0001) %MON surfExpan_theta_mean         =   5.3178645132603E-06
(PID.TID 0000.0001) %MON surfExpan_salt_mean          =  -4.0820474415429E-07
(PID.TID 0000.0001) // =======================================================
(PID.TID 0000.0001) // End MONITOR dynamic field statistics
(PID.TID 0000.0001) // =======================================================
(PID.TID 0000.0001) // =======================================================
(PID.TID 0000.0001) // Begin MONITOR SEAICE statistics
(PID.TID 0000.0001) // =======================================================
(PID.TID 0000.0001) %MON seaice_tsnumber              =                     3
(PID.TID 0000.0001) %MON seaice_time_sec              =   1.0800000000000E+04
(PID.TID 0000.0001) %MON seaice_uice_max              =   1.3679751191399E-01
(PID.TID 0000.0001) %MON seaice_uice_min              =  -7.7773826801903E-02
(PID.TID 0000.0001) %MON seaice_uice_mean             =   5.4552637576696E-02
(PID.TID 0000.0001) %MON seaice_uice_sd               =   5.1899295074587E-02
(PID.TID 0000.0001) %MON seaice_uice_del2             =   1.8058127672135E-03
(PID.TID 0000.0001) %MON seaice_vice_max              =   3.9153553107539E-02
(PID.TID 0000.0001) %MON seaice_vice_min              =  -1.1455966189546E-01
(PID.TID 0000.0001) %MON seaice_vice_mean             =  -2.2807390243385E-02
(PID.TID 0000.0001) %MON seaice_vice_sd               =   3.7702300625999E-02
(PID.TID 0000.0001) %MON seaice_vice_del2             =   1.5701379037157E-03
(PID.TID 0000.0001) %MON seaice_area_max              =   9.9998814126130E-01
(PID.TID 0000.0001) %MON seaice_area_min              =   0.0000000000000E+00
(PID.TID 0000.0001) %MON seaice_area_mean             =   3.1897500103450E-01
(PID.TID 0000.0001) %MON seaice_area_sd               =   4.4144746329208E-01
(PID.TID 0000.0001) %MON seaice_area_del2             =   2.1756029471006E-02
(PID.TID 0000.0001) %MON seaice_heff_max              =   1.6271719038146E+00
(PID.TID 0000.0001) %MON seaice_heff_min              =   0.0000000000000E+00
(PID.TID 0000.0001) %MON seaice_heff_mean             =   1.7084037659972E-01
(PID.TID 0000.0001) %MON seaice_heff_sd               =   3.3165695581555E-01
(PID.TID 0000.0001) %MON seaice_heff_del2             =   9.3728940902877E-03
(PID.TID 0000.0001) %MON seaice_hsnow_max             =   3.4558736412035E-01
(PID.TID 0000.0001) %MON seaice_hsnow_min             =   0.0000000000000E+00
(PID.TID 0000.0001) %MON seaice_hsnow_mean            =   3.0504850703554E-02
(PID.TID 0000.0001) %MON seaice_hsnow_sd              =   6.5178568039869E-02
(PID.TID 0000.0001) %MON seaice_hsnow_del2            =   2.1154016328345E-03
(PID.TID 0000.0001) // =======================================================
(PID.TID 0000.0001) // End MONITOR SEAICE statistics
(PID.TID 0000.0001) // =======================================================
(PID.TID 0000.0001) // =======================================================
(PID.TID 0000.0001) // Begin MONITOR EXF statistics
(PID.TID 0000.0001) // =======================================================
(PID.TID 0000.0001) %MON exf_tsnumber                 =                     3
(PID.TID 0000.0001) %MON exf_time_sec                 =   1.0800000000000E+04
(PID.TID 0000.0001) %MON exf_ustress_max              =   6.2623813169309E-02
(PID.TID 0000.0001) %MON exf_ustress_min              =  -9.3844322376116E-02
(PID.TID 0000.0001) %MON exf_ustress_mean             =   2.2465934337969E-02
(PID.TID 0000.0001) %MON exf_ustress_sd               =   2.6353900416068E-02
(PID.TID 0000.0001) %MON exf_ustress_del2             =   7.2622606684138E-04
(PID.TID 0000.0001) %MON exf_vstress_max              =   5.3860299712746E-02
(PID.TID 0000.0001) %MON exf_vstress_min              =  -5.9457139860551E-02
(PID.TID 0000.0001) %MON exf_vstress_mean             =  -5.2499175440997E-03
(PID.TID 0000.0001) %MON exf_vstress_sd               =   1.5110033019941E-02
(PID.TID 0000.0001) %MON exf_vstress_del2             =   5.1411005723352E-04
(PID.TID 0000.0001) %MON exf_hflux_max                =   6.3265907900387E+02
(PID.TID 0000.0001) %MON exf_hflux_min                =   8.9524523665330E+01
(PID.TID 0000.0001) %MON exf_hflux_mean               =   2.1614545709347E+02
(PID.TID 0000.0001) %MON exf_hflux_sd                 =   1.3249938895418E+02
(PID.TID 0000.0001) %MON exf_hflux_del2               =   1.4000401391142E+01
(PID.TID 0000.0001) %MON exf_sflux_max                =   4.0730073592930E-08
(PID.TID 0000.0001) %MON exf_sflux_min                =  -8.3180228504480E-08
(PID.TID 0000.0001) %MON exf_sflux_mean               =  -1.6141610095792E-08
(PID.TID 0000.0001) %MON exf_sflux_sd                 =   2.4289625396889E-08
(PID.TID 0000.0001) %MON exf_sflux_del2               =   1.7105150797216E-09
(PID.TID 0000.0001) %MON exf_uwind_max                =   6.4658968995829E+00
(PID.TID 0000.0001) %MON exf_uwind_min                =  -6.8373184184559E+00
(PID.TID 0000.0001) %MON exf_uwind_mean               =   2.8373417326351E+00
(PID.TID 0000.0001) %MON exf_uwind_sd                 =   2.9484019625984E+00
(PID.TID 0000.0001) %MON exf_uwind_del2               =   8.0529528608703E-02
(PID.TID 0000.0001) %MON exf_vwind_max                =   3.9241587548959E+00
(PID.TID 0000.0001) %MON exf_vwind_min                =  -6.0169856587394E+00
(PID.TID 0000.0001) %MON exf_vwind_mean               =  -7.4700891935033E-01
(PID.TID 0000.0001) %MON exf_vwind_sd                 =   1.7355303123109E+00
(PID.TID 0000.0001) %MON exf_vwind_del2               =   4.8321063174926E-02
(PID.TID 0000.0001) %MON exf_wspeed_max               =   7.8833967989048E+00
(PID.TID 0000.0001) %MON exf_wspeed_min               =   4.5962367887737E-01
(PID.TID 0000.0001) %MON exf_wspeed_mean              =   4.2112641903854E+00
(PID.TID 0000.0001) %MON exf_wspeed_sd                =   1.6059028457924E+00
(PID.TID 0000.0001) %MON exf_wspeed_del2              =   2.4138646363537E-01
(PID.TID 0000.0001) %MON exf_atemp_max                =   2.8187767604140E+02
(PID.TID 0000.0001) %MON exf_atemp_min                =   2.3644837420104E+02
(PID.TID 0000.0001) %MON exf_atemp_mean               =   2.6418935348440E+02
(PID.TID 0000.0001) %MON exf_atemp_sd                 =   1.1841046681824E+01
(PID.TID 0000.0001) %MON exf_atemp_del2               =   7.2453124284350E-01
(PID.TID 0000.0001) %MON exf_aqh_max                  =   6.3210833210834E-03
(PID.TID 0000.0001) %MON exf_aqh_min                  =   1.6341043767886E-04
(PID.TID 0000.0001) %MON exf_aqh_mean                 =   2.5047851108042E-03
(PID.TID 0000.0001) %MON exf_aqh_sd                   =   1.4160499389486E-03
(PID.TID 0000.0001) %MON exf_aqh_del2                 =   7.8535753533440E-05
(PID.TID 0000.0001) %MON exf_lwflux_max               =   1.8556331463479E+02
(PID.TID 0000.0001) %MON exf_lwflux_min               =   6.7042222708491E+01
(PID.TID 0000.0001) %MON exf_lwflux_mean              =   9.7187921566488E+01
(PID.TID 0000.0001) %MON exf_lwflux_sd                =   3.0692137840160E+01
(PID.TID 0000.0001) %MON exf_lwflux_del2              =   4.7420736859790E+00
(PID.TID 0000.0001) %MON exf_evap_max                 =   4.7052293284232E-08
(PID.TID 0000.0001) %MON exf_evap_min                 =   5.4972347658269E-09
(PID.TID 0000.0001) %MON exf_evap_mean                =   2.0561718199839E-08
(PID.TID 0000.0001) %MON exf_evap_sd                  =   6.9457110286899E-09
(PID.TID 0000.0001) %MON exf_evap_del2                =   1.0834288215546E-09
(PID.TID 0000.0001) %MON exf_precip_max               =   1.0499180733557E-07
(PID.TID 0000.0001) %MON exf_precip_min               =   2.7319320752566E-10
(PID.TID 0000.0001) %MON exf_precip_mean              =   3.6703328295631E-08
(PID.TID 0000.0001) %MON exf_precip_sd                =   2.0517684345092E-08
(PID.TID 0000.0001) %MON exf_precip_del2              =   1.7249641031929E-09
(PID.TID 0000.0001) %MON exf_swflux_max               =  -8.1206604105527E-02
(PID.TID 0000.0001) %MON exf_swflux_min               =  -6.4029725065388E+01
(PID.TID 0000.0001) %MON exf_swflux_mean              =  -2.6818799251222E+01
(PID.TID 0000.0001) %MON exf_swflux_sd                =   1.9533966850123E+01
(PID.TID 0000.0001) %MON exf_swflux_del2              =   7.9294893125389E-01
(PID.TID 0000.0001) %MON exf_swdown_max               =   7.1144138961542E+01
(PID.TID 0000.0001) %MON exf_swdown_min               =   9.0229560117253E-02
(PID.TID 0000.0001) %MON exf_swdown_mean              =   2.9798665834691E+01
(PID.TID 0000.0001) %MON exf_swdown_sd                =   2.1704407611247E+01
(PID.TID 0000.0001) %MON exf_swdown_del2              =   8.8105436805987E-01
(PID.TID 0000.0001) %MON exf_lwdown_max               =   3.0565323976611E+02
(PID.TID 0000.0001) %MON exf_lwdown_min               =   1.1595237147222E+02
(PID.TID 0000.0001) %MON exf_lwdown_mean              =   2.2680054512192E+02
(PID.TID 0000.0001) %MON exf_lwdown_sd                =   4.5879078858413E+01
(PID.TID 0000.0001) %MON exf_lwdown_del2              =   8.3938408926213E+00
(PID.TID 0000.0001) %MON exf_climsss_max              =   3.5040885127959E+01
(PID.TID 0000.0001) %MON exf_climsss_min              =   3.0668591155380E+01
(PID.TID 0000.0001) %MON exf_climsss_mean             =   3.3455301952315E+01
(PID.TID 0000.0001) %MON exf_climsss_sd               =   1.0367238543174E+00
(PID.TID 0000.0001) %MON exf_climsss_del2             =   2.7347172136906E-02
(PID.TID 0000.0001) // =======================================================
(PID.TID 0000.0001) // End MONITOR EXF statistics
(PID.TID 0000.0001) // =======================================================
 cg2d: Sum(rhs),rhsMax =  -9.71445146547012E-15  3.80156506947364E-01
(PID.TID 0000.0001)      cg2d_init_res =   1.55511526952539E-01
(PID.TID 0000.0001)      cg2d_iters(min,last) =      -1      41
(PID.TID 0000.0001)      cg2d_last_res =   6.78417796244310E-13
(PID.TID 0000.0001) // =======================================================
(PID.TID 0000.0001) // Begin MONITOR dynamic field statistics
(PID.TID 0000.0001) // =======================================================
(PID.TID 0000.0001) %MON time_tsnumber                =                     4
(PID.TID 0000.0001) %MON time_secondsf                =   1.4400000000000E+04
(PID.TID 0000.0001) %MON dynstat_eta_max              =   1.0456837708534E-01
(PID.TID 0000.0001) %MON dynstat_eta_min              =  -1.0527063809187E-01
(PID.TID 0000.0001) %MON dynstat_eta_mean             =  -2.5763636189692E-16
(PID.TID 0000.0001) %MON dynstat_eta_sd               =   4.8230156630052E-02
(PID.TID 0000.0001) %MON dynstat_eta_del2             =   1.8276600255778E-03
(PID.TID 0000.0001) %MON dynstat_uvel_max             =   4.6844184112069E-02
(PID.TID 0000.0001) %MON dynstat_uvel_min             =  -3.2424328174013E-02
(PID.TID 0000.0001) %MON dynstat_uvel_mean            =   9.6260552091285E-05
(PID.TID 0000.0001) %MON dynstat_uvel_sd              =   4.3485126611996E-03
(PID.TID 0000.0001) %MON dynstat_uvel_del2            =   2.0293677387381E-04
(PID.TID 0000.0001) %MON dynstat_vvel_max             =   1.8794778910788E-02
(PID.TID 0000.0001) %MON dynstat_vvel_min             =  -5.1867449531793E-02
(PID.TID 0000.0001) %MON dynstat_vvel_mean            =  -4.1076430874131E-04
(PID.TID 0000.0001) %MON dynstat_vvel_sd              =   3.5931418757117E-03
(PID.TID 0000.0001) %MON dynstat_vvel_del2            =   1.5970219292758E-04
(PID.TID 0000.0001) %MON dynstat_wvel_max             =   7.4075345691439E-05
(PID.TID 0000.0001) %MON dynstat_wvel_min             =  -4.1879603517557E-05
(PID.TID 0000.0001) %MON dynstat_wvel_mean            =   1.9817828193508E-22
(PID.TID 0000.0001) %MON dynstat_wvel_sd              =   1.6087614975299E-05
(PID.TID 0000.0001) %MON dynstat_wvel_del2            =   4.4449244535238E-07
(PID.TID 0000.0001) %MON dynstat_theta_max            =   1.2475648872755E+01
(PID.TID 0000.0001) %MON dynstat_theta_min            =  -1.8568431106271E+00
(PID.TID 0000.0001) %MON dynstat_theta_mean           =   3.0885363593092E+00
(PID.TID 0000.0001) %MON dynstat_theta_sd             =   1.4313437743349E+00
(PID.TID 0000.0001) %MON dynstat_theta_del2           =   1.7780194379955E-02
(PID.TID 0000.0001) %MON dynstat_salt_max             =   3.5292843466528E+01
(PID.TID 0000.0001) %MON dynstat_salt_min             =   3.0708079820213E+01
(PID.TID 0000.0001) %MON dynstat_salt_mean            =   3.4759310432917E+01
(PID.TID 0000.0001) %MON dynstat_salt_sd              =   4.2865772584580E-01
(PID.TID 0000.0001) %MON dynstat_salt_del2            =   4.0366024731592E-03
(PID.TID 0000.0001) %MON forcing_qnet_max             =   2.7457292870860E+02
(PID.TID 0000.0001) %MON forcing_qnet_min             =  -3.4183327677876E+01
(PID.TID 0000.0001) %MON forcing_qnet_mean            =   1.0006829506617E+02
(PID.TID 0000.0001) %MON forcing_qnet_sd              =   6.0122950046603E+01
(PID.TID 0000.0001) %MON forcing_qnet_del2            =   5.5617256877965E+00
(PID.TID 0000.0001) %MON forcing_qsw_max              =  -9.6254592478765E-07
(PID.TID 0000.0001) %MON forcing_qsw_min              =  -6.4029725065388E+01
(PID.TID 0000.0001) %MON forcing_qsw_mean             =  -2.4737694574138E+01
(PID.TID 0000.0001) %MON forcing_qsw_sd               =   2.1134477032888E+01
(PID.TID 0000.0001) %MON forcing_qsw_del2             =   3.7662161130505E-01
(PID.TID 0000.0001) %MON forcing_empmr_max            =   6.4926557559493E-04
(PID.TID 0000.0001) %MON forcing_empmr_min            =  -8.4139848853249E-05
(PID.TID 0000.0001) %MON forcing_empmr_mean           =   1.8858749951996E-05
(PID.TID 0000.0001) %MON forcing_empmr_sd             =   9.8605459182387E-05
(PID.TID 0000.0001) %MON forcing_empmr_del2           =   1.1041160428785E-05
(PID.TID 0000.0001) %MON forcing_fu_max               =   6.2076148803640E-02
(PID.TID 0000.0001) %MON forcing_fu_min               =  -1.8210604193720E-02
(PID.TID 0000.0001) %MON forcing_fu_mean              =   2.3856056328072E-02
(PID.TID 0000.0001) %MON forcing_fu_sd                =   2.0952972450664E-02
(PID.TID 0000.0001) %MON forcing_fu_del2              =   5.9002541914614E-04
(PID.TID 0000.0001) %MON forcing_fv_max               =   1.4712548488070E-02
(PID.TID 0000.0001) %MON forcing_fv_min               =  -4.1848464893433E-02
(PID.TID 0000.0001) %MON forcing_fv_mean              =  -4.7199754156880E-03
(PID.TID 0000.0001) %MON forcing_fv_sd                =   1.1587242605677E-02
(PID.TID 0000.0001) %MON forcing_fv_del2              =   4.4064360789296E-04
(PID.TID 0000.0001) %MON trAdv_CFL_u_max              =   1.4032547730957E-03
(PID.TID 0000.0001) %MON trAdv_CFL_v_max              =   9.2443793444567E-04
(PID.TID 0000.0001) %MON trAdv_CFL_w_max              =   2.7296491479310E-03
(PID.TID 0000.0001) %MON advcfl_uvel_max              =   1.3220622672878E-03
(PID.TID 0000.0001) %MON advcfl_vvel_max              =   8.3961932414113E-04
(PID.TID 0000.0001) %MON advcfl_wvel_max              =   3.3434711031929E-03
(PID.TID 0000.0001) %MON advcfl_W_hf_max              =   2.7845379098590E-03
(PID.TID 0000.0001) %MON pe_b_mean                    =   7.5912593962090E-06
(PID.TID 0000.0001) %MON ke_max                       =   1.1979560484718E-03
(PID.TID 0000.0001) %MON ke_mean                      =   1.2559862049313E-05
(PID.TID 0000.0001) %MON ke_vol                       =   5.2906584519726E+15
(PID.TID 0000.0001) %MON vort_r_min                   =  -3.3764150983735E-07
(PID.TID 0000.0001) %MON vort_r_max                   =   2.3307541850549E-07
(PID.TID 0000.0001) %MON vort_a_mean                  =   1.2074434650046E-04
(PID.TID 0000.0001) %MON vort_a_sd                    =   8.7671479052164E-06
(PID.TID 0000.0001) %MON vort_p_mean                  =   1.7734550359553E-04
(PID.TID 0000.0001) %MON vort_p_sd                    =   1.1736032329781E-04
(PID.TID 0000.0001) %MON surfExpan_theta_mean         =   3.0503280723274E-06
(PID.TID 0000.0001) %MON surfExpan_salt_mean          =  -3.9926495209333E-08
(PID.TID 0000.0001) // =======================================================
(PID.TID 0000.0001) // End MONITOR dynamic field statistics
(PID.TID 0000.0001) // =======================================================
(PID.TID 0000.0001) // =======================================================
(PID.TID 0000.0001) // Begin MONITOR SEAICE statistics
(PID.TID 0000.0001) // =======================================================
(PID.TID 0000.0001) %MON seaice_tsnumber              =                     4
(PID.TID 0000.0001) %MON seaice_time_sec              =   1.4400000000000E+04
(PID.TID 0000.0001) %MON seaice_uice_max              =   1.3904854220596E-01
(PID.TID 0000.0001) %MON seaice_uice_min              =  -7.8274909519859E-02
(PID.TID 0000.0001) %MON seaice_uice_mean             =   5.5147648255705E-02
(PID.TID 0000.0001) %MON seaice_uice_sd               =   5.2098440066629E-02
(PID.TID 0000.0001) %MON seaice_uice_del2             =   1.8697936356809E-03
(PID.TID 0000.0001) %MON seaice_vice_max              =   4.1108735187443E-02
(PID.TID 0000.0001) %MON seaice_vice_min              =  -1.1251328975535E-01
(PID.TID 0000.0001) %MON seaice_vice_mean             =  -2.1334356920037E-02
(PID.TID 0000.0001) %MON seaice_vice_sd               =   3.6527136779540E-02
(PID.TID 0000.0001) %MON seaice_vice_del2             =   1.5779261277187E-03
(PID.TID 0000.0001) %MON seaice_area_max              =   9.9998321252138E-01
(PID.TID 0000.0001) %MON seaice_area_min              =   0.0000000000000E+00
(PID.TID 0000.0001) %MON seaice_area_mean             =   3.1887232695402E-01
(PID.TID 0000.0001) %MON seaice_area_sd               =   4.4120908745539E-01
(PID.TID 0000.0001) %MON seaice_area_del2             =   2.1738202196687E-02
(PID.TID 0000.0001) %MON seaice_heff_max              =   1.6273000277685E+00
(PID.TID 0000.0001) %MON seaice_heff_min              =   0.0000000000000E+00
(PID.TID 0000.0001) %MON seaice_heff_mean             =   1.7099393186418E-01
(PID.TID 0000.0001) %MON seaice_heff_sd               =   3.3174937646083E-01
(PID.TID 0000.0001) %MON seaice_heff_del2             =   9.3798284014401E-03
(PID.TID 0000.0001) %MON seaice_hsnow_max             =   3.4576435438133E-01
(PID.TID 0000.0001) %MON seaice_hsnow_min             =   0.0000000000000E+00
(PID.TID 0000.0001) %MON seaice_hsnow_mean            =   3.0554351405731E-02
(PID.TID 0000.0001) %MON seaice_hsnow_sd              =   6.5219759447498E-02
(PID.TID 0000.0001) %MON seaice_hsnow_del2            =   2.1175767908811E-03
(PID.TID 0000.0001) // =======================================================
(PID.TID 0000.0001) // End MONITOR SEAICE statistics
(PID.TID 0000.0001) // =======================================================
(PID.TID 0000.0001) // =======================================================
(PID.TID 0000.0001) // Begin MONITOR EXF statistics
(PID.TID 0000.0001) // =======================================================
(PID.TID 0000.0001) %MON exf_tsnumber                 =                     4
(PID.TID 0000.0001) %MON exf_time_sec                 =   1.4400000000000E+04
(PID.TID 0000.0001) %MON exf_ustress_max              =   6.2634691995225E-02
(PID.TID 0000.0001) %MON exf_ustress_min              =  -9.3847122626923E-02
(PID.TID 0000.0001) %MON exf_ustress_mean             =   2.2468472522227E-02
(PID.TID 0000.0001) %MON exf_ustress_sd               =   2.6358101169577E-02
(PID.TID 0000.0001) %MON exf_ustress_del2             =   7.2628911097999E-04
(PID.TID 0000.0001) %MON exf_vstress_max              =   5.3862110143354E-02
(PID.TID 0000.0001) %MON exf_vstress_min              =  -5.9440478861031E-02
(PID.TID 0000.0001) %MON exf_vstress_mean             =  -5.2451689687159E-03
(PID.TID 0000.0001) %MON exf_vstress_sd               =   1.5111283433839E-02
(PID.TID 0000.0001) %MON exf_vstress_del2             =   5.1411985085977E-04
(PID.TID 0000.0001) %MON exf_hflux_max                =   6.3274916639112E+02
(PID.TID 0000.0001) %MON exf_hflux_min                =   8.9524117802887E+01
(PID.TID 0000.0001) %MON exf_hflux_mean               =   2.1617588176588E+02
(PID.TID 0000.0001) %MON exf_hflux_sd                 =   1.3254387002627E+02
(PID.TID 0000.0001) %MON exf_hflux_del2               =   1.4005067570741E+01
(PID.TID 0000.0001) %MON exf_sflux_max                =   4.0735065313059E-08
(PID.TID 0000.0001) %MON exf_sflux_min                =  -8.3186074070717E-08
(PID.TID 0000.0001) %MON exf_sflux_mean               =  -1.6140549724562E-08
(PID.TID 0000.0001) %MON exf_sflux_sd                 =   2.4292850119630E-08
(PID.TID 0000.0001) %MON exf_sflux_del2               =   1.7109041404421E-09
(PID.TID 0000.0001) %MON exf_uwind_max                =   6.4664043520318E+00
(PID.TID 0000.0001) %MON exf_uwind_min                =  -6.8373452001582E+00
(PID.TID 0000.0001) %MON exf_uwind_mean               =   2.8374496027651E+00
(PID.TID 0000.0001) %MON exf_uwind_sd                 =   2.9486849562442E+00
(PID.TID 0000.0001) %MON exf_uwind_del2               =   8.0529414846534E-02
(PID.TID 0000.0001) %MON exf_vwind_max                =   3.9241889356915E+00
(PID.TID 0000.0001) %MON exf_vwind_min                =  -6.0160797489145E+00
(PID.TID 0000.0001) %MON exf_vwind_mean               =  -7.4638062469871E-01
(PID.TID 0000.0001) %MON exf_vwind_sd                 =   1.7356336004080E+00
(PID.TID 0000.0001) %MON exf_vwind_del2               =   4.8321356314050E-02
(PID.TID 0000.0001) %MON exf_wspeed_max               =   7.8834350500991E+00
(PID.TID 0000.0001) %MON exf_wspeed_min               =   4.5938084481311E-01
(PID.TID 0000.0001) %MON exf_wspeed_mean              =   4.2113675160871E+00
(PID.TID 0000.0001) %MON exf_wspeed_sd                =   1.6061615409572E+00
(PID.TID 0000.0001) %MON exf_wspeed_del2              =   2.4138357039815E-01
(PID.TID 0000.0001) %MON exf_atemp_max                =   2.8187596388853E+02
(PID.TID 0000.0001) %MON exf_atemp_min                =   2.3644390923339E+02
(PID.TID 0000.0001) %MON exf_atemp_mean               =   2.6418468394889E+02
(PID.TID 0000.0001) %MON exf_atemp_sd                 =   1.1842589802320E+01
(PID.TID 0000.0001) %MON exf_atemp_del2               =   7.2483722490143E-01
(PID.TID 0000.0001) %MON exf_aqh_max                  =   6.3203867802223E-03
(PID.TID 0000.0001) %MON exf_aqh_min                  =   1.6331633418045E-04
(PID.TID 0000.0001) %MON exf_aqh_mean                 =   2.5042188193618E-03
(PID.TID 0000.0001) %MON exf_aqh_sd                   =   1.4159536540618E-03
(PID.TID 0000.0001) %MON exf_aqh_del2                 =   7.8511248083840E-05
(PID.TID 0000.0001) %MON exf_lwflux_max               =   1.8557761914046E+02
(PID.TID 0000.0001) %MON exf_lwflux_min               =   6.7043642647906E+01
(PID.TID 0000.0001) %MON exf_lwflux_mean              =   9.7196077013978E+01
(PID.TID 0000.0001) %MON exf_lwflux_sd                =   3.0700929936505E+01
(PID.TID 0000.0001) %MON exf_lwflux_del2              =   4.7429834021775E+00
(PID.TID 0000.0001) %MON exf_evap_max                 =   4.7056622293430E-08
(PID.TID 0000.0001) %MON exf_evap_min                 =   5.4875748698258E-09
(PID.TID 0000.0001) %MON exf_evap_mean                =   2.0562760638320E-08
(PID.TID 0000.0001) %MON exf_evap_sd                  =   6.9467484265150E-09
(PID.TID 0000.0001) %MON exf_evap_del2                =   1.0836791593735E-09
(PID.TID 0000.0001) %MON exf_precip_max               =   1.0499318877820E-07
(PID.TID 0000.0001) %MON exf_precip_min               =   2.7305928105298E-10
(PID.TID 0000.0001) %MON exf_precip_mean              =   3.6703310362882E-08
(PID.TID 0000.0001) %MON exf_precip_sd                =   2.0518152294639E-08
(PID.TID 0000.0001) %MON exf_precip_del2              =   1.7252475954465E-09
(PID.TID 0000.0001) %MON exf_swflux_max               =  -8.1206886983309E-02
(PID.TID 0000.0001) %MON exf_swflux_min               =  -6.4048595415960E+01
(PID.TID 0000.0001) %MON exf_swflux_mean              =  -2.6829464685628E+01
(PID.TID 0000.0001) %MON exf_swflux_sd                =   1.9537691004603E+01
(PID.TID 0000.0001) %MON exf_swflux_del2              =   7.9336193407328E-01
(PID.TID 0000.0001) %MON exf_swdown_max               =   7.1165106017733E+01
(PID.TID 0000.0001) %MON exf_swdown_min               =   9.0229874425898E-02
(PID.TID 0000.0001) %MON exf_swdown_mean              =   2.9810516317365E+01
(PID.TID 0000.0001) %MON exf_swdown_sd                =   2.1708545560670E+01
(PID.TID 0000.0001) %MON exf_swdown_del2              =   8.8151326008142E-01
(PID.TID 0000.0001) %MON exf_lwdown_max               =   3.0564441368228E+02
(PID.TID 0000.0001) %MON exf_lwdown_min               =   1.1593726459357E+02
(PID.TID 0000.0001) %MON exf_lwdown_mean              =   2.2678471201796E+02
(PID.TID 0000.0001) %MON exf_lwdown_sd                =   4.5883334012731E+01
(PID.TID 0000.0001) %MON exf_lwdown_del2              =   8.3928598531210E+00
(PID.TID 0000.0001) %MON exf_climsss_max              =   3.5041069874998E+01
(PID.TID 0000.0001) %MON exf_climsss_min              =   3.0669350483378E+01
(PID.TID 0000.0001) %MON exf_climsss_mean             =   3.3455814484532E+01
(PID.TID 0000.0001) %MON exf_climsss_sd               =   1.0366465803759E+00
(PID.TID 0000.0001) %MON exf_climsss_del2             =   2.7344635729639E-02
(PID.TID 0000.0001) // =======================================================
(PID.TID 0000.0001) // End MONITOR EXF statistics
(PID.TID 0000.0001) // =======================================================
 cg2d: Sum(rhs),rhsMax =   2.94764213037979E-14  3.87699771897241E-01
(PID.TID 0000.0001)      cg2d_init_res =   1.27765521559310E-01
(PID.TID 0000.0001)      cg2d_iters(min,last) =      -1      41
(PID.TID 0000.0001)      cg2d_last_res =   7.24998528257030E-13
(PID.TID 0000.0001) // =======================================================
(PID.TID 0000.0001) // Begin MONITOR dynamic field statistics
(PID.TID 0000.0001) // =======================================================
(PID.TID 0000.0001) %MON time_tsnumber                =                     5
(PID.TID 0000.0001) %MON time_secondsf                =   1.8000000000000E+04
(PID.TID 0000.0001) %MON dynstat_eta_max              =   9.6882735341276E-02
(PID.TID 0000.0001) %MON dynstat_eta_min              =  -1.0313636923057E-01
(PID.TID 0000.0001) %MON dynstat_eta_mean             =  -9.3989561654987E-16
(PID.TID 0000.0001) %MON dynstat_eta_sd               =   4.6761469330986E-02
(PID.TID 0000.0001) %MON dynstat_eta_del2             =   1.8032561946251E-03
(PID.TID 0000.0001) %MON dynstat_uvel_max             =   3.9283708561148E-02
(PID.TID 0000.0001) %MON dynstat_uvel_min             =  -2.8773445190461E-02
(PID.TID 0000.0001) %MON dynstat_uvel_mean            =   4.7949005815514E-05
(PID.TID 0000.0001) %MON dynstat_uvel_sd              =   3.6887484041689E-03
(PID.TID 0000.0001) %MON dynstat_uvel_del2            =   1.7118946063727E-04
(PID.TID 0000.0001) %MON dynstat_vvel_max             =   1.9743009694351E-02
(PID.TID 0000.0001) %MON dynstat_vvel_min             =  -4.7445205901874E-02
(PID.TID 0000.0001) %MON dynstat_vvel_mean            =  -3.8634424227035E-05
(PID.TID 0000.0001) %MON dynstat_vvel_sd              =   3.4831943338904E-03
(PID.TID 0000.0001) %MON dynstat_vvel_del2            =   1.4265892615362E-04
(PID.TID 0000.0001) %MON dynstat_wvel_max             =   5.3749269356531E-05
(PID.TID 0000.0001) %MON dynstat_wvel_min             =  -3.1273518886549E-05
(PID.TID 0000.0001) %MON dynstat_wvel_mean            =   1.9817828193508E-22
(PID.TID 0000.0001) %MON dynstat_wvel_sd              =   1.2137675493553E-05
(PID.TID 0000.0001) %MON dynstat_wvel_del2            =   3.2124483929947E-07
(PID.TID 0000.0001) %MON dynstat_theta_max            =   1.2475823953232E+01
(PID.TID 0000.0001) %MON dynstat_theta_min            =  -1.8564843427236E+00
(PID.TID 0000.0001) %MON dynstat_theta_mean           =   3.0884733043825E+00
(PID.TID 0000.0001) %MON dynstat_theta_sd             =   1.4312995447204E+00
(PID.TID 0000.0001) %MON dynstat_theta_del2           =   1.7780281432679E-02
(PID.TID 0000.0001) %MON dynstat_salt_max             =   3.5292816422757E+01
(PID.TID 0000.0001) %MON dynstat_salt_min             =   3.0708100484877E+01
(PID.TID 0000.0001) %MON dynstat_salt_mean            =   3.4759312170619E+01
(PID.TID 0000.0001) %MON dynstat_salt_sd              =   4.2864520121659E-01
(PID.TID 0000.0001) %MON dynstat_salt_del2            =   4.0357085463923E-03
(PID.TID 0000.0001) %MON forcing_qnet_max             =   2.7453676074264E+02
(PID.TID 0000.0001) %MON forcing_qnet_min             =  -2.1759167140475E+01
(PID.TID 0000.0001) %MON forcing_qnet_mean            =   1.0091133718525E+02
(PID.TID 0000.0001) %MON forcing_qnet_sd              =   5.9351689312029E+01
(PID.TID 0000.0001) %MON forcing_qnet_del2            =   5.5692964686284E+00
(PID.TID 0000.0001) %MON forcing_qsw_max              =  -1.3846114337402E-06
(PID.TID 0000.0001) %MON forcing_qsw_min              =  -6.4048595415960E+01
(PID.TID 0000.0001) %MON forcing_qsw_mean             =  -2.4746959565381E+01
(PID.TID 0000.0001) %MON forcing_qsw_sd               =   2.1137254026862E+01
(PID.TID 0000.0001) %MON forcing_qsw_del2             =   3.7669100886100E-01
(PID.TID 0000.0001) %MON forcing_empmr_max            =   6.1003926407456E-04
(PID.TID 0000.0001) %MON forcing_empmr_min            =  -8.4233592578232E-05
(PID.TID 0000.0001) %MON forcing_empmr_mean           =   1.6331129731953E-05
(PID.TID 0000.0001) %MON forcing_empmr_sd             =   9.3544669139563E-05
(PID.TID 0000.0001) %MON forcing_empmr_del2           =   1.0933268477603E-05
(PID.TID 0000.0001) %MON forcing_fu_max               =   6.2086055888907E-02
(PID.TID 0000.0001) %MON forcing_fu_min               =  -1.8223065514921E-02
(PID.TID 0000.0001) %MON forcing_fu_mean              =   2.3842240615734E-02
(PID.TID 0000.0001) %MON forcing_fu_sd                =   2.0967888246121E-02
(PID.TID 0000.0001) %MON forcing_fu_del2              =   5.8820544145987E-04
(PID.TID 0000.0001) %MON forcing_fv_max               =   1.4716222034039E-02
(PID.TID 0000.0001) %MON forcing_fv_min               =  -4.1834404511405E-02
(PID.TID 0000.0001) %MON forcing_fv_mean              =  -4.7183451643275E-03
(PID.TID 0000.0001) %MON forcing_fv_sd                =   1.1602315150985E-02
(PID.TID 0000.0001) %MON forcing_fv_del2              =   4.4272310193923E-04
(PID.TID 0000.0001) %MON trAdv_CFL_u_max              =   1.3221293902061E-03
(PID.TID 0000.0001) %MON trAdv_CFL_v_max              =   8.6597080348929E-04
(PID.TID 0000.0001) %MON trAdv_CFL_w_max              =   1.9889556498993E-03
(PID.TID 0000.0001) %MON advcfl_uvel_max              =   1.1086863778773E-03
(PID.TID 0000.0001) %MON advcfl_vvel_max              =   7.6803297776673E-04
(PID.TID 0000.0001) %MON advcfl_wvel_max              =   2.5987753020486E-03
(PID.TID 0000.0001) %MON advcfl_W_hf_max              =   2.3856821109642E-03
(PID.TID 0000.0001) %MON pe_b_mean                    =   7.1359662132302E-06
(PID.TID 0000.0001) %MON ke_max                       =   9.7228553446689E-04
(PID.TID 0000.0001) %MON ke_mean                      =   1.0095108511470E-05
(PID.TID 0000.0001) %MON ke_vol                       =   5.2906584519726E+15
(PID.TID 0000.0001) %MON vort_r_min                   =  -2.8678807648067E-07
(PID.TID 0000.0001) %MON vort_r_max                   =   2.2365800284639E-07
(PID.TID 0000.0001) %MON vort_a_mean                  =   1.2074434650046E-04
(PID.TID 0000.0001) %MON vort_a_sd                    =   8.7671126539524E-06
(PID.TID 0000.0001) %MON vort_p_mean                  =   1.7734550359553E-04
(PID.TID 0000.0001) %MON vort_p_sd                    =   1.1735782067321E-04
(PID.TID 0000.0001) %MON surfExpan_theta_mean         =   9.9474369265155E-07
(PID.TID 0000.0001) %MON surfExpan_salt_mean          =   1.3977493483010E-07
(PID.TID 0000.0001) // =======================================================
(PID.TID 0000.0001) // End MONITOR dynamic field statistics
(PID.TID 0000.0001) // =======================================================
(PID.TID 0000.0001) // =======================================================
(PID.TID 0000.0001) // Begin MONITOR SEAICE statistics
(PID.TID 0000.0001) // =======================================================
(PID.TID 0000.0001) %MON seaice_tsnumber              =                     5
(PID.TID 0000.0001) %MON seaice_time_sec              =   1.8000000000000E+04
(PID.TID 0000.0001) %MON seaice_uice_max              =   1.3945478240383E-01
(PID.TID 0000.0001) %MON seaice_uice_min              =  -7.4745367394271E-02
(PID.TID 0000.0001) %MON seaice_uice_mean             =   5.4910577787529E-02
(PID.TID 0000.0001) %MON seaice_uice_sd               =   5.1441063558125E-02
(PID.TID 0000.0001) %MON seaice_uice_del2             =   1.8257416794825E-03
(PID.TID 0000.0001) %MON seaice_vice_max              =   4.1413550753434E-02
(PID.TID 0000.0001) %MON seaice_vice_min              =  -1.0875424827809E-01
(PID.TID 0000.0001) %MON seaice_vice_mean             =  -2.0111654417210E-02
(PID.TID 0000.0001) %MON seaice_vice_sd               =   3.5396444462264E-02
(PID.TID 0000.0001) %MON seaice_vice_del2             =   1.5397106357700E-03
(PID.TID 0000.0001) %MON seaice_area_max              =   9.9997774176407E-01
(PID.TID 0000.0001) %MON seaice_area_min              =   0.0000000000000E+00
(PID.TID 0000.0001) %MON seaice_area_mean             =   3.1875822359627E-01
(PID.TID 0000.0001) %MON seaice_area_sd               =   4.4096172867939E-01
(PID.TID 0000.0001) %MON seaice_area_del2             =   2.1717830645771E-02
(PID.TID 0000.0001) %MON seaice_heff_max              =   1.6274321727485E+00
(PID.TID 0000.0001) %MON seaice_heff_min              =   0.0000000000000E+00
(PID.TID 0000.0001) %MON seaice_heff_mean             =   1.7113749107683E-01
(PID.TID 0000.0001) %MON seaice_heff_sd               =   3.3183763167653E-01
(PID.TID 0000.0001) %MON seaice_heff_del2             =   9.3876121804082E-03
(PID.TID 0000.0001) %MON seaice_hsnow_max             =   3.4594144879211E-01
(PID.TID 0000.0001) %MON seaice_hsnow_min             =   0.0000000000000E+00
(PID.TID 0000.0001) %MON seaice_hsnow_mean            =   3.0603840756591E-02
(PID.TID 0000.0001) %MON seaice_hsnow_sd              =   6.5261109817367E-02
(PID.TID 0000.0001) %MON seaice_hsnow_del2            =   2.1198340539608E-03
(PID.TID 0000.0001) // =======================================================
(PID.TID 0000.0001) // End MONITOR SEAICE statistics
(PID.TID 0000.0001) // =======================================================
(PID.TID 0000.0001) // =======================================================
(PID.TID 0000.0001) // Begin MONITOR EXF statistics
(PID.TID 0000.0001) // =======================================================
(PID.TID 0000.0001) %MON exf_tsnumber                 =                     5
(PID.TID 0000.0001) %MON exf_time_sec                 =   1.8000000000000E+04
(PID.TID 0000.0001) %MON exf_ustress_max              =   6.2645568129958E-02
(PID.TID 0000.0001) %MON exf_ustress_min              =  -9.3849788604652E-02
(PID.TID 0000.0001) %MON exf_ustress_mean             =   2.2471004136145E-02
(PID.TID 0000.0001) %MON exf_ustress_sd               =   2.6362305984886E-02
(PID.TID 0000.0001) %MON exf_ustress_del2             =   7.2635212251160E-04
(PID.TID 0000.0001) %MON exf_vstress_max              =   5.3863843520246E-02
(PID.TID 0000.0001) %MON exf_vstress_min              =  -5.9423898938267E-02
(PID.TID 0000.0001) %MON exf_vstress_mean             =  -5.2404134964520E-03
(PID.TID 0000.0001) %MON exf_vstress_sd               =   1.5112522566408E-02
(PID.TID 0000.0001) %MON exf_vstress_del2             =   5.1412949524379E-04
(PID.TID 0000.0001) %MON exf_hflux_max                =   6.3283068919842E+02
(PID.TID 0000.0001) %MON exf_hflux_min                =   8.9523778279319E+01
(PID.TID 0000.0001) %MON exf_hflux_mean               =   2.1620513442844E+02
(PID.TID 0000.0001) %MON exf_hflux_sd                 =   1.3258552592973E+02
(PID.TID 0000.0001) %MON exf_hflux_del2               =   1.4009505859854E+01
(PID.TID 0000.0001) %MON exf_sflux_max                =   4.0738929999043E-08
(PID.TID 0000.0001) %MON exf_sflux_min                =  -8.3191443720180E-08
(PID.TID 0000.0001) %MON exf_sflux_mean               =  -1.6139618060629E-08
(PID.TID 0000.0001) %MON exf_sflux_sd                 =   2.4295752244085E-08
(PID.TID 0000.0001) %MON exf_sflux_del2               =   1.7112723252124E-09
(PID.TID 0000.0001) %MON exf_uwind_max                =   6.4669118044806E+00
(PID.TID 0000.0001) %MON exf_uwind_min                =  -6.8373719818605E+00
(PID.TID 0000.0001) %MON exf_uwind_mean               =   2.8375574728951E+00
(PID.TID 0000.0001) %MON exf_uwind_sd                 =   2.9489679902331E+00
(PID.TID 0000.0001) %MON exf_uwind_del2               =   8.0529304650529E-02
(PID.TID 0000.0001) %MON exf_vwind_max                =   3.9242191164871E+00
(PID.TID 0000.0001) %MON exf_vwind_min                =  -6.0151738390896E+00
(PID.TID 0000.0001) %MON exf_vwind_mean               =  -7.4575233004708E-01
(PID.TID 0000.0001) %MON exf_vwind_sd                 =   1.7357369983277E+00
(PID.TID 0000.0001) %MON exf_vwind_del2               =   4.8321656636180E-02
(PID.TID 0000.0001) %MON exf_wspeed_max               =   7.8834733013142E+00
(PID.TID 0000.0001) %MON exf_wspeed_min               =   4.5913801314248E-01
(PID.TID 0000.0001) %MON exf_wspeed_mean              =   4.2114709721653E+00
(PID.TID 0000.0001) %MON exf_wspeed_sd                =   1.6064203482108E+00
(PID.TID 0000.0001) %MON exf_wspeed_del2              =   2.4138068419247E-01
(PID.TID 0000.0001) %MON exf_atemp_max                =   2.8187425173567E+02
(PID.TID 0000.0001) %MON exf_atemp_min                =   2.3643944426573E+02
(PID.TID 0000.0001) %MON exf_atemp_mean               =   2.6418001441337E+02
(PID.TID 0000.0001) %MON exf_atemp_sd                 =   1.1844133399683E+01
(PID.TID 0000.0001) %MON exf_atemp_del2               =   7.2514326548756E-01
(PID.TID 0000.0001) %MON exf_aqh_max                  =   6.3196902393613E-03
(PID.TID 0000.0001) %MON exf_aqh_min                  =   1.6322223068205E-04
(PID.TID 0000.0001) %MON exf_aqh_mean                 =   2.5036525279194E-03
(PID.TID 0000.0001) %MON exf_aqh_sd                   =   1.4158574048203E-03
(PID.TID 0000.0001) %MON exf_aqh_del2                 =   7.8486745759951E-05
(PID.TID 0000.0001) %MON exf_lwflux_max               =   1.8559232611642E+02
(PID.TID 0000.0001) %MON exf_lwflux_min               =   6.7045034521539E+01
(PID.TID 0000.0001) %MON exf_lwflux_mean              =   9.7204015616459E+01
(PID.TID 0000.0001) %MON exf_lwflux_sd                =   3.0709194095286E+01
(PID.TID 0000.0001) %MON exf_lwflux_del2              =   4.7438608055709E+00
(PID.TID 0000.0001) %MON exf_evap_max                 =   4.7059824268484E-08
(PID.TID 0000.0001) %MON exf_evap_min                 =   5.4795869539649E-09
(PID.TID 0000.0001) %MON exf_evap_mean                =   2.0563674369504E-08
(PID.TID 0000.0001) %MON exf_evap_sd                  =   6.9475485476603E-09
(PID.TID 0000.0001) %MON exf_evap_del2                =   1.0839021204029E-09
(PID.TID 0000.0001) %MON exf_precip_max               =   1.0499457022082E-07
(PID.TID 0000.0001) %MON exf_precip_min               =   2.7292535458031E-10
(PID.TID 0000.0001) %MON exf_precip_mean              =   3.6703292430133E-08
(PID.TID 0000.0001) %MON exf_precip_sd                =   2.0518620909231E-08
(PID.TID 0000.0001) %MON exf_precip_del2              =   1.7255311340877E-09
(PID.TID 0000.0001) %MON exf_swflux_max               =  -8.1207169861090E-02
(PID.TID 0000.0001) %MON exf_swflux_min               =  -6.4067465766532E+01
(PID.TID 0000.0001) %MON exf_swflux_mean              =  -2.6840130120035E+01
(PID.TID 0000.0001) %MON exf_swflux_sd                =   1.9541415741666E+01
(PID.TID 0000.0001) %MON exf_swflux_del2              =   7.9377502395388E-01
(PID.TID 0000.0001) %MON exf_swdown_max               =   7.1186073073924E+01
(PID.TID 0000.0001) %MON exf_swdown_min               =   9.0230188734544E-02
(PID.TID 0000.0001) %MON exf_swdown_mean              =   2.9822366800039E+01
(PID.TID 0000.0001) %MON exf_swdown_sd                =   2.1712684157407E+01
(PID.TID 0000.0001) %MON exf_swdown_del2              =   8.8197224883765E-01
(PID.TID 0000.0001) %MON exf_lwdown_max               =   3.0563558759846E+02
(PID.TID 0000.0001) %MON exf_lwdown_min               =   1.1592215771493E+02
(PID.TID 0000.0001) %MON exf_lwdown_mean              =   2.2676887891401E+02
(PID.TID 0000.0001) %MON exf_lwdown_sd                =   4.5887590285296E+01
(PID.TID 0000.0001) %MON exf_lwdown_del2              =   8.3918788554736E+00
(PID.TID 0000.0001) %MON exf_climsss_max              =   3.5041254622037E+01
(PID.TID 0000.0001) %MON exf_climsss_min              =   3.0670109811376E+01
(PID.TID 0000.0001) %MON exf_climsss_mean             =   3.3456327016749E+01
(PID.TID 0000.0001) %MON exf_climsss_sd               =   1.0365695252080E+00
(PID.TID 0000.0001) %MON exf_climsss_del2             =   2.7342115218288E-02
(PID.TID 0000.0001) // =======================================================
(PID.TID 0000.0001) // End MONITOR EXF statistics
(PID.TID 0000.0001) // =======================================================
 cg2d: Sum(rhs),rhsMax =   1.04583008919690E-13  3.88181441103897E-01
(PID.TID 0000.0001)      cg2d_init_res =   1.01101016599589E-01
(PID.TID 0000.0001)      cg2d_iters(min,last) =      -1      41
(PID.TID 0000.0001)      cg2d_last_res =   6.39964423426294E-13
(PID.TID 0000.0001) // =======================================================
(PID.TID 0000.0001) // Begin MONITOR dynamic field statistics
(PID.TID 0000.0001) // =======================================================
(PID.TID 0000.0001) %MON time_tsnumber                =                     6
(PID.TID 0000.0001) %MON time_secondsf                =   2.1600000000000E+04
(PID.TID 0000.0001) %MON dynstat_eta_max              =   9.2507169669273E-02
(PID.TID 0000.0001) %MON dynstat_eta_min              =  -1.0085035017360E-01
(PID.TID 0000.0001) %MON dynstat_eta_mean             =  -1.9717422578845E-15
(PID.TID 0000.0001) %MON dynstat_eta_sd               =   4.4137402599541E-02
(PID.TID 0000.0001) %MON dynstat_eta_del2             =   1.8044654294575E-03
(PID.TID 0000.0001) %MON dynstat_uvel_max             =   3.1382811760605E-02
(PID.TID 0000.0001) %MON dynstat_uvel_min             =  -2.3357398824034E-02
(PID.TID 0000.0001) %MON dynstat_uvel_mean            =  -1.8592388359684E-05
(PID.TID 0000.0001) %MON dynstat_uvel_sd              =   2.8969824979075E-03
(PID.TID 0000.0001) %MON dynstat_uvel_del2            =   1.3553307045757E-04
(PID.TID 0000.0001) %MON dynstat_vvel_max             =   2.0809987795392E-02
(PID.TID 0000.0001) %MON dynstat_vvel_min             =  -4.3179521517471E-02
(PID.TID 0000.0001) %MON dynstat_vvel_mean            =   1.7629075413244E-04
(PID.TID 0000.0001) %MON dynstat_vvel_sd              =   3.3644941039225E-03
(PID.TID 0000.0001) %MON dynstat_vvel_del2            =   1.3187398855968E-04
(PID.TID 0000.0001) %MON dynstat_wvel_max             =   2.6562694123529E-05
(PID.TID 0000.0001) %MON dynstat_wvel_min             =  -1.9755093092518E-05
(PID.TID 0000.0001) %MON dynstat_wvel_mean            =   0.0000000000000E+00
(PID.TID 0000.0001) %MON dynstat_wvel_sd              =   7.3084301974299E-06
(PID.TID 0000.0001) %MON dynstat_wvel_del2            =   1.7847566422248E-07
(PID.TID 0000.0001) %MON dynstat_theta_max            =   1.2475980078762E+01
(PID.TID 0000.0001) %MON dynstat_theta_min            =  -1.8563184939182E+00
(PID.TID 0000.0001) %MON dynstat_theta_mean           =   3.0884146052223E+00
(PID.TID 0000.0001) %MON dynstat_theta_sd             =   1.4312539282892E+00
(PID.TID 0000.0001) %MON dynstat_theta_del2           =   1.7780351221936E-02
(PID.TID 0000.0001) %MON dynstat_salt_max             =   3.5292788846379E+01
(PID.TID 0000.0001) %MON dynstat_salt_min             =   3.0708121561044E+01
(PID.TID 0000.0001) %MON dynstat_salt_mean            =   3.4759313654233E+01
(PID.TID 0000.0001) %MON dynstat_salt_sd              =   4.2863421722380E-01
(PID.TID 0000.0001) %MON dynstat_salt_del2            =   4.0350093321891E-03
(PID.TID 0000.0001) %MON forcing_qnet_max             =   2.7450412492097E+02
(PID.TID 0000.0001) %MON forcing_qnet_min             =  -1.2797458840763E+01
(PID.TID 0000.0001) %MON forcing_qnet_mean            =   1.0135683668545E+02
(PID.TID 0000.0001) %MON forcing_qnet_sd              =   5.8745277363538E+01
(PID.TID 0000.0001) %MON forcing_qnet_del2            =   5.4522550276247E+00
(PID.TID 0000.0001) %MON forcing_qsw_max              =  -1.8201504142027E-06
(PID.TID 0000.0001) %MON forcing_qsw_min              =  -6.4067465766532E+01
(PID.TID 0000.0001) %MON forcing_qsw_mean             =  -2.4756366711103E+01
(PID.TID 0000.0001) %MON forcing_qsw_sd               =   2.1139966193502E+01
(PID.TID 0000.0001) %MON forcing_qsw_del2             =   3.7663961090072E-01
(PID.TID 0000.0001) %MON forcing_empmr_max            =   5.8118506640608E-04
(PID.TID 0000.0001) %MON forcing_empmr_min            =  -8.3174805431436E-05
(PID.TID 0000.0001) %MON forcing_empmr_mean           =   1.5004866383186E-05
(PID.TID 0000.0001) %MON forcing_empmr_sd             =   8.9862838067522E-05
(PID.TID 0000.0001) %MON forcing_empmr_del2           =   1.0597170748611E-05
(PID.TID 0000.0001) %MON forcing_fu_max               =   6.2095967002358E-02
(PID.TID 0000.0001) %MON forcing_fu_min               =  -1.8235838465196E-02
(PID.TID 0000.0001) %MON forcing_fu_mean              =   2.3854887561667E-02
(PID.TID 0000.0001) %MON forcing_fu_sd                =   2.0964956484683E-02
(PID.TID 0000.0001) %MON forcing_fu_del2              =   5.8401269273131E-04
(PID.TID 0000.0001) %MON forcing_fv_max               =   1.4719900101549E-02
(PID.TID 0000.0001) %MON forcing_fv_min               =  -4.1820411146335E-02
(PID.TID 0000.0001) %MON forcing_fv_mean              =  -4.7020095136025E-03
(PID.TID 0000.0001) %MON forcing_fv_sd                =   1.1611335342067E-02
(PID.TID 0000.0001) %MON forcing_fv_del2              =   4.4414356392690E-04
(PID.TID 0000.0001) %MON trAdv_CFL_u_max              =   1.1087426674083E-03
(PID.TID 0000.0001) %MON trAdv_CFL_v_max              =   7.9213771734383E-04
(PID.TID 0000.0001) %MON trAdv_CFL_w_max              =   1.7040586506887E-03
(PID.TID 0000.0001) %MON advcfl_uvel_max              =   8.4414365300070E-04
(PID.TID 0000.0001) %MON advcfl_vvel_max              =   6.9898097941010E-04
(PID.TID 0000.0001) %MON advcfl_wvel_max              =   3.2584688692384E-03
(PID.TID 0000.0001) %MON advcfl_W_hf_max              =   2.0338157833328E-03
(PID.TID 0000.0001) %MON pe_b_mean                    =   6.3575536155982E-06
(PID.TID 0000.0001) %MON ke_max                       =   8.1554130449707E-04
(PID.TID 0000.0001) %MON ke_mean                      =   7.7302524397596E-06
(PID.TID 0000.0001) %MON ke_vol                       =   5.2906584519726E+15
(PID.TID 0000.0001) %MON vort_r_min                   =  -2.5342746708477E-07
(PID.TID 0000.0001) %MON vort_r_max                   =   2.1448105450737E-07
(PID.TID 0000.0001) %MON vort_a_mean                  =   1.2074434650046E-04
(PID.TID 0000.0001) %MON vort_a_sd                    =   8.7670683834851E-06
(PID.TID 0000.0001) %MON vort_p_mean                  =   1.7734550359553E-04
(PID.TID 0000.0001) %MON vort_p_sd                    =   1.1735491463929E-04
(PID.TID 0000.0001) %MON surfExpan_theta_mean         =  -6.2330033540902E-07
(PID.TID 0000.0001) %MON surfExpan_salt_mean          =   1.5859676822233E-07
(PID.TID 0000.0001) // =======================================================
(PID.TID 0000.0001) // End MONITOR dynamic field statistics
(PID.TID 0000.0001) // =======================================================
(PID.TID 0000.0001) // =======================================================
(PID.TID 0000.0001) // Begin MONITOR SEAICE statistics
(PID.TID 0000.0001) // =======================================================
(PID.TID 0000.0001) %MON seaice_tsnumber              =                     6
(PID.TID 0000.0001) %MON seaice_time_sec              =   2.1600000000000E+04
(PID.TID 0000.0001) %MON seaice_uice_max              =   1.3834237870880E-01
(PID.TID 0000.0001) %MON seaice_uice_min              =  -6.9377823299570E-02
(PID.TID 0000.0001) %MON seaice_uice_mean             =   5.3995749784198E-02
(PID.TID 0000.0001) %MON seaice_uice_sd               =   5.0232227108938E-02
(PID.TID 0000.0001) %MON seaice_uice_del2             =   1.7107871932951E-03
(PID.TID 0000.0001) %MON seaice_vice_max              =   3.9433098255289E-02
(PID.TID 0000.0001) %MON seaice_vice_min              =  -1.0418472528255E-01
(PID.TID 0000.0001) %MON seaice_vice_mean             =  -1.9403904046018E-02
(PID.TID 0000.0001) %MON seaice_vice_sd               =   3.4363594742867E-02
(PID.TID 0000.0001) %MON seaice_vice_del2             =   1.4870446599602E-03
(PID.TID 0000.0001) %MON seaice_area_max              =   9.9997221253450E-01
(PID.TID 0000.0001) %MON seaice_area_min              =   0.0000000000000E+00
(PID.TID 0000.0001) %MON seaice_area_mean             =   3.1864140625983E-01
(PID.TID 0000.0001) %MON seaice_area_sd               =   4.4071566926583E-01
(PID.TID 0000.0001) %MON seaice_area_del2             =   2.1691876574681E-02
(PID.TID 0000.0001) %MON seaice_heff_max              =   1.6275636719582E+00
(PID.TID 0000.0001) %MON seaice_heff_min              =   0.0000000000000E+00
(PID.TID 0000.0001) %MON seaice_heff_mean             =   1.7127579035369E-01
(PID.TID 0000.0001) %MON seaice_heff_sd               =   3.3192343593667E-01
(PID.TID 0000.0001) %MON seaice_heff_del2             =   9.3952438431023E-03
(PID.TID 0000.0001) %MON seaice_hsnow_max             =   3.4611854036922E-01
(PID.TID 0000.0001) %MON seaice_hsnow_min             =   0.0000000000000E+00
(PID.TID 0000.0001) %MON seaice_hsnow_mean            =   3.0653360531495E-02
(PID.TID 0000.0001) %MON seaice_hsnow_sd              =   6.5302667355025E-02
(PID.TID 0000.0001) %MON seaice_hsnow_del2            =   2.1221799095171E-03
(PID.TID 0000.0001) // =======================================================
(PID.TID 0000.0001) // End MONITOR SEAICE statistics
(PID.TID 0000.0001) // =======================================================
 Computing Diagnostic #    197  EXFtaux      Counter:       1   Parms: UM      U1      
 Computing Diagnostic #    198  EXFtauy      Counter:       1   Parms: VM      U1      
 Computing Diagnostic #    196  EXFqnet      Counter:       1   Parms: SM      U1      
 Computing Diagnostic #    207  EXFempmr     Counter:       1   Parms: SM      U1      
 Computing Diagnostic #    191  EXFhl        Counter:       1   Parms: SM      U1      
 Computing Diagnostic #    190  EXFhs        Counter:       1   Parms: SM      U1      
 Computing Diagnostic #    193  EXFswnet     Counter:       1   Parms: SM      U1      
 Computing Diagnostic #    192  EXFlwnet     Counter:       1   Parms: SM      U1      
 Computing Diagnostic #    199  EXFuwind     Counter:       1   Parms: UM      U1      
 Computing Diagnostic #    200  EXFvwind     Counter:       1   Parms: VM      U1      
 Computing Diagnostic #    202  EXFatemp     Counter:       1   Parms: SM      U1      
(PID.TID 0000.0001) // =======================================================
(PID.TID 0000.0001) // Begin MONITOR EXF statistics
(PID.TID 0000.0001) // =======================================================
(PID.TID 0000.0001) %MON exf_tsnumber                 =                     6
(PID.TID 0000.0001) %MON exf_time_sec                 =   2.1600000000000E+04
(PID.TID 0000.0001) %MON exf_ustress_max              =   6.2656435871872E-02
(PID.TID 0000.0001) %MON exf_ustress_min              =  -9.3852176239139E-02
(PID.TID 0000.0001) %MON exf_ustress_mean             =   2.2473529394326E-02
(PID.TID 0000.0001) %MON exf_ustress_sd               =   2.6366525809653E-02
(PID.TID 0000.0001) %MON exf_ustress_del2             =   7.2641445668689E-04
(PID.TID 0000.0001) %MON exf_vstress_max              =   5.3865417155074E-02
(PID.TID 0000.0001) %MON exf_vstress_min              =  -5.9407345651809E-02
(PID.TID 0000.0001) %MON exf_vstress_mean             =  -5.2356590763207E-03
(PID.TID 0000.0001) %MON exf_vstress_sd               =   1.5113769617196E-02
(PID.TID 0000.0001) %MON exf_vstress_del2             =   5.1414000754301E-04
(PID.TID 0000.0001) %MON exf_hflux_max                =   6.3289444438555E+02
(PID.TID 0000.0001) %MON exf_hflux_min                =   8.9522159628835E+01
(PID.TID 0000.0001) %MON exf_hflux_mean               =   2.1623370394409E+02
(PID.TID 0000.0001) %MON exf_hflux_sd                 =   1.3262629750742E+02
(PID.TID 0000.0001) %MON exf_hflux_del2               =   1.4013866539330E+01
(PID.TID 0000.0001) %MON exf_sflux_max                =   4.0740456901319E-08
(PID.TID 0000.0001) %MON exf_sflux_min                =  -8.3196669412824E-08
(PID.TID 0000.0001) %MON exf_sflux_mean               =  -1.6138776270082E-08
(PID.TID 0000.0001) %MON exf_sflux_sd                 =   2.4298596590729E-08
(PID.TID 0000.0001) %MON exf_sflux_del2               =   1.7116252430383E-09
(PID.TID 0000.0001) %MON exf_uwind_max                =   6.4674192569295E+00
(PID.TID 0000.0001) %MON exf_uwind_min                =  -6.8373987635628E+00
(PID.TID 0000.0001) %MON exf_uwind_mean               =   2.8376653430251E+00
(PID.TID 0000.0001) %MON exf_uwind_sd                 =   2.9492510645536E+00
(PID.TID 0000.0001) %MON exf_uwind_del2               =   8.0529198020703E-02
(PID.TID 0000.0001) %MON exf_vwind_max                =   3.9242492972827E+00
(PID.TID 0000.0001) %MON exf_vwind_min                =  -6.0142679292648E+00
(PID.TID 0000.0001) %MON exf_vwind_mean               =  -7.4512403539546E-01
(PID.TID 0000.0001) %MON exf_vwind_sd                 =   1.7358405060504E+00
(PID.TID 0000.0001) %MON exf_vwind_del2               =   4.8321964141182E-02
(PID.TID 0000.0001) %MON exf_wspeed_max               =   7.8835115525503E+00
(PID.TID 0000.0001) %MON exf_wspeed_min               =   4.5889518386928E-01
(PID.TID 0000.0001) %MON exf_wspeed_mean              =   4.2115745586076E+00
(PID.TID 0000.0001) %MON exf_wspeed_sd                =   1.6066792675062E+00
(PID.TID 0000.0001) %MON exf_wspeed_del2              =   2.4137780502758E-01
(PID.TID 0000.0001) %MON exf_atemp_max                =   2.8187253958280E+02
(PID.TID 0000.0001) %MON exf_atemp_min                =   2.3643497929808E+02
(PID.TID 0000.0001) %MON exf_atemp_mean               =   2.6417534487786E+02
(PID.TID 0000.0001) %MON exf_atemp_sd                 =   1.1845677473726E+01
(PID.TID 0000.0001) %MON exf_atemp_del2               =   7.2544936452783E-01
(PID.TID 0000.0001) %MON exf_aqh_max                  =   6.3189936985002E-03
(PID.TID 0000.0001) %MON exf_aqh_min                  =   1.6312812718364E-04
(PID.TID 0000.0001) %MON exf_aqh_mean                 =   2.5030862364771E-03
(PID.TID 0000.0001) %MON exf_aqh_sd                   =   1.4157611912313E-03
(PID.TID 0000.0001) %MON exf_aqh_del2                 =   7.8462246564703E-05
(PID.TID 0000.0001) %MON exf_lwflux_max               =   1.8560738310834E+02
(PID.TID 0000.0001) %MON exf_lwflux_min               =   6.7046527427230E+01
(PID.TID 0000.0001) %MON exf_lwflux_mean              =   9.7211791434408E+01
(PID.TID 0000.0001) %MON exf_lwflux_sd                =   3.0717286796271E+01
(PID.TID 0000.0001) %MON exf_lwflux_del2              =   4.7447362141822E+00
(PID.TID 0000.0001) %MON exf_evap_max                 =   4.7060688459830E-08
(PID.TID 0000.0001) %MON exf_evap_min                 =   5.4729555596320E-09
(PID.TID 0000.0001) %MON exf_evap_mean                =   2.0564498227301E-08
(PID.TID 0000.0001) %MON exf_evap_sd                  =   6.9483345371882E-09
(PID.TID 0000.0001) %MON exf_evap_del2                =   1.0841137327824E-09
(PID.TID 0000.0001) %MON exf_precip_max               =   1.0499595166344E-07
(PID.TID 0000.0001) %MON exf_precip_min               =   2.7279142810763E-10
(PID.TID 0000.0001) %MON exf_precip_mean              =   3.6703274497383E-08
(PID.TID 0000.0001) %MON exf_precip_sd                =   2.0519090188821E-08
(PID.TID 0000.0001) %MON exf_precip_del2              =   1.7258147190937E-09
(PID.TID 0000.0001) %MON exf_swflux_max               =  -8.1207452738871E-02
(PID.TID 0000.0001) %MON exf_swflux_min               =  -6.4086336117103E+01
(PID.TID 0000.0001) %MON exf_swflux_mean              =  -2.6850795554441E+01
(PID.TID 0000.0001) %MON exf_swflux_sd                =   1.9545141060979E+01
(PID.TID 0000.0001) %MON exf_swflux_del2              =   7.9418820075983E-01
(PID.TID 0000.0001) %MON exf_swdown_max               =   7.1207040130115E+01
(PID.TID 0000.0001) %MON exf_swdown_min               =   9.0230503043190E-02
(PID.TID 0000.0001) %MON exf_swdown_mean              =   2.9834217282713E+01
(PID.TID 0000.0001) %MON exf_swdown_sd                =   2.1716823401088E+01
(PID.TID 0000.0001) %MON exf_swdown_del2              =   8.8243133417759E-01
(PID.TID 0000.0001) %MON exf_lwdown_max               =   3.0562676151463E+02
(PID.TID 0000.0001) %MON exf_lwdown_min               =   1.1590705083628E+02
(PID.TID 0000.0001) %MON exf_lwdown_mean              =   2.2675304581005E+02
(PID.TID 0000.0001) %MON exf_lwdown_sd                =   4.5891847675798E+01
(PID.TID 0000.0001) %MON exf_lwdown_del2              =   8.3908978996937E+00
(PID.TID 0000.0001) %MON exf_climsss_max              =   3.5041439369077E+01
(PID.TID 0000.0001) %MON exf_climsss_min              =   3.0670869139374E+01
(PID.TID 0000.0001) %MON exf_climsss_mean             =   3.3456839548966E+01
(PID.TID 0000.0001) %MON exf_climsss_sd               =   1.0364926888625E+00
(PID.TID 0000.0001) %MON exf_climsss_del2             =   2.7339610607248E-02
(PID.TID 0000.0001) // =======================================================
(PID.TID 0000.0001) // End MONITOR EXF statistics
(PID.TID 0000.0001) // =======================================================
 cg2d: Sum(rhs),rhsMax =   2.24598117881669E-13  3.85500671707878E-01
(PID.TID 0000.0001)      cg2d_init_res =   8.24118422135039E-02
(PID.TID 0000.0001)      cg2d_iters(min,last) =      -1      41
(PID.TID 0000.0001)      cg2d_last_res =   5.76078445836422E-13
(PID.TID 0000.0001) // =======================================================
(PID.TID 0000.0001) // Begin MONITOR dynamic field statistics
(PID.TID 0000.0001) // =======================================================
(PID.TID 0000.0001) %MON time_tsnumber                =                     7
(PID.TID 0000.0001) %MON time_secondsf                =   2.5200000000000E+04
(PID.TID 0000.0001) %MON dynstat_eta_max              =   8.8014036292277E-02
(PID.TID 0000.0001) %MON dynstat_eta_min              =  -9.8913465624221E-02
(PID.TID 0000.0001) %MON dynstat_eta_mean             =  -2.2874986071454E-15
(PID.TID 0000.0001) %MON dynstat_eta_sd               =   4.1485865976856E-02
(PID.TID 0000.0001) %MON dynstat_eta_del2             =   1.8181493931972E-03
(PID.TID 0000.0001) %MON dynstat_uvel_max             =   2.7631784733327E-02
(PID.TID 0000.0001) %MON dynstat_uvel_min             =  -1.9976876773322E-02
(PID.TID 0000.0001) %MON dynstat_uvel_mean            =  -7.5854177175343E-05
(PID.TID 0000.0001) %MON dynstat_uvel_sd              =   2.3297585276021E-03
(PID.TID 0000.0001) %MON dynstat_uvel_del2            =   1.1156166143015E-04
(PID.TID 0000.0001) %MON dynstat_vvel_max             =   2.1440727346750E-02
(PID.TID 0000.0001) %MON dynstat_vvel_min             =  -4.1451438330257E-02
(PID.TID 0000.0001) %MON dynstat_vvel_mean            =   2.7222802493580E-04
(PID.TID 0000.0001) %MON dynstat_vvel_sd              =   3.3744477672588E-03
(PID.TID 0000.0001) %MON dynstat_vvel_del2            =   1.3901086396186E-04
(PID.TID 0000.0001) %MON dynstat_wvel_max             =   1.8171540637408E-05
(PID.TID 0000.0001) %MON dynstat_wvel_min             =  -2.4493169970209E-05
(PID.TID 0000.0001) %MON dynstat_wvel_mean            =  -1.9817828193508E-22
(PID.TID 0000.0001) %MON dynstat_wvel_sd              =   4.8954585871596E-06
(PID.TID 0000.0001) %MON dynstat_wvel_del2            =   1.2803040801022E-07
(PID.TID 0000.0001) %MON dynstat_theta_max            =   1.2476082989119E+01
(PID.TID 0000.0001) %MON dynstat_theta_min            =  -1.8560922317900E+00
(PID.TID 0000.0001) %MON dynstat_theta_mean           =   3.0883589798099E+00
(PID.TID 0000.0001) %MON dynstat_theta_sd             =   1.4312063020819E+00
(PID.TID 0000.0001) %MON dynstat_theta_del2           =   1.7779802130103E-02
(PID.TID 0000.0001) %MON dynstat_salt_max             =   3.5292761303320E+01
(PID.TID 0000.0001) %MON dynstat_salt_min             =   3.0708142762994E+01
(PID.TID 0000.0001) %MON dynstat_salt_mean            =   3.4759315262267E+01
(PID.TID 0000.0001) %MON dynstat_salt_sd              =   4.2862353099994E-01
(PID.TID 0000.0001) %MON dynstat_salt_del2            =   4.0346030438920E-03
(PID.TID 0000.0001) %MON forcing_qnet_max             =   2.7447255480210E+02
(PID.TID 0000.0001) %MON forcing_qnet_min             =  -6.0159956270672E+00
(PID.TID 0000.0001) %MON forcing_qnet_mean            =   1.0164947768523E+02
(PID.TID 0000.0001) %MON forcing_qnet_sd              =   5.8203121018966E+01
(PID.TID 0000.0001) %MON forcing_qnet_del2            =   5.2784621838871E+00
(PID.TID 0000.0001) %MON forcing_qsw_max              =  -2.2644676642704E-06
(PID.TID 0000.0001) %MON forcing_qsw_min              =  -6.4086336117103E+01
(PID.TID 0000.0001) %MON forcing_qsw_mean             =  -2.4765778721972E+01
(PID.TID 0000.0001) %MON forcing_qsw_sd               =   2.1142714591571E+01
(PID.TID 0000.0001) %MON forcing_qsw_del2             =   3.7645343584606E-01
(PID.TID 0000.0001) %MON forcing_empmr_max            =   5.5886606193100E-04
(PID.TID 0000.0001) %MON forcing_empmr_min            =  -8.3180030078942E-05
(PID.TID 0000.0001) %MON forcing_empmr_mean           =   1.4138087094694E-05
(PID.TID 0000.0001) %MON forcing_empmr_sd             =   8.6844553193827E-05
(PID.TID 0000.0001) %MON forcing_empmr_del2           =   1.0158564522906E-05
(PID.TID 0000.0001) %MON forcing_fu_max               =   6.2105912186098E-02
(PID.TID 0000.0001) %MON forcing_fu_min               =  -1.8249074843960E-02
(PID.TID 0000.0001) %MON forcing_fu_mean              =   2.3884782113594E-02
(PID.TID 0000.0001) %MON forcing_fu_sd                =   2.0951547140244E-02
(PID.TID 0000.0001) %MON forcing_fu_del2              =   5.8052981890587E-04
(PID.TID 0000.0001) %MON forcing_fv_max               =   1.4723620487498E-02
(PID.TID 0000.0001) %MON forcing_fv_min               =  -4.1806435535539E-02
(PID.TID 0000.0001) %MON forcing_fv_mean              =  -4.6832701981339E-03
(PID.TID 0000.0001) %MON forcing_fv_sd                =   1.1613407442821E-02
(PID.TID 0000.0001) %MON forcing_fv_del2              =   4.4558248790193E-04
(PID.TID 0000.0001) %MON trAdv_CFL_u_max              =   8.4418651133407E-04
(PID.TID 0000.0001) %MON trAdv_CFL_v_max              =   7.2091851980975E-04
(PID.TID 0000.0001) %MON trAdv_CFL_w_max              =   1.6876019479246E-03
(PID.TID 0000.0001) %MON advcfl_uvel_max              =   7.1610093878675E-04
(PID.TID 0000.0001) %MON advcfl_vvel_max              =   6.7100713356254E-04
(PID.TID 0000.0001) %MON advcfl_wvel_max              =   2.6524017562344E-03
(PID.TID 0000.0001) %MON advcfl_W_hf_max              =   1.6616545962334E-03
(PID.TID 0000.0001) %MON pe_b_mean                    =   5.6166428256368E-06
(PID.TID 0000.0001) %MON ke_max                       =   7.9396772282204E-04
(PID.TID 0000.0001) %MON ke_mean                      =   6.6043016037904E-06
(PID.TID 0000.0001) %MON ke_vol                       =   5.2906584519726E+15
(PID.TID 0000.0001) %MON vort_r_min                   =  -2.4052323395331E-07
(PID.TID 0000.0001) %MON vort_r_max                   =   2.0712909740997E-07
(PID.TID 0000.0001) %MON vort_a_mean                  =   1.2074434650046E-04
(PID.TID 0000.0001) %MON vort_a_sd                    =   8.7670361873222E-06
(PID.TID 0000.0001) %MON vort_p_mean                  =   1.7734550359553E-04
(PID.TID 0000.0001) %MON vort_p_sd                    =   1.1735210285357E-04
(PID.TID 0000.0001) %MON surfExpan_theta_mean         =  -1.6727552034084E-06
(PID.TID 0000.0001) %MON surfExpan_salt_mean          =   9.6208683230949E-08
(PID.TID 0000.0001) // =======================================================
(PID.TID 0000.0001) // End MONITOR dynamic field statistics
(PID.TID 0000.0001) // =======================================================
(PID.TID 0000.0001) // =======================================================
(PID.TID 0000.0001) // Begin MONITOR SEAICE statistics
(PID.TID 0000.0001) // =======================================================
(PID.TID 0000.0001) %MON seaice_tsnumber              =                     7
(PID.TID 0000.0001) %MON seaice_time_sec              =   2.5200000000000E+04
(PID.TID 0000.0001) %MON seaice_uice_max              =   1.3610990581652E-01
(PID.TID 0000.0001) %MON seaice_uice_min              =  -6.4542969893273E-02
(PID.TID 0000.0001) %MON seaice_uice_mean             =   5.2686283617912E-02
(PID.TID 0000.0001) %MON seaice_uice_sd               =   4.8872724971088E-02
(PID.TID 0000.0001) %MON seaice_uice_del2             =   1.5781918833436E-03
(PID.TID 0000.0001) %MON seaice_vice_max              =   3.5939253634614E-02
(PID.TID 0000.0001) %MON seaice_vice_min              =  -1.0255335741729E-01
(PID.TID 0000.0001) %MON seaice_vice_mean             =  -1.9270341843382E-02
(PID.TID 0000.0001) %MON seaice_vice_sd               =   3.3649965016213E-02
(PID.TID 0000.0001) %MON seaice_vice_del2             =   1.4664863495051E-03
(PID.TID 0000.0001) %MON seaice_area_max              =   9.9996666974032E-01
(PID.TID 0000.0001) %MON seaice_area_min              =   0.0000000000000E+00
(PID.TID 0000.0001) %MON seaice_area_mean             =   3.1852503710880E-01
(PID.TID 0000.0001) %MON seaice_area_sd               =   4.4047453496656E-01
(PID.TID 0000.0001) %MON seaice_area_del2             =   2.1660103000580E-02
(PID.TID 0000.0001) %MON seaice_heff_max              =   1.6276907591682E+00
(PID.TID 0000.0001) %MON seaice_heff_min              =   0.0000000000000E+00
(PID.TID 0000.0001) %MON seaice_heff_mean             =   1.7141063932264E-01
(PID.TID 0000.0001) %MON seaice_heff_sd               =   3.3200749203768E-01
(PID.TID 0000.0001) %MON seaice_heff_del2             =   9.4023632192941E-03
(PID.TID 0000.0001) %MON seaice_hsnow_max             =   3.4629564082383E-01
(PID.TID 0000.0001) %MON seaice_hsnow_min             =   0.0000000000000E+00
(PID.TID 0000.0001) %MON seaice_hsnow_mean            =   3.0702932778431E-02
(PID.TID 0000.0001) %MON seaice_hsnow_sd              =   6.5344445290398E-02
(PID.TID 0000.0001) %MON seaice_hsnow_del2            =   2.1246161211688E-03
(PID.TID 0000.0001) // =======================================================
(PID.TID 0000.0001) // End MONITOR SEAICE statistics
(PID.TID 0000.0001) // =======================================================
(PID.TID 0000.0001) // =======================================================
(PID.TID 0000.0001) // Begin MONITOR EXF statistics
(PID.TID 0000.0001) // =======================================================
(PID.TID 0000.0001) %MON exf_tsnumber                 =                     7
(PID.TID 0000.0001) %MON exf_time_sec                 =   2.5200000000000E+04
(PID.TID 0000.0001) %MON exf_ustress_max              =   6.2667362727332E-02
(PID.TID 0000.0001) %MON exf_ustress_min              =  -9.3855212052013E-02
(PID.TID 0000.0001) %MON exf_ustress_mean             =   2.2476092383025E-02
(PID.TID 0000.0001) %MON exf_ustress_sd               =   2.6370754313052E-02
(PID.TID 0000.0001) %MON exf_ustress_del2             =   7.2647792517385E-04
(PID.TID 0000.0001) %MON exf_vstress_max              =   5.3867362814863E-02
(PID.TID 0000.0001) %MON exf_vstress_min              =  -5.9390760131708E-02
(PID.TID 0000.0001) %MON exf_vstress_mean             =  -5.2309176918210E-03
(PID.TID 0000.0001) %MON exf_vstress_sd               =   1.5115030626928E-02
(PID.TID 0000.0001) %MON exf_vstress_del2             =   5.1415040526240E-04
(PID.TID 0000.0001) %MON exf_hflux_max                =   6.3299960214239E+02
(PID.TID 0000.0001) %MON exf_hflux_min                =   8.9519039013431E+01
(PID.TID 0000.0001) %MON exf_hflux_mean               =   2.1626339447629E+02
(PID.TID 0000.0001) %MON exf_hflux_sd                 =   1.3266509838788E+02
(PID.TID 0000.0001) %MON exf_hflux_del2               =   1.4018237063826E+01
(PID.TID 0000.0001) %MON exf_sflux_max                =   4.0747430601188E-08
(PID.TID 0000.0001) %MON exf_sflux_min                =  -8.3202110249903E-08
(PID.TID 0000.0001) %MON exf_sflux_mean               =  -1.6137747201897E-08
(PID.TID 0000.0001) %MON exf_sflux_sd                 =   2.4301233566757E-08
(PID.TID 0000.0001) %MON exf_sflux_del2               =   1.7119948002019E-09
(PID.TID 0000.0001) %MON exf_uwind_max                =   6.4679267093784E+00
(PID.TID 0000.0001) %MON exf_uwind_min                =  -6.8374255452651E+00
(PID.TID 0000.0001) %MON exf_uwind_mean               =   2.8377732131550E+00
(PID.TID 0000.0001) %MON exf_uwind_sd                 =   2.9495341791939E+00
(PID.TID 0000.0001) %MON exf_uwind_del2               =   8.0529094957072E-02
(PID.TID 0000.0001) %MON exf_vwind_max                =   3.9242794780783E+00
(PID.TID 0000.0001) %MON exf_vwind_min                =  -6.0133620194399E+00
(PID.TID 0000.0001) %MON exf_vwind_mean               =  -7.4449574074383E-01
(PID.TID 0000.0001) %MON exf_vwind_sd                 =   1.7359441235563E+00
(PID.TID 0000.0001) %MON exf_vwind_del2               =   4.8322278828920E-02
(PID.TID 0000.0001) %MON exf_wspeed_max               =   7.8835498038073E+00
(PID.TID 0000.0001) %MON exf_wspeed_min               =   4.5865235699732E-01
(PID.TID 0000.0001) %MON exf_wspeed_mean              =   4.2116782754015E+00
(PID.TID 0000.0001) %MON exf_wspeed_sd                =   1.6069382987967E+00
(PID.TID 0000.0001) %MON exf_wspeed_del2              =   2.4137493291277E-01
(PID.TID 0000.0001) %MON exf_atemp_max                =   2.8187082742993E+02
(PID.TID 0000.0001) %MON exf_atemp_min                =   2.3643051433042E+02
(PID.TID 0000.0001) %MON exf_atemp_mean               =   2.6417067534234E+02
(PID.TID 0000.0001) %MON exf_atemp_sd                 =   1.1847222024262E+01
(PID.TID 0000.0001) %MON exf_atemp_del2               =   7.2575552194827E-01
(PID.TID 0000.0001) %MON exf_aqh_max                  =   6.3182971576392E-03
(PID.TID 0000.0001) %MON exf_aqh_min                  =   1.6303402368524E-04
(PID.TID 0000.0001) %MON exf_aqh_mean                 =   2.5025199450347E-03
(PID.TID 0000.0001) %MON exf_aqh_sd                   =   1.4156650133020E-03
(PID.TID 0000.0001) %MON exf_aqh_del2                 =   7.8437750501026E-05
(PID.TID 0000.0001) %MON exf_lwflux_max               =   1.8562242987517E+02
(PID.TID 0000.0001) %MON exf_lwflux_min               =   6.7047944459427E+01
(PID.TID 0000.0001) %MON exf_lwflux_mean              =   9.7219835989993E+01
(PID.TID 0000.0001) %MON exf_lwflux_sd                =   3.0724942069141E+01
(PID.TID 0000.0001) %MON exf_lwflux_del2              =   4.7456108399951E+00
(PID.TID 0000.0001) %MON exf_evap_max                 =   4.7066999448768E-08
(PID.TID 0000.0001) %MON exf_evap_min                 =   5.4673253766733E-09
(PID.TID 0000.0001) %MON exf_evap_mean                =   2.0565509362737E-08
(PID.TID 0000.0001) %MON exf_evap_sd                  =   6.9489105035564E-09
(PID.TID 0000.0001) %MON exf_evap_del2                =   1.0843287927180E-09
(PID.TID 0000.0001) %MON exf_precip_max               =   1.0499733310606E-07
(PID.TID 0000.0001) %MON exf_precip_min               =   2.7265750163496E-10
(PID.TID 0000.0001) %MON exf_precip_mean              =   3.6703256564634E-08
(PID.TID 0000.0001) %MON exf_precip_sd                =   2.0519560133364E-08
(PID.TID 0000.0001) %MON exf_precip_del2              =   1.7260983504415E-09
(PID.TID 0000.0001) %MON exf_swflux_max               =  -8.1207735616653E-02
(PID.TID 0000.0001) %MON exf_swflux_min               =  -6.4105206467675E+01
(PID.TID 0000.0001) %MON exf_swflux_mean              =  -2.6861460988848E+01
(PID.TID 0000.0001) %MON exf_swflux_sd                =   1.9548866962208E+01
(PID.TID 0000.0001) %MON exf_swflux_del2              =   7.9460146435554E-01
(PID.TID 0000.0001) %MON exf_swdown_max               =   7.1228007186306E+01
(PID.TID 0000.0001) %MON exf_swdown_min               =   9.0230817351836E-02
(PID.TID 0000.0001) %MON exf_swdown_mean              =   2.9846067765387E+01
(PID.TID 0000.0001) %MON exf_swdown_sd                =   2.1720963291342E+01
(PID.TID 0000.0001) %MON exf_swdown_del2              =   8.8289051595060E-01
(PID.TID 0000.0001) %MON exf_lwdown_max               =   3.0561793543081E+02
(PID.TID 0000.0001) %MON exf_lwdown_min               =   1.1589194395764E+02
(PID.TID 0000.0001) %MON exf_lwdown_mean              =   2.2673721270609E+02
(PID.TID 0000.0001) %MON exf_lwdown_sd                =   4.5896106183924E+01
(PID.TID 0000.0001) %MON exf_lwdown_del2              =   8.3899169857961E+00
(PID.TID 0000.0001) %MON exf_climsss_max              =   3.5041624116116E+01
(PID.TID 0000.0001) %MON exf_climsss_min              =   3.0671628467372E+01
(PID.TID 0000.0001) %MON exf_climsss_mean             =   3.3457352081183E+01
(PID.TID 0000.0001) %MON exf_climsss_sd               =   1.0364160713882E+00
(PID.TID 0000.0001) %MON exf_climsss_del2             =   2.7337121900890E-02
(PID.TID 0000.0001) // =======================================================
(PID.TID 0000.0001) // End MONITOR EXF statistics
(PID.TID 0000.0001) // =======================================================
 cg2d: Sum(rhs),rhsMax =   2.61068944240606E-13  3.81557308380781E-01
(PID.TID 0000.0001)      cg2d_init_res =   7.00648444615973E-02
(PID.TID 0000.0001)      cg2d_iters(min,last) =      -1      41
(PID.TID 0000.0001)      cg2d_last_res =   3.04677821487153E-13
(PID.TID 0000.0001) // =======================================================
(PID.TID 0000.0001) // Begin MONITOR dynamic field statistics
(PID.TID 0000.0001) // =======================================================
(PID.TID 0000.0001) %MON time_tsnumber                =                     8
(PID.TID 0000.0001) %MON time_secondsf                =   2.8800000000000E+04
(PID.TID 0000.0001) %MON dynstat_eta_max              =   8.3661017900301E-02
(PID.TID 0000.0001) %MON dynstat_eta_min              =  -9.7345532533375E-02
(PID.TID 0000.0001) %MON dynstat_eta_mean             =  -2.0745365638939E-15
(PID.TID 0000.0001) %MON dynstat_eta_sd               =   3.9333445938234E-02
(PID.TID 0000.0001) %MON dynstat_eta_del2             =   1.8324024649253E-03
(PID.TID 0000.0001) %MON dynstat_uvel_max             =   2.6118060785875E-02
(PID.TID 0000.0001) %MON dynstat_uvel_min             =  -2.5291692207940E-02
(PID.TID 0000.0001) %MON dynstat_uvel_mean            =  -1.0275301389242E-04
(PID.TID 0000.0001) %MON dynstat_uvel_sd              =   2.2048462100538E-03
(PID.TID 0000.0001) %MON dynstat_uvel_del2            =   1.0698696601098E-04
(PID.TID 0000.0001) %MON dynstat_vvel_max             =   2.6376994803911E-02
(PID.TID 0000.0001) %MON dynstat_vvel_min             =  -4.6760622152571E-02
(PID.TID 0000.0001) %MON dynstat_vvel_mean            =   2.8340605403842E-04
(PID.TID 0000.0001) %MON dynstat_vvel_sd              =   3.5525121899396E-03
(PID.TID 0000.0001) %MON dynstat_vvel_del2            =   1.5787389572073E-04
(PID.TID 0000.0001) %MON dynstat_wvel_max             =   1.6792457054468E-05
(PID.TID 0000.0001) %MON dynstat_wvel_min             =  -4.2661731467193E-05
(PID.TID 0000.0001) %MON dynstat_wvel_mean            =   6.1930713104712E-23
(PID.TID 0000.0001) %MON dynstat_wvel_sd              =   7.0638856028625E-06
(PID.TID 0000.0001) %MON dynstat_wvel_del2            =   2.0659161445755E-07
(PID.TID 0000.0001) %MON dynstat_theta_max            =   1.2476134737696E+01
(PID.TID 0000.0001) %MON dynstat_theta_min            =  -1.8558747245725E+00
(PID.TID 0000.0001) %MON dynstat_theta_mean           =   3.0883050025222E+00
(PID.TID 0000.0001) %MON dynstat_theta_sd             =   1.4311575025299E+00
(PID.TID 0000.0001) %MON dynstat_theta_del2           =   1.7780455200372E-02
(PID.TID 0000.0001) %MON dynstat_salt_max             =   3.5292733767366E+01
(PID.TID 0000.0001) %MON dynstat_salt_min             =   3.0708164072025E+01
(PID.TID 0000.0001) %MON dynstat_salt_mean            =   3.4759317120774E+01
(PID.TID 0000.0001) %MON dynstat_salt_sd              =   4.2861254485895E-01
(PID.TID 0000.0001) %MON dynstat_salt_del2            =   4.0345736499945E-03
(PID.TID 0000.0001) %MON forcing_qnet_max             =   2.7443938146680E+02
(PID.TID 0000.0001) %MON forcing_qnet_min             =  -3.9428951165727E+00
(PID.TID 0000.0001) %MON forcing_qnet_mean            =   1.0173057595452E+02
(PID.TID 0000.0001) %MON forcing_qnet_sd              =   5.7821149417825E+01
(PID.TID 0000.0001) %MON forcing_qnet_del2            =   5.1256719780831E+00
(PID.TID 0000.0001) %MON forcing_qsw_max              =  -2.7157450124722E-06
(PID.TID 0000.0001) %MON forcing_qsw_min              =  -6.4105206467675E+01
(PID.TID 0000.0001) %MON forcing_qsw_mean             =  -2.4775142288511E+01
(PID.TID 0000.0001) %MON forcing_qsw_sd               =   2.1145533374830E+01
(PID.TID 0000.0001) %MON forcing_qsw_del2             =   3.7614691152313E-01
(PID.TID 0000.0001) %MON forcing_empmr_max            =   5.4272198199280E-04
(PID.TID 0000.0001) %MON forcing_empmr_min            =  -8.3185469827853E-05
(PID.TID 0000.0001) %MON forcing_empmr_mean           =   1.3910017408186E-05
(PID.TID 0000.0001) %MON forcing_empmr_sd             =   8.4809785853945E-05
(PID.TID 0000.0001) %MON forcing_empmr_del2           =   9.7846018618038E-06
(PID.TID 0000.0001) %MON forcing_fu_max               =   6.2115959345021E-02
(PID.TID 0000.0001) %MON forcing_fu_min               =  -1.8262570138123E-02
(PID.TID 0000.0001) %MON forcing_fu_mean              =   2.3917620922617E-02
(PID.TID 0000.0001) %MON forcing_fu_sd                =   2.0941804217004E-02
(PID.TID 0000.0001) %MON forcing_fu_del2              =   5.8025357051144E-04
(PID.TID 0000.0001) %MON forcing_fv_max               =   1.4727330907062E-02
(PID.TID 0000.0001) %MON forcing_fv_min               =  -4.1792425229804E-02
(PID.TID 0000.0001) %MON forcing_fv_mean              =  -4.6575634407141E-03
(PID.TID 0000.0001) %MON forcing_fv_sd                =   1.1615116556991E-02
(PID.TID 0000.0001) %MON forcing_fv_del2              =   4.4808513377967E-04
(PID.TID 0000.0001) %MON trAdv_CFL_u_max              =   7.1613729621556E-04
(PID.TID 0000.0001) %MON trAdv_CFL_v_max              =   6.9042984800705E-04
(PID.TID 0000.0001) %MON trAdv_CFL_w_max              =   1.4223759225062E-03
(PID.TID 0000.0001) %MON advcfl_uvel_max              =   9.0181749350729E-04
(PID.TID 0000.0001) %MON advcfl_vvel_max              =   7.5695108054416E-04
(PID.TID 0000.0001) %MON advcfl_wvel_max              =   2.3253205893634E-03
(PID.TID 0000.0001) %MON advcfl_W_hf_max              =   1.3726640988942E-03
(PID.TID 0000.0001) %MON pe_b_mean                    =   5.0489431288863E-06
(PID.TID 0000.0001) %MON ke_max                       =   9.2589982758121E-04
(PID.TID 0000.0001) %MON ke_mean                      =   6.8647154354884E-06
(PID.TID 0000.0001) %MON ke_vol                       =   5.2906584519726E+15
(PID.TID 0000.0001) %MON vort_r_min                   =  -2.4501494015231E-07
(PID.TID 0000.0001) %MON vort_r_max                   =   2.0981501187745E-07
(PID.TID 0000.0001) %MON vort_a_mean                  =   1.2074434650046E-04
(PID.TID 0000.0001) %MON vort_a_sd                    =   8.7670326986325E-06
(PID.TID 0000.0001) %MON vort_p_mean                  =   1.7734550359553E-04
(PID.TID 0000.0001) %MON vort_p_sd                    =   1.1734980982067E-04
(PID.TID 0000.0001) %MON surfExpan_theta_mean         =  -2.1297097260660E-06
(PID.TID 0000.0001) %MON surfExpan_salt_mean          =   2.0431250473549E-08
(PID.TID 0000.0001) // =======================================================
(PID.TID 0000.0001) // End MONITOR dynamic field statistics
(PID.TID 0000.0001) // =======================================================
(PID.TID 0000.0001) // =======================================================
(PID.TID 0000.0001) // Begin MONITOR SEAICE statistics
(PID.TID 0000.0001) // =======================================================
(PID.TID 0000.0001) %MON seaice_tsnumber              =                     8
(PID.TID 0000.0001) %MON seaice_time_sec              =   2.8800000000000E+04
(PID.TID 0000.0001) %MON seaice_uice_max              =   1.3338151958033E-01
(PID.TID 0000.0001) %MON seaice_uice_min              =  -6.1415500302470E-02
(PID.TID 0000.0001) %MON seaice_uice_mean             =   5.1330971521045E-02
(PID.TID 0000.0001) %MON seaice_uice_sd               =   4.7702076675340E-02
(PID.TID 0000.0001) %MON seaice_uice_del2             =   1.4780297687415E-03
(PID.TID 0000.0001) %MON seaice_vice_max              =   3.1845015602858E-02
(PID.TID 0000.0001) %MON seaice_vice_min              =  -1.0360027777161E-01
(PID.TID 0000.0001) %MON seaice_vice_mean             =  -1.9624736715685E-02
(PID.TID 0000.0001) %MON seaice_vice_sd               =   3.3470488368199E-02
(PID.TID 0000.0001) %MON seaice_vice_del2             =   1.4992914739749E-03
(PID.TID 0000.0001) %MON seaice_area_max              =   9.9996111817799E-01
(PID.TID 0000.0001) %MON seaice_area_min              =   0.0000000000000E+00
(PID.TID 0000.0001) %MON seaice_area_mean             =   3.1841362535255E-01
(PID.TID 0000.0001) %MON seaice_area_sd               =   4.4024183334202E-01
(PID.TID 0000.0001) %MON seaice_area_del2             =   2.1624218965811E-02
(PID.TID 0000.0001) %MON seaice_heff_max              =   1.6278137806007E+00
(PID.TID 0000.0001) %MON seaice_heff_min              =   0.0000000000000E+00
(PID.TID 0000.0001) %MON seaice_heff_mean             =   1.7154456322443E-01
(PID.TID 0000.0001) %MON seaice_heff_sd               =   3.3209051302081E-01
(PID.TID 0000.0001) %MON seaice_heff_del2             =   9.4086466093919E-03
(PID.TID 0000.0001) %MON seaice_hsnow_max             =   3.4647277161664E-01
(PID.TID 0000.0001) %MON seaice_hsnow_min             =   0.0000000000000E+00
(PID.TID 0000.0001) %MON seaice_hsnow_mean            =   3.0752559088154E-02
(PID.TID 0000.0001) %MON seaice_hsnow_sd              =   6.5386428217238E-02
(PID.TID 0000.0001) %MON seaice_hsnow_del2            =   2.1271390512518E-03
(PID.TID 0000.0001) // =======================================================
(PID.TID 0000.0001) // End MONITOR SEAICE statistics
(PID.TID 0000.0001) // =======================================================
(PID.TID 0000.0001) // =======================================================
(PID.TID 0000.0001) // Begin MONITOR EXF statistics
(PID.TID 0000.0001) // =======================================================
(PID.TID 0000.0001) %MON exf_tsnumber                 =                     8
(PID.TID 0000.0001) %MON exf_time_sec                 =   2.8800000000000E+04
(PID.TID 0000.0001) %MON exf_ustress_max              =   6.2678355727652E-02
(PID.TID 0000.0001) %MON exf_ustress_min              =  -9.3858125084845E-02
(PID.TID 0000.0001) %MON exf_ustress_mean             =   2.2478659918200E-02
(PID.TID 0000.0001) %MON exf_ustress_sd               =   2.6375016625875E-02
(PID.TID 0000.0001) %MON exf_ustress_del2             =   7.2653836670396E-04
(PID.TID 0000.0001) %MON exf_vstress_max              =   5.3869238017433E-02
(PID.TID 0000.0001) %MON exf_vstress_min              =  -5.9374111011537E-02
(PID.TID 0000.0001) %MON exf_vstress_mean             =  -5.2261921151654E-03
(PID.TID 0000.0001) %MON exf_vstress_sd               =   1.5116312033220E-02
(PID.TID 0000.0001) %MON exf_vstress_del2             =   5.1416184902418E-04
(PID.TID 0000.0001) %MON exf_hflux_max                =   6.3309693039127E+02
(PID.TID 0000.0001) %MON exf_hflux_min                =   8.9514481265185E+01
(PID.TID 0000.0001) %MON exf_hflux_mean               =   2.1629817166192E+02
(PID.TID 0000.0001) %MON exf_hflux_sd                 =   1.3271476894432E+02
(PID.TID 0000.0001) %MON exf_hflux_del2               =   1.4022626662390E+01
(PID.TID 0000.0001) %MON exf_sflux_max                =   4.0753374024133E-08
(PID.TID 0000.0001) %MON exf_sflux_min                =  -8.3207957655975E-08
(PID.TID 0000.0001) %MON exf_sflux_mean               =  -1.6136141312994E-08
(PID.TID 0000.0001) %MON exf_sflux_sd                 =   2.4304926342854E-08
(PID.TID 0000.0001) %MON exf_sflux_del2               =   1.7122974320725E-09
(PID.TID 0000.0001) %MON exf_uwind_max                =   6.4684341618272E+00
(PID.TID 0000.0001) %MON exf_uwind_min                =  -6.8374523269674E+00
(PID.TID 0000.0001) %MON exf_uwind_mean               =   2.8378810832850E+00
(PID.TID 0000.0001) %MON exf_uwind_sd                 =   2.9498173341425E+00
(PID.TID 0000.0001) %MON exf_uwind_del2               =   8.0528995459648E-02
(PID.TID 0000.0001) %MON exf_vwind_max                =   3.9243096588739E+00
(PID.TID 0000.0001) %MON exf_vwind_min                =  -6.0124561096150E+00
(PID.TID 0000.0001) %MON exf_vwind_mean               =  -7.4386744609221E-01
(PID.TID 0000.0001) %MON exf_vwind_sd                 =   1.7360478508258E+00
(PID.TID 0000.0001) %MON exf_vwind_del2               =   4.8322600699253E-02
(PID.TID 0000.0001) %MON exf_wspeed_max               =   7.8835880550853E+00
(PID.TID 0000.0001) %MON exf_wspeed_min               =   4.5840953253040E-01
(PID.TID 0000.0001) %MON exf_wspeed_mean              =   4.2117821225347E+00
(PID.TID 0000.0001) %MON exf_wspeed_sd                =   1.6071974420352E+00
(PID.TID 0000.0001) %MON exf_wspeed_del2              =   2.4137206785732E-01
(PID.TID 0000.0001) %MON exf_atemp_max                =   2.8186911527707E+02
(PID.TID 0000.0001) %MON exf_atemp_min                =   2.3642604936277E+02
(PID.TID 0000.0001) %MON exf_atemp_mean               =   2.6416600580683E+02
(PID.TID 0000.0001) %MON exf_atemp_sd                 =   1.1848767051105E+01
(PID.TID 0000.0001) %MON exf_atemp_del2               =   7.2606173767503E-01
(PID.TID 0000.0001) %MON exf_aqh_max                  =   6.3176006167781E-03
(PID.TID 0000.0001) %MON exf_aqh_min                  =   1.6293992018683E-04
(PID.TID 0000.0001) %MON exf_aqh_mean                 =   2.5019536535923E-03
(PID.TID 0000.0001) %MON exf_aqh_sd                   =   1.4155688710397E-03
(PID.TID 0000.0001) %MON exf_aqh_del2                 =   7.8413257571855E-05
(PID.TID 0000.0001) %MON exf_lwflux_max               =   1.8563728889332E+02
(PID.TID 0000.0001) %MON exf_lwflux_min               =   6.7049125433206E+01
(PID.TID 0000.0001) %MON exf_lwflux_mean              =   9.7228944111915E+01
(PID.TID 0000.0001) %MON exf_lwflux_sd                =   3.0734636673109E+01
(PID.TID 0000.0001) %MON exf_lwflux_del2              =   4.7464460133171E+00
(PID.TID 0000.0001) %MON exf_evap_max                 =   4.7072280160783E-08
(PID.TID 0000.0001) %MON exf_evap_min                 =   5.4623766356130E-09
(PID.TID 0000.0001) %MON exf_evap_mean                =   2.0567097318890E-08
(PID.TID 0000.0001) %MON exf_evap_sd                  =   6.9502839469551E-09
(PID.TID 0000.0001) %MON exf_evap_del2                =   1.0845490245283E-09
(PID.TID 0000.0001) %MON exf_precip_max               =   1.0499871454869E-07
(PID.TID 0000.0001) %MON exf_precip_min               =   2.7252357516229E-10
(PID.TID 0000.0001) %MON exf_precip_mean              =   3.6703238631885E-08
(PID.TID 0000.0001) %MON exf_precip_sd                =   2.0520030742814E-08
(PID.TID 0000.0001) %MON exf_precip_del2              =   1.7263820281083E-09
(PID.TID 0000.0001) %MON exf_swflux_max               =  -8.1208018494434E-02
(PID.TID 0000.0001) %MON exf_swflux_min               =  -6.4124076818247E+01
(PID.TID 0000.0001) %MON exf_swflux_mean              =  -2.6872126423255E+01
(PID.TID 0000.0001) %MON exf_swflux_sd                =   1.9552593445021E+01
(PID.TID 0000.0001) %MON exf_swflux_del2              =   7.9501481460565E-01
(PID.TID 0000.0001) %MON exf_swdown_max               =   7.1248974242497E+01
(PID.TID 0000.0001) %MON exf_swdown_min               =   9.0231131660482E-02
(PID.TID 0000.0001) %MON exf_swdown_mean              =   2.9857918248061E+01
(PID.TID 0000.0001) %MON exf_swdown_sd                =   2.1725103827801E+01
(PID.TID 0000.0001) %MON exf_swdown_del2              =   8.8334979400628E-01
(PID.TID 0000.0001) %MON exf_lwdown_max               =   3.0560910934698E+02
(PID.TID 0000.0001) %MON exf_lwdown_min               =   1.1587683707899E+02
(PID.TID 0000.0001) %MON exf_lwdown_mean              =   2.2672137960213E+02
(PID.TID 0000.0001) %MON exf_lwdown_sd                =   4.5900365809366E+01
(PID.TID 0000.0001) %MON exf_lwdown_del2              =   8.3889361137954E+00
(PID.TID 0000.0001) %MON exf_climsss_max              =   3.5041808863155E+01
(PID.TID 0000.0001) %MON exf_climsss_min              =   3.0672387795370E+01
(PID.TID 0000.0001) %MON exf_climsss_mean             =   3.3457864613400E+01
(PID.TID 0000.0001) %MON exf_climsss_sd               =   1.0363396728335E+00
(PID.TID 0000.0001) %MON exf_climsss_del2             =   2.7334649103558E-02
(PID.TID 0000.0001) // =======================================================
(PID.TID 0000.0001) // End MONITOR EXF statistics
(PID.TID 0000.0001) // =======================================================
 cg2d: Sum(rhs),rhsMax =   2.41529019007203E-13  3.77001534186433E-01
(PID.TID 0000.0001)      cg2d_init_res =   6.38122527876658E-02
(PID.TID 0000.0001)      cg2d_iters(min,last) =      -1      41
(PID.TID 0000.0001)      cg2d_last_res =   3.64234450273959E-13
(PID.TID 0000.0001) // =======================================================
(PID.TID 0000.0001) // Begin MONITOR dynamic field statistics
(PID.TID 0000.0001) // =======================================================
(PID.TID 0000.0001) %MON time_tsnumber                =                     9
(PID.TID 0000.0001) %MON time_secondsf                =   3.2400000000000E+04
(PID.TID 0000.0001) %MON dynstat_eta_max              =   7.9671171541698E-02
(PID.TID 0000.0001) %MON dynstat_eta_min              =  -9.6057629347238E-02
(PID.TID 0000.0001) %MON dynstat_eta_mean             =  -2.0060070265543E-15
(PID.TID 0000.0001) %MON dynstat_eta_sd               =   3.7826296853830E-02
(PID.TID 0000.0001) %MON dynstat_eta_del2             =   1.8418196091484E-03
(PID.TID 0000.0001) %MON dynstat_uvel_max             =   2.5529428683666E-02
(PID.TID 0000.0001) %MON dynstat_uvel_min             =  -2.8487443837351E-02
(PID.TID 0000.0001) %MON dynstat_uvel_mean            =  -9.4774874043775E-05
(PID.TID 0000.0001) %MON dynstat_uvel_sd              =   2.3436920369483E-03
(PID.TID 0000.0001) %MON dynstat_uvel_del2            =   1.1183745722607E-04
(PID.TID 0000.0001) %MON dynstat_vvel_max             =   2.9376539627538E-02
(PID.TID 0000.0001) %MON dynstat_vvel_min             =  -5.2086167997542E-02
(PID.TID 0000.0001) %MON dynstat_vvel_mean            =   2.3493829344993E-04
(PID.TID 0000.0001) %MON dynstat_vvel_sd              =   3.7969799913474E-03
(PID.TID 0000.0001) %MON dynstat_vvel_del2            =   1.7488911317135E-04
(PID.TID 0000.0001) %MON dynstat_wvel_max             =   1.9703287276569E-05
(PID.TID 0000.0001) %MON dynstat_wvel_min             =  -5.2025009060412E-05
(PID.TID 0000.0001) %MON dynstat_wvel_mean            =   5.8834177449477E-23
(PID.TID 0000.0001) %MON dynstat_wvel_sd              =   9.4402450399643E-06
(PID.TID 0000.0001) %MON dynstat_wvel_del2            =   2.7277672913048E-07
(PID.TID 0000.0001) %MON dynstat_theta_max            =   1.2476149842613E+01
(PID.TID 0000.0001) %MON dynstat_theta_min            =  -1.8556818433674E+00
(PID.TID 0000.0001) %MON dynstat_theta_mean           =   3.0882505857281E+00
(PID.TID 0000.0001) %MON dynstat_theta_sd             =   1.4311113990664E+00
(PID.TID 0000.0001) %MON dynstat_theta_del2           =   1.7780360769401E-02
(PID.TID 0000.0001) %MON dynstat_salt_max             =   3.5292706223420E+01
(PID.TID 0000.0001) %MON dynstat_salt_min             =   3.0708185257398E+01
(PID.TID 0000.0001) %MON dynstat_salt_mean            =   3.4759318929206E+01
(PID.TID 0000.0001) %MON dynstat_salt_sd              =   4.2860212765469E-01
(PID.TID 0000.0001) %MON dynstat_salt_del2            =   4.0349829230079E-03
(PID.TID 0000.0001) %MON forcing_qnet_max             =   2.7440318160563E+02
(PID.TID 0000.0001) %MON forcing_qnet_min             =  -2.6113821559311E+00
(PID.TID 0000.0001) %MON forcing_qnet_mean            =   1.0289748129533E+02
(PID.TID 0000.0001) %MON forcing_qnet_sd              =   5.7732803488273E+01
(PID.TID 0000.0001) %MON forcing_qnet_del2            =   5.6554517231347E+00
(PID.TID 0000.0001) %MON forcing_qsw_max              =  -3.1564910921207E-06
(PID.TID 0000.0001) %MON forcing_qsw_min              =  -6.4124076818247E+01
(PID.TID 0000.0001) %MON forcing_qsw_mean             =  -2.4784415073875E+01
(PID.TID 0000.0001) %MON forcing_qsw_sd               =   2.1148460552423E+01
(PID.TID 0000.0001) %MON forcing_qsw_del2             =   3.7576085622448E-01
(PID.TID 0000.0001) %MON forcing_empmr_max            =   5.2743745918024E-04
(PID.TID 0000.0001) %MON forcing_empmr_min            =  -3.5588746742114E-04
(PID.TID 0000.0001) %MON forcing_empmr_mean           =   1.0428599375158E-05
(PID.TID 0000.0001) %MON forcing_empmr_sd             =   8.6597956775422E-05
(PID.TID 0000.0001) %MON forcing_empmr_del2           =   1.3051550665599E-05
(PID.TID 0000.0001) %MON forcing_fu_max               =   6.2126057351469E-02
(PID.TID 0000.0001) %MON forcing_fu_min               =  -1.8275001654944E-02
(PID.TID 0000.0001) %MON forcing_fu_mean              =   2.3944645524059E-02
(PID.TID 0000.0001) %MON forcing_fu_sd                =   2.0939323718854E-02
(PID.TID 0000.0001) %MON forcing_fu_del2              =   5.8134178426322E-04
(PID.TID 0000.0001) %MON forcing_fv_max               =   1.4731041751772E-02
(PID.TID 0000.0001) %MON forcing_fv_min               =  -4.1778353373933E-02
(PID.TID 0000.0001) %MON forcing_fv_mean              =  -4.6425139764879E-03
(PID.TID 0000.0001) %MON forcing_fv_sd                =   1.1615517513968E-02
(PID.TID 0000.0001) %MON forcing_fv_del2              =   4.5039450246173E-04
(PID.TID 0000.0001) %MON trAdv_CFL_u_max              =   9.0186328002081E-04
(PID.TID 0000.0001) %MON trAdv_CFL_v_max              =   7.7721781931286E-04
(PID.TID 0000.0001) %MON trAdv_CFL_w_max              =   1.3726640988942E-03
(PID.TID 0000.0001) %MON advcfl_uvel_max              =   1.0157673510578E-03
(PID.TID 0000.0001) %MON advcfl_vvel_max              =   8.4315989249464E-04
(PID.TID 0000.0001) %MON advcfl_wvel_max              =   1.9020860947744E-03
(PID.TID 0000.0001) %MON advcfl_W_hf_max              =   1.7984963284495E-03
(PID.TID 0000.0001) %MON pe_b_mean                    =   4.6694329117933E-06
(PID.TID 0000.0001) %MON ke_max                       =   1.0743757718294E-03
(PID.TID 0000.0001) %MON ke_mean                      =   7.8026708489945E-06
(PID.TID 0000.0001) %MON ke_vol                       =   5.2906584519726E+15
(PID.TID 0000.0001) %MON vort_r_min                   =  -2.6106498900459E-07
(PID.TID 0000.0001) %MON vort_r_max                   =   2.1093873413415E-07
(PID.TID 0000.0001) %MON vort_a_mean                  =   1.2074434650046E-04
(PID.TID 0000.0001) %MON vort_a_sd                    =   8.7670589810904E-06
(PID.TID 0000.0001) %MON vort_p_mean                  =   1.7734550359553E-04
(PID.TID 0000.0001) %MON vort_p_sd                    =   1.1734833657953E-04
(PID.TID 0000.0001) %MON surfExpan_theta_mean         =  -2.0667736578433E-06
(PID.TID 0000.0001) %MON surfExpan_salt_mean          =  -3.3732038820811E-08
(PID.TID 0000.0001) // =======================================================
(PID.TID 0000.0001) // End MONITOR dynamic field statistics
(PID.TID 0000.0001) // =======================================================
(PID.TID 0000.0001) // =======================================================
(PID.TID 0000.0001) // Begin MONITOR SEAICE statistics
(PID.TID 0000.0001) // =======================================================
(PID.TID 0000.0001) %MON seaice_tsnumber              =                     9
(PID.TID 0000.0001) %MON seaice_time_sec              =   3.2400000000000E+04
(PID.TID 0000.0001) %MON seaice_uice_max              =   1.3066345199641E-01
(PID.TID 0000.0001) %MON seaice_uice_min              =  -6.0119837169392E-02
(PID.TID 0000.0001) %MON seaice_uice_mean             =   5.0222804630367E-02
(PID.TID 0000.0001) %MON seaice_uice_sd               =   4.6848540634465E-02
(PID.TID 0000.0001) %MON seaice_uice_del2             =   1.4346130492319E-03
(PID.TID 0000.0001) %MON seaice_vice_max              =   3.2776982095280E-02
(PID.TID 0000.0001) %MON seaice_vice_min              =  -1.0568715094353E-01
(PID.TID 0000.0001) %MON seaice_vice_mean             =  -2.0381298413118E-02
(PID.TID 0000.0001) %MON seaice_vice_sd               =   3.3809107364798E-02
(PID.TID 0000.0001) %MON seaice_vice_del2             =   1.5667866553593E-03
(PID.TID 0000.0001) %MON seaice_area_max              =   9.9995574339585E-01
(PID.TID 0000.0001) %MON seaice_area_min              =   0.0000000000000E+00
(PID.TID 0000.0001) %MON seaice_area_mean             =   3.1829036003113E-01
(PID.TID 0000.0001) %MON seaice_area_sd               =   4.3999598220637E-01
(PID.TID 0000.0001) %MON seaice_area_del2             =   2.1584326907569E-02
(PID.TID 0000.0001) %MON seaice_heff_max              =   1.6279346400541E+00
(PID.TID 0000.0001) %MON seaice_heff_min              =   0.0000000000000E+00
(PID.TID 0000.0001) %MON seaice_heff_mean             =   1.7166469700449E-01
(PID.TID 0000.0001) %MON seaice_heff_sd               =   3.3216193400393E-01
(PID.TID 0000.0001) %MON seaice_heff_del2             =   9.4157649281106E-03
(PID.TID 0000.0001) %MON seaice_hsnow_max             =   3.4664994981030E-01
(PID.TID 0000.0001) %MON seaice_hsnow_min             =   0.0000000000000E+00
(PID.TID 0000.0001) %MON seaice_hsnow_mean            =   3.0802226191106E-02
(PID.TID 0000.0001) %MON seaice_hsnow_sd              =   6.5428580853190E-02
(PID.TID 0000.0001) %MON seaice_hsnow_del2            =   2.1297440792244E-03
(PID.TID 0000.0001) // =======================================================
(PID.TID 0000.0001) // End MONITOR SEAICE statistics
(PID.TID 0000.0001) // =======================================================
(PID.TID 0000.0001) // =======================================================
(PID.TID 0000.0001) // Begin MONITOR EXF statistics
(PID.TID 0000.0001) // =======================================================
(PID.TID 0000.0001) %MON exf_tsnumber                 =                     9
(PID.TID 0000.0001) %MON exf_time_sec                 =   3.2400000000000E+04
(PID.TID 0000.0001) %MON exf_ustress_max              =   6.2689385661681E-02
(PID.TID 0000.0001) %MON exf_ustress_min              =  -9.3860974945073E-02
(PID.TID 0000.0001) %MON exf_ustress_mean             =   2.2481206164053E-02
(PID.TID 0000.0001) %MON exf_ustress_sd               =   2.6379260284116E-02
(PID.TID 0000.0001) %MON exf_ustress_del2             =   7.2660316999162E-04
(PID.TID 0000.0001) %MON exf_vstress_max              =   5.3871076973402E-02
(PID.TID 0000.0001) %MON exf_vstress_min              =  -5.9357404147812E-02
(PID.TID 0000.0001) %MON exf_vstress_mean             =  -5.2214621137504E-03
(PID.TID 0000.0001) %MON exf_vstress_sd               =   1.5117594164282E-02
(PID.TID 0000.0001) %MON exf_vstress_del2             =   5.1417357557283E-04
(PID.TID 0000.0001) %MON exf_hflux_max                =   6.3319023424822E+02
(PID.TID 0000.0001) %MON exf_hflux_min                =   8.9508787914145E+01
(PID.TID 0000.0001) %MON exf_hflux_mean               =   2.1632441494969E+02
(PID.TID 0000.0001) %MON exf_hflux_sd                 =   1.3274763735415E+02
(PID.TID 0000.0001) %MON exf_hflux_del2               =   1.4027141134014E+01
(PID.TID 0000.0001) %MON exf_sflux_max                =   4.0758787753637E-08
(PID.TID 0000.0001) %MON exf_sflux_min                =  -8.3214175985775E-08
(PID.TID 0000.0001) %MON exf_sflux_mean               =  -1.6135570064369E-08
(PID.TID 0000.0001) %MON exf_sflux_sd                 =   2.4307187215546E-08
(PID.TID 0000.0001) %MON exf_sflux_del2               =   1.7127059809345E-09
(PID.TID 0000.0001) %MON exf_uwind_max                =   6.4689416142761E+00
(PID.TID 0000.0001) %MON exf_uwind_min                =  -6.8374791086697E+00
(PID.TID 0000.0001) %MON exf_uwind_mean               =   2.8379889534150E+00
(PID.TID 0000.0001) %MON exf_uwind_sd                 =   2.9501005293878E+00
(PID.TID 0000.0001) %MON exf_uwind_del2               =   8.0528899528444E-02
(PID.TID 0000.0001) %MON exf_vwind_max                =   3.9243398396695E+00
(PID.TID 0000.0001) %MON exf_vwind_min                =  -6.0115501997901E+00
(PID.TID 0000.0001) %MON exf_vwind_mean               =  -7.4323915144058E-01
(PID.TID 0000.0001) %MON exf_vwind_sd                 =   1.7361516878393E+00
(PID.TID 0000.0001) %MON exf_vwind_del2               =   4.8322929752037E-02
(PID.TID 0000.0001) %MON exf_wspeed_max               =   7.8836263063842E+00
(PID.TID 0000.0001) %MON exf_wspeed_min               =   4.5816671047235E-01
(PID.TID 0000.0001) %MON exf_wspeed_mean              =   4.2118860999947E+00
(PID.TID 0000.0001) %MON exf_wspeed_sd                =   1.6074566971750E+00
(PID.TID 0000.0001) %MON exf_wspeed_del2              =   2.4136920987052E-01
(PID.TID 0000.0001) %MON exf_atemp_max                =   2.8186740312420E+02
(PID.TID 0000.0001) %MON exf_atemp_min                =   2.3642158439511E+02
(PID.TID 0000.0001) %MON exf_atemp_mean               =   2.6416133627131E+02
(PID.TID 0000.0001) %MON exf_atemp_sd                 =   1.1850312554070E+01
(PID.TID 0000.0001) %MON exf_atemp_del2               =   7.2636801163438E-01
(PID.TID 0000.0001) %MON exf_aqh_max                  =   6.3169040759170E-03
(PID.TID 0000.0001) %MON exf_aqh_min                  =   1.6284581668843E-04
(PID.TID 0000.0001) %MON exf_aqh_mean                 =   2.5013873621499E-03
(PID.TID 0000.0001) %MON exf_aqh_sd                   =   1.4154727644518E-03
(PID.TID 0000.0001) %MON exf_aqh_del2                 =   7.8388767780130E-05
(PID.TID 0000.0001) %MON exf_lwflux_max               =   1.8565187359786E+02
(PID.TID 0000.0001) %MON exf_lwflux_min               =   6.7049902501349E+01
(PID.TID 0000.0001) %MON exf_lwflux_mean              =   9.7236199922084E+01
(PID.TID 0000.0001) %MON exf_lwflux_sd                =   3.0741073339669E+01
(PID.TID 0000.0001) %MON exf_lwflux_del2              =   4.7473783846853E+00
(PID.TID 0000.0001) %MON exf_evap_max                 =   4.7077031179356E-08
(PID.TID 0000.0001) %MON exf_evap_min                 =   5.4577749026546E-09
(PID.TID 0000.0001) %MON exf_evap_mean                =   2.0567650634766E-08
(PID.TID 0000.0001) %MON exf_evap_sd                  =   6.9504245386856E-09
(PID.TID 0000.0001) %MON exf_evap_del2                =   1.0847716785125E-09
(PID.TID 0000.0001) %MON exf_precip_max               =   1.0500009599131E-07
(PID.TID 0000.0001) %MON exf_precip_min               =   2.7238964868961E-10
(PID.TID 0000.0001) %MON exf_precip_mean              =   3.6703220699135E-08
(PID.TID 0000.0001) %MON exf_precip_sd                =   2.0520502017126E-08
(PID.TID 0000.0001) %MON exf_precip_del2              =   1.7266657520714E-09
(PID.TID 0000.0001) %MON exf_swflux_max               =  -8.1208301372215E-02
(PID.TID 0000.0001) %MON exf_swflux_min               =  -6.4142947168819E+01
(PID.TID 0000.0001) %MON exf_swflux_mean              =  -2.6882791857661E+01
(PID.TID 0000.0001) %MON exf_swflux_sd                =   1.9556320509086E+01
(PID.TID 0000.0001) %MON exf_swflux_del2              =   7.9542825137508E-01
(PID.TID 0000.0001) %MON exf_swdown_max               =   7.1269941298688E+01
(PID.TID 0000.0001) %MON exf_swdown_min               =   9.0231445969128E-02
(PID.TID 0000.0001) %MON exf_swdown_mean              =   2.9869768730735E+01
(PID.TID 0000.0001) %MON exf_swdown_sd                =   2.1729245010096E+01
(PID.TID 0000.0001) %MON exf_swdown_del2              =   8.8380916819454E-01
(PID.TID 0000.0001) %MON exf_lwdown_max               =   3.0560028326316E+02
(PID.TID 0000.0001) %MON exf_lwdown_min               =   1.1586173020035E+02
(PID.TID 0000.0001) %MON exf_lwdown_mean              =   2.2670554649818E+02
(PID.TID 0000.0001) %MON exf_lwdown_sd                =   4.5904626551810E+01
(PID.TID 0000.0001) %MON exf_lwdown_del2              =   8.3879552837063E+00
(PID.TID 0000.0001) %MON exf_climsss_max              =   3.5041993610194E+01
(PID.TID 0000.0001) %MON exf_climsss_min              =   3.0673147123368E+01
(PID.TID 0000.0001) %MON exf_climsss_mean             =   3.3458377145617E+01
(PID.TID 0000.0001) %MON exf_climsss_sd               =   1.0362634932469E+00
(PID.TID 0000.0001) %MON exf_climsss_del2             =   2.7332192219570E-02
(PID.TID 0000.0001) // =======================================================
(PID.TID 0000.0001) // End MONITOR EXF statistics
(PID.TID 0000.0001) // =======================================================
 cg2d: Sum(rhs),rhsMax =   2.35700348127921E-13  3.72201942415379E-01
(PID.TID 0000.0001)      cg2d_init_res =   6.23091077536621E-02
(PID.TID 0000.0001)      cg2d_iters(min,last) =      -1      40
(PID.TID 0000.0001)      cg2d_last_res =   9.87998981931491E-13
(PID.TID 0000.0001) // =======================================================
(PID.TID 0000.0001) // Begin MONITOR dynamic field statistics
(PID.TID 0000.0001) // =======================================================
(PID.TID 0000.0001) %MON time_tsnumber                =                    10
(PID.TID 0000.0001) %MON time_secondsf                =   3.6000000000000E+04
(PID.TID 0000.0001) %MON dynstat_eta_max              =   7.6417135783280E-02
(PID.TID 0000.0001) %MON dynstat_eta_min              =  -9.5022356655734E-02
(PID.TID 0000.0001) %MON dynstat_eta_mean             =  -2.7893256622207E-15
(PID.TID 0000.0001) %MON dynstat_eta_sd               =   3.6942301733197E-02
(PID.TID 0000.0001) %MON dynstat_eta_del2             =   1.8481838716064E-03
(PID.TID 0000.0001) %MON dynstat_uvel_max             =   2.5023500504006E-02
(PID.TID 0000.0001) %MON dynstat_uvel_min             =  -2.9390500866780E-02
(PID.TID 0000.0001) %MON dynstat_uvel_mean            =  -6.1012122577915E-05
(PID.TID 0000.0001) %MON dynstat_uvel_sd              =   2.4499565330413E-03
(PID.TID 0000.0001) %MON dynstat_uvel_del2            =   1.1344831348985E-04
(PID.TID 0000.0001) %MON dynstat_vvel_max             =   3.0161232505672E-02
(PID.TID 0000.0001) %MON dynstat_vvel_min             =  -5.5155947601745E-02
(PID.TID 0000.0001) %MON dynstat_vvel_mean            =   1.4812027119207E-04
(PID.TID 0000.0001) %MON dynstat_vvel_sd              =   3.9727389677809E-03
(PID.TID 0000.0001) %MON dynstat_vvel_del2            =   1.8190032808966E-04
(PID.TID 0000.0001) %MON dynstat_wvel_max             =   2.1042750813618E-05
(PID.TID 0000.0001) %MON dynstat_wvel_min             =  -5.2127275133130E-05
(PID.TID 0000.0001) %MON dynstat_wvel_mean            =   7.4316855725655E-23
(PID.TID 0000.0001) %MON dynstat_wvel_sd              =   1.0240278437551E-05
(PID.TID 0000.0001) %MON dynstat_wvel_del2            =   2.9023850711124E-07
(PID.TID 0000.0001) %MON dynstat_theta_max            =   1.2476119854395E+01
(PID.TID 0000.0001) %MON dynstat_theta_min            =  -1.8555107823671E+00
(PID.TID 0000.0001) %MON dynstat_theta_mean           =   3.0881955403595E+00
(PID.TID 0000.0001) %MON dynstat_theta_sd             =   1.4310650393604E+00
(PID.TID 0000.0001) %MON dynstat_theta_del2           =   1.7782129361651E-02
(PID.TID 0000.0001) %MON dynstat_salt_max             =   3.5292678868487E+01
(PID.TID 0000.0001) %MON dynstat_salt_min             =   3.0708205817085E+01
(PID.TID 0000.0001) %MON dynstat_salt_mean            =   3.4759320938380E+01
(PID.TID 0000.0001) %MON dynstat_salt_sd              =   4.2859117438734E-01
(PID.TID 0000.0001) %MON dynstat_salt_del2            =   4.0355405508441E-03
(PID.TID 0000.0001) %MON forcing_qnet_max             =   2.7436421948397E+02
(PID.TID 0000.0001) %MON forcing_qnet_min             =  -1.4175966816503E+00
(PID.TID 0000.0001) %MON forcing_qnet_mean            =   1.0243781410164E+02
(PID.TID 0000.0001) %MON forcing_qnet_sd              =   5.7071187639092E+01
(PID.TID 0000.0001) %MON forcing_qnet_del2            =   5.0091852719349E+00
(PID.TID 0000.0001) %MON forcing_qsw_max              =  -3.6016946469869E-06
(PID.TID 0000.0001) %MON forcing_qsw_min              =  -6.4142947168819E+01
(PID.TID 0000.0001) %MON forcing_qsw_mean             =  -2.4793665614620E+01
(PID.TID 0000.0001) %MON forcing_qsw_sd               =   2.1151418211353E+01
(PID.TID 0000.0001) %MON forcing_qsw_del2             =   3.7532171259173E-01
(PID.TID 0000.0001) %MON forcing_empmr_max            =   5.1310879128666E-04
(PID.TID 0000.0001) %MON forcing_empmr_min            =  -9.6954480655642E-05
(PID.TID 0000.0001) %MON forcing_empmr_mean           =   1.1831110053466E-05
(PID.TID 0000.0001) %MON forcing_empmr_sd             =   8.1394508832739E-05
(PID.TID 0000.0001) %MON forcing_empmr_del2           =   1.0115248928492E-05
(PID.TID 0000.0001) %MON forcing_fu_max               =   6.2136190195360E-02
(PID.TID 0000.0001) %MON forcing_fu_min               =  -1.8288547456072E-02
(PID.TID 0000.0001) %MON forcing_fu_mean              =   2.3972021534257E-02
(PID.TID 0000.0001) %MON forcing_fu_sd                =   2.0932032680304E-02
(PID.TID 0000.0001) %MON forcing_fu_del2              =   5.8470895424672E-04
(PID.TID 0000.0001) %MON forcing_fv_max               =   1.4734747513756E-02
(PID.TID 0000.0001) %MON forcing_fv_min               =  -4.1764226744370E-02
(PID.TID 0000.0001) %MON forcing_fv_mean              =  -4.6365982440457E-03
(PID.TID 0000.0001) %MON forcing_fv_sd                =   1.1617580807582E-02
(PID.TID 0000.0001) %MON forcing_fv_del2              =   4.5272531690417E-04
(PID.TID 0000.0001) %MON trAdv_CFL_u_max              =   1.0158189229622E-03
(PID.TID 0000.0001) %MON trAdv_CFL_v_max              =   8.6573480086144E-04
(PID.TID 0000.0001) %MON trAdv_CFL_w_max              =   1.7984963284495E-03
(PID.TID 0000.0001) %MON advcfl_uvel_max              =   1.0479673565015E-03
(PID.TID 0000.0001) %MON advcfl_vvel_max              =   8.9285283671707E-04
(PID.TID 0000.0001) %MON advcfl_wvel_max              =   1.6649192836249E-03
(PID.TID 0000.0001) %MON advcfl_W_hf_max              =   1.9107954052960E-03
(PID.TID 0000.0001) %MON pe_b_mean                    =   4.4537351714224E-06
(PID.TID 0000.0001) %MON ke_max                       =   1.1634331517716E-03
(PID.TID 0000.0001) %MON ke_mean                      =   8.5200596506112E-06
(PID.TID 0000.0001) %MON ke_vol                       =   5.2906584519726E+15
(PID.TID 0000.0001) %MON vort_r_min                   =  -2.8255694614419E-07
(PID.TID 0000.0001) %MON vort_r_max                   =   2.2359391268707E-07
(PID.TID 0000.0001) %MON vort_a_mean                  =   1.2074434650046E-04
(PID.TID 0000.0001) %MON vort_a_sd                    =   8.7671031856146E-06
(PID.TID 0000.0001) %MON vort_p_mean                  =   1.7734550359553E-04
(PID.TID 0000.0001) %MON vort_p_sd                    =   1.1734780679213E-04
(PID.TID 0000.0001) %MON surfExpan_theta_mean         =  -1.6272677727679E-06
(PID.TID 0000.0001) %MON surfExpan_salt_mean          =  -6.0498701012757E-08
(PID.TID 0000.0001) // =======================================================
(PID.TID 0000.0001) // End MONITOR dynamic field statistics
(PID.TID 0000.0001) // =======================================================
(PID.TID 0000.0001) // Time-average data written, t-step        10
(PID.TID 0000.0001) 
(PID.TID 0000.0001) // =======================================================
(PID.TID 0000.0001) // Begin MONITOR SEAICE statistics
(PID.TID 0000.0001) // =======================================================
(PID.TID 0000.0001) %MON seaice_tsnumber              =                    10
(PID.TID 0000.0001) %MON seaice_time_sec              =   3.6000000000000E+04
(PID.TID 0000.0001) %MON seaice_uice_max              =   1.2830984636681E-01
(PID.TID 0000.0001) %MON seaice_uice_min              =  -6.0322339853003E-02
(PID.TID 0000.0001) %MON seaice_uice_mean             =   4.9482431284263E-02
(PID.TID 0000.0001) %MON seaice_uice_sd               =   4.6308584816824E-02
(PID.TID 0000.0001) %MON seaice_uice_del2             =   1.4283034386683E-03
(PID.TID 0000.0001) %MON seaice_vice_max              =   3.6325255236624E-02
(PID.TID 0000.0001) %MON seaice_vice_min              =  -1.0750823548788E-01
(PID.TID 0000.0001) %MON seaice_vice_mean             =  -2.1386300724116E-02
(PID.TID 0000.0001) %MON seaice_vice_sd               =   3.4478169704750E-02
(PID.TID 0000.0001) %MON seaice_vice_del2             =   1.6315710025950E-03
(PID.TID 0000.0001) %MON seaice_area_max              =   9.9995034542514E-01
(PID.TID 0000.0001) %MON seaice_area_min              =   0.0000000000000E+00
(PID.TID 0000.0001) %MON seaice_area_mean             =   3.1817662530544E-01
(PID.TID 0000.0001) %MON seaice_area_sd               =   4.3976422234497E-01
(PID.TID 0000.0001) %MON seaice_area_del2             =   2.1543987742772E-02
(PID.TID 0000.0001) %MON seaice_heff_max              =   1.6280565020640E+00
(PID.TID 0000.0001) %MON seaice_heff_min              =   0.0000000000000E+00
(PID.TID 0000.0001) %MON seaice_heff_mean             =   1.7179037032521E-01
(PID.TID 0000.0001) %MON seaice_heff_sd               =   3.3223882632557E-01
(PID.TID 0000.0001) %MON seaice_heff_del2             =   9.4208397940461E-03
(PID.TID 0000.0001) %MON seaice_hsnow_max             =   3.4682708263871E-01
(PID.TID 0000.0001) %MON seaice_hsnow_min             =   0.0000000000000E+00
(PID.TID 0000.0001) %MON seaice_hsnow_mean            =   3.0851907500315E-02
(PID.TID 0000.0001) %MON seaice_hsnow_sd              =   6.5470858033249E-02
(PID.TID 0000.0001) %MON seaice_hsnow_del2            =   2.1324229070645E-03
(PID.TID 0000.0001) // =======================================================
(PID.TID 0000.0001) // End MONITOR SEAICE statistics
(PID.TID 0000.0001) // =======================================================
 Computing Diagnostic #    251  SIarea       Counter:      10   Parms: SM      M1      
 Computing Diagnostic #    254  SIheff       Counter:      10   Parms: SM      M1      
 Computing Diagnostic #    256  SIhsnow      Counter:      10   Parms: SM      M1      
 Computing Diagnostic #    268  SIuice       Counter:      10   Parms: UU      M1      
           Vector  Mate for  SIuice       Diagnostic #    269  SIvice   exists 
 Computing Diagnostic #    269  SIvice       Counter:      10   Parms: VV      M1      
           Vector  Mate for  SIvice       Diagnostic #    268  SIuice   exists 
 Computing Diagnostic #     76  MXLDEPTH     Counter:      10   Parms: SM      M1      
 Computing Diagnostic #    216  KPPhbl       Counter:      10   Parms: SM P     1      
 Computing Diagnostic #    215  KPPghatK     Counter:      10   Parms: SM P    LR      
(PID.TID 0000.0001) %CHECKPOINT        10 0000000010
(PID.TID 0000.0001)   Seconds in section "ALL                    [THE_MODEL_MAIN]":
(PID.TID 0000.0001)           User time:   8.7079998929984868
(PID.TID 0000.0001)         System time:   1.2000000104308128E-002
(PID.TID 0000.0001)     Wall clock time:   8.7226979732513428
(PID.TID 0000.0001)          No. starts:           1
(PID.TID 0000.0001)           No. stops:           1
(PID.TID 0000.0001)   Seconds in section "INITIALISE_FIXED       [THE_MODEL_MAIN]":
(PID.TID 0000.0001)           User time:   9.2000000644475222E-002
(PID.TID 0000.0001)         System time:   4.0000001899898052E-003
(PID.TID 0000.0001)     Wall clock time:   9.4658136367797852E-002
(PID.TID 0000.0001)          No. starts:           1
(PID.TID 0000.0001)           No. stops:           1
(PID.TID 0000.0001)   Seconds in section "THE_MAIN_LOOP          [THE_MODEL_MAIN]":
(PID.TID 0000.0001)           User time:   8.6159998923540115
(PID.TID 0000.0001)         System time:   7.9999999143183231E-003
(PID.TID 0000.0001)     Wall clock time:   8.6280088424682617
(PID.TID 0000.0001)          No. starts:           1
(PID.TID 0000.0001)           No. stops:           1
(PID.TID 0000.0001)   Seconds in section "INITIALISE_VARIA    [THE_MAIN_LOOP]":
(PID.TID 0000.0001)           User time:   4.7999992966651917E-002
(PID.TID 0000.0001)         System time:   4.0000001899898052E-003
(PID.TID 0000.0001)     Wall clock time:   5.3652048110961914E-002
(PID.TID 0000.0001)          No. starts:           1
(PID.TID 0000.0001)           No. stops:           1
(PID.TID 0000.0001)   Seconds in section "MAIN LOOP           [THE_MAIN_LOOP]":
(PID.TID 0000.0001)           User time:   8.5679998993873596
(PID.TID 0000.0001)         System time:   3.9999997243285179E-003
(PID.TID 0000.0001)     Wall clock time:   8.5743300914764404
(PID.TID 0000.0001)          No. starts:           1
(PID.TID 0000.0001)           No. stops:           1
(PID.TID 0000.0001)   Seconds in section "MAIN_DO_LOOP        [THE_MAIN_LOOP]":
(PID.TID 0000.0001)           User time:   8.5679998993873596
(PID.TID 0000.0001)         System time:   3.9999997243285179E-003
(PID.TID 0000.0001)     Wall clock time:   8.5742435455322266
(PID.TID 0000.0001)          No. starts:          10
(PID.TID 0000.0001)           No. stops:          10
(PID.TID 0000.0001)   Seconds in section "FORWARD_STEP        [MAIN_DO_LOOP]":
(PID.TID 0000.0001)           User time:   8.5679998993873596
(PID.TID 0000.0001)         System time:   3.9999997243285179E-003
(PID.TID 0000.0001)     Wall clock time:   8.5740816593170166
(PID.TID 0000.0001)          No. starts:          10
(PID.TID 0000.0001)           No. stops:          10
(PID.TID 0000.0001)   Seconds in section "DO_STATEVARS_DIAGS  [FORWARD_STEP]":
(PID.TID 0000.0001)           User time:   4.0001869201660156E-003
(PID.TID 0000.0001)         System time:   0.0000000000000000
(PID.TID 0000.0001)     Wall clock time:   1.6615390777587891E-003
(PID.TID 0000.0001)          No. starts:          20
(PID.TID 0000.0001)           No. stops:          20
(PID.TID 0000.0001)   Seconds in section "LOAD_FIELDS_DRIVER  [FORWARD_STEP]":
(PID.TID 0000.0001)           User time:   3.2000422477722168E-002
(PID.TID 0000.0001)         System time:   0.0000000000000000
(PID.TID 0000.0001)     Wall clock time:   2.5461912155151367E-002
(PID.TID 0000.0001)          No. starts:          10
(PID.TID 0000.0001)           No. stops:          10
(PID.TID 0000.0001)   Seconds in section "EXF_GETFORCING     [LOAD_FLDS_DRIVER]":
(PID.TID 0000.0001)           User time:   3.2000422477722168E-002
(PID.TID 0000.0001)         System time:   0.0000000000000000
(PID.TID 0000.0001)     Wall clock time:   2.5135040283203125E-002
(PID.TID 0000.0001)          No. starts:          10
(PID.TID 0000.0001)           No. stops:          10
(PID.TID 0000.0001)   Seconds in section "EXTERNAL_FLDS_LOAD [LOAD_FLDS_DRIVER]":
(PID.TID 0000.0001)           User time:   0.0000000000000000
(PID.TID 0000.0001)         System time:   0.0000000000000000
(PID.TID 0000.0001)     Wall clock time:   8.4161758422851562E-005
(PID.TID 0000.0001)          No. starts:          10
(PID.TID 0000.0001)           No. stops:          10
(PID.TID 0000.0001)   Seconds in section "DO_ATMOSPHERIC_PHYS [FORWARD_STEP]":
(PID.TID 0000.0001)           User time:   0.0000000000000000
(PID.TID 0000.0001)         System time:   0.0000000000000000
(PID.TID 0000.0001)     Wall clock time:   8.3208084106445312E-005
(PID.TID 0000.0001)          No. starts:          10
(PID.TID 0000.0001)           No. stops:          10
(PID.TID 0000.0001)   Seconds in section "DO_OCEANIC_PHYS     [FORWARD_STEP]":
(PID.TID 0000.0001)           User time:   6.9719991683959961
(PID.TID 0000.0001)         System time:   3.9999997243285179E-003
(PID.TID 0000.0001)     Wall clock time:   6.9824125766754150
(PID.TID 0000.0001)          No. starts:          10
(PID.TID 0000.0001)           No. stops:          10
(PID.TID 0000.0001)   Seconds in section "SEAICE_MODEL    [DO_OCEANIC_PHYS]":
(PID.TID 0000.0001)           User time:   6.2599996328353882
(PID.TID 0000.0001)         System time:   0.0000000000000000
(PID.TID 0000.0001)     Wall clock time:   6.2698543071746826
(PID.TID 0000.0001)          No. starts:          10
(PID.TID 0000.0001)           No. stops:          10
(PID.TID 0000.0001)   Seconds in section "SEAICE_DYNSOLVER   [SEAICE_MODEL]":
(PID.TID 0000.0001)           User time:   6.2399988770484924
(PID.TID 0000.0001)         System time:   0.0000000000000000
(PID.TID 0000.0001)     Wall clock time:   6.2398734092712402
(PID.TID 0000.0001)          No. starts:          10
(PID.TID 0000.0001)           No. stops:          10
(PID.TID 0000.0001)   Seconds in section "KPP_CALC [DO_OCEANIC_PHYS]":
(PID.TID 0000.0001)           User time:  0.50400096178054810
(PID.TID 0000.0001)         System time:   0.0000000000000000
(PID.TID 0000.0001)     Wall clock time:  0.51515173912048340
(PID.TID 0000.0001)          No. starts:          40
(PID.TID 0000.0001)           No. stops:          40
(PID.TID 0000.0001)   Seconds in section "THERMODYNAMICS      [FORWARD_STEP]":
(PID.TID 0000.0001)           User time:  0.52400016784667969
(PID.TID 0000.0001)         System time:   0.0000000000000000
(PID.TID 0000.0001)     Wall clock time:  0.52181601524353027
(PID.TID 0000.0001)          No. starts:          10
(PID.TID 0000.0001)           No. stops:          10
(PID.TID 0000.0001)   Seconds in section "DYNAMICS            [FORWARD_STEP]":
(PID.TID 0000.0001)           User time:  0.70399993658065796
(PID.TID 0000.0001)         System time:   0.0000000000000000
(PID.TID 0000.0001)     Wall clock time:  0.70483160018920898
(PID.TID 0000.0001)          No. starts:          10
(PID.TID 0000.0001)           No. stops:          10
(PID.TID 0000.0001)   Seconds in section "SOLVE_FOR_PRESSURE  [FORWARD_STEP]":
(PID.TID 0000.0001)           User time:   5.6000292301177979E-002
(PID.TID 0000.0001)         System time:   0.0000000000000000
(PID.TID 0000.0001)     Wall clock time:   6.0465097427368164E-002
(PID.TID 0000.0001)          No. starts:          10
(PID.TID 0000.0001)           No. stops:          10
(PID.TID 0000.0001)   Seconds in section "MOM_CORRECTION_STEP [FORWARD_STEP]":
(PID.TID 0000.0001)           User time:   2.3999750614166260E-002
(PID.TID 0000.0001)         System time:   0.0000000000000000
(PID.TID 0000.0001)     Wall clock time:   2.3596763610839844E-002
(PID.TID 0000.0001)          No. starts:          10
(PID.TID 0000.0001)           No. stops:          10
(PID.TID 0000.0001)   Seconds in section "INTEGR_CONTINUITY   [FORWARD_STEP]":
(PID.TID 0000.0001)           User time:   1.5999794006347656E-002
(PID.TID 0000.0001)         System time:   0.0000000000000000
(PID.TID 0000.0001)     Wall clock time:   1.2130022048950195E-002
(PID.TID 0000.0001)          No. starts:          10
(PID.TID 0000.0001)           No. stops:          10
(PID.TID 0000.0001)   Seconds in section "TRC_CORRECTION_STEP [FORWARD_STEP]":
(PID.TID 0000.0001)           User time:   0.0000000000000000
(PID.TID 0000.0001)         System time:   0.0000000000000000
(PID.TID 0000.0001)     Wall clock time:   8.4161758422851562E-005
(PID.TID 0000.0001)          No. starts:          10
(PID.TID 0000.0001)           No. stops:          10
(PID.TID 0000.0001)   Seconds in section "BLOCKING_EXCHANGES  [FORWARD_STEP]":
(PID.TID 0000.0001)           User time:   4.0001094341278076E-002
(PID.TID 0000.0001)         System time:   0.0000000000000000
(PID.TID 0000.0001)     Wall clock time:   4.5166015625000000E-002
(PID.TID 0000.0001)          No. starts:          10
(PID.TID 0000.0001)           No. stops:          10
(PID.TID 0000.0001)   Seconds in section "DO_STATEVARS_TAVE   [FORWARD_STEP]":
(PID.TID 0000.0001)           User time:   6.3999354839324951E-002
(PID.TID 0000.0001)         System time:   0.0000000000000000
(PID.TID 0000.0001)     Wall clock time:   5.0982952117919922E-002
(PID.TID 0000.0001)          No. starts:          10
(PID.TID 0000.0001)           No. stops:          10
(PID.TID 0000.0001)   Seconds in section "MONITOR             [FORWARD_STEP]":
(PID.TID 0000.0001)           User time:   7.9999208450317383E-002
(PID.TID 0000.0001)         System time:   0.0000000000000000
(PID.TID 0000.0001)     Wall clock time:   7.8425168991088867E-002
(PID.TID 0000.0001)          No. starts:          10
(PID.TID 0000.0001)           No. stops:          10
(PID.TID 0000.0001)   Seconds in section "DO_THE_MODEL_IO     [FORWARD_STEP]":
(PID.TID 0000.0001)           User time:   4.0000915527343750E-002
(PID.TID 0000.0001)         System time:   0.0000000000000000
(PID.TID 0000.0001)     Wall clock time:   5.8182716369628906E-002
(PID.TID 0000.0001)          No. starts:          10
(PID.TID 0000.0001)           No. stops:          10
(PID.TID 0000.0001)   Seconds in section "DO_WRITE_PICKUP     [FORWARD_STEP]":
(PID.TID 0000.0001)           User time:   1.1999607086181641E-002
(PID.TID 0000.0001)         System time:   0.0000000000000000
(PID.TID 0000.0001)     Wall clock time:   7.3230266571044922E-003
(PID.TID 0000.0001)          No. starts:          10
(PID.TID 0000.0001)           No. stops:          10
(PID.TID 0000.0001) // ======================================================
(PID.TID 0000.0001) // Tile <-> Tile communication statistics
(PID.TID 0000.0001) // ======================================================
(PID.TID 0000.0001) // o Tile number: 000001
(PID.TID 0000.0001) //         No. X exchanges =              0
(PID.TID 0000.0001) //            Max. X spins =              0
(PID.TID 0000.0001) //            Min. X spins =     1000000000
(PID.TID 0000.0001) //          Total. X spins =              0
(PID.TID 0000.0001) //            Avg. X spins =       0.00E+00
(PID.TID 0000.0001) //         No. Y exchanges =              0
(PID.TID 0000.0001) //            Max. Y spins =              0
(PID.TID 0000.0001) //            Min. Y spins =     1000000000
(PID.TID 0000.0001) //          Total. Y spins =              0
(PID.TID 0000.0001) //            Avg. Y spins =       0.00E+00
(PID.TID 0000.0001) // o Tile number: 000002
(PID.TID 0000.0001) //         No. X exchanges =              0
(PID.TID 0000.0001) //            Max. X spins =              0
(PID.TID 0000.0001) //            Min. X spins =     1000000000
(PID.TID 0000.0001) //          Total. X spins =              0
(PID.TID 0000.0001) //            Avg. X spins =       0.00E+00
(PID.TID 0000.0001) //         No. Y exchanges =              0
(PID.TID 0000.0001) //            Max. Y spins =              0
(PID.TID 0000.0001) //            Min. Y spins =     1000000000
(PID.TID 0000.0001) //          Total. Y spins =              0
(PID.TID 0000.0001) //            Avg. Y spins =       0.00E+00
(PID.TID 0000.0001) // o Tile number: 000003
(PID.TID 0000.0001) //         No. X exchanges =              0
(PID.TID 0000.0001) //            Max. X spins =              0
(PID.TID 0000.0001) //            Min. X spins =     1000000000
(PID.TID 0000.0001) //          Total. X spins =              0
(PID.TID 0000.0001) //            Avg. X spins =       0.00E+00
(PID.TID 0000.0001) //         No. Y exchanges =              0
(PID.TID 0000.0001) //            Max. Y spins =              0
(PID.TID 0000.0001) //            Min. Y spins =     1000000000
(PID.TID 0000.0001) //          Total. Y spins =              0
(PID.TID 0000.0001) //            Avg. Y spins =       0.00E+00
(PID.TID 0000.0001) // o Tile number: 000004
(PID.TID 0000.0001) //         No. X exchanges =              0
(PID.TID 0000.0001) //            Max. X spins =              0
(PID.TID 0000.0001) //            Min. X spins =     1000000000
(PID.TID 0000.0001) //          Total. X spins =              0
(PID.TID 0000.0001) //            Avg. X spins =       0.00E+00
(PID.TID 0000.0001) //         No. Y exchanges =              0
(PID.TID 0000.0001) //            Max. Y spins =              0
(PID.TID 0000.0001) //            Min. Y spins =     1000000000
(PID.TID 0000.0001) //          Total. Y spins =              0
(PID.TID 0000.0001) //            Avg. Y spins =       0.00E+00
(PID.TID 0000.0001) // o Thread number: 000001
(PID.TID 0000.0001) //            No. barriers =          11058
(PID.TID 0000.0001) //      Max. barrier spins =              1
(PID.TID 0000.0001) //      Min. barrier spins =              1
(PID.TID 0000.0001) //     Total barrier spins =          11058
(PID.TID 0000.0001) //      Avg. barrier spins =       1.00E+00
PROGRAM MAIN: Execution ended Normally
