(PID.TID 0000.0001) 
(PID.TID 0000.0001) // ======================================================
(PID.TID 0000.0001) //                      MITgcm UV
(PID.TID 0000.0001) //                      =========
(PID.TID 0000.0001) // ======================================================
(PID.TID 0000.0001) // execution environment starting up...
(PID.TID 0000.0001) 
(PID.TID 0000.0001) // MITgcmUV version:  checkpoint67t
(PID.TID 0000.0001) // Build user:        jm_c
(PID.TID 0000.0001) // Build host:        villon
(PID.TID 0000.0001) // Build date:        Fri Dec 11 09:48:50 EST 2020
(PID.TID 0000.0001) 
(PID.TID 0000.0001) // =======================================================
(PID.TID 0000.0001) // Execution Environment parameter file "eedata"
(PID.TID 0000.0001) // =======================================================
(PID.TID 0000.0001) ># Example "eedata" file
(PID.TID 0000.0001) ># Lines beginning "#" are comments
(PID.TID 0000.0001) ># nTx - No. threads per process in X
(PID.TID 0000.0001) ># nTy - No. threads per process in Y
(PID.TID 0000.0001) > &EEPARMS
(PID.TID 0000.0001) > nTx=1,
(PID.TID 0000.0001) > nTy=1,
(PID.TID 0000.0001) > /
(PID.TID 0000.0001) ># Note: Some systems use & as the namelist terminator (as shown here).
(PID.TID 0000.0001) >#       Other systems use a / character.
(PID.TID 0000.0001) 
(PID.TID 0000.0001) // =======================================================
(PID.TID 0000.0001) // Computational Grid Specification ( see files "SIZE.h" )
(PID.TID 0000.0001) //                                  ( and "eedata"       )
(PID.TID 0000.0001) // =======================================================
(PID.TID 0000.0001)      nPx =    1 ; /* No. processes in X */
(PID.TID 0000.0001)      nPy =    1 ; /* No. processes in Y */
(PID.TID 0000.0001)      nSx =    2 ; /* No. tiles in X per process */
(PID.TID 0000.0001)      nSy =    2 ; /* No. tiles in Y per process */
(PID.TID 0000.0001)      sNx =   10 ; /* Tile size in X */
(PID.TID 0000.0001)      sNy =    8 ; /* Tile size in Y */
(PID.TID 0000.0001)      OLx =    4 ; /* Tile overlap distance in X */
(PID.TID 0000.0001)      OLy =    4 ; /* Tile overlap distance in Y */
(PID.TID 0000.0001)      nTx =    1 ; /* No. threads in X per process */
(PID.TID 0000.0001)      nTy =    1 ; /* No. threads in Y per process */
(PID.TID 0000.0001)       Nr =   23 ; /* No. levels in the vertical   */
(PID.TID 0000.0001)       Nx =   20 ; /* Total domain size in X ( = nPx*nSx*sNx ) */
(PID.TID 0000.0001)       Ny =   16 ; /* Total domain size in Y ( = nPy*nSy*sNy ) */
(PID.TID 0000.0001)   nTiles =    4 ; /* Total no. tiles per process ( = nSx*nSy ) */
(PID.TID 0000.0001)   nProcs =    1 ; /* Total no. processes ( = nPx*nPy ) */
(PID.TID 0000.0001) nThreads =    1 ; /* Total no. threads per process ( = nTx*nTy ) */
(PID.TID 0000.0001) usingMPI =    F ; /* Flag used to control whether MPI is in use */
(PID.TID 0000.0001)                   /*  note: To execute a program with MPI calls */
(PID.TID 0000.0001)                   /*  it must be launched appropriately e.g     */
(PID.TID 0000.0001)                   /*  "mpirun -np 64 ......"                    */
(PID.TID 0000.0001) useCoupler=   F ; /* Flag used to control communications with   */
(PID.TID 0000.0001)                   /*  other model components, through a coupler */
(PID.TID 0000.0001) useNest2W_parent =    F ;/* Control 2-W Nesting comm */
(PID.TID 0000.0001) useNest2W_child  =    F ;/* Control 2-W Nesting comm */
(PID.TID 0000.0001) debugMode =    F ; /* print debug msg. (sequence of S/R calls)  */
(PID.TID 0000.0001) printMapIncludesZeros=    F ; /* print zeros in Std.Output maps */
(PID.TID 0000.0001) maxLengthPrt1D=   65 /* maxLength of 1D array printed to StdOut */
(PID.TID 0000.0001) 
(PID.TID 0000.0001) // ======================================================
(PID.TID 0000.0001) // Mapping of tiles to threads
(PID.TID 0000.0001) // ======================================================
(PID.TID 0000.0001) // -o- Thread   1, tiles (   1:   2,   1:   2)
(PID.TID 0000.0001) 
(PID.TID 0000.0001) // ======================================================
(PID.TID 0000.0001) // Tile <-> Tile connectvity table
(PID.TID 0000.0001) // ======================================================
(PID.TID 0000.0001) // Tile number: 000001 (process no. = 000000)
(PID.TID 0000.0001) //        WEST: Tile = 000002, Process = 000000, Comm = put
(PID.TID 0000.0001) //                bi = 000002, bj = 000001
(PID.TID 0000.0001) //        EAST: Tile = 000002, Process = 000000, Comm = put
(PID.TID 0000.0001) //                bi = 000002, bj = 000001
(PID.TID 0000.0001) //       SOUTH: Tile = 000003, Process = 000000, Comm = put
(PID.TID 0000.0001) //                bi = 000001, bj = 000002
(PID.TID 0000.0001) //       NORTH: Tile = 000003, Process = 000000, Comm = put
(PID.TID 0000.0001) //                bi = 000001, bj = 000002
(PID.TID 0000.0001) // Tile number: 000002 (process no. = 000000)
(PID.TID 0000.0001) //        WEST: Tile = 000001, Process = 000000, Comm = put
(PID.TID 0000.0001) //                bi = 000001, bj = 000001
(PID.TID 0000.0001) //        EAST: Tile = 000001, Process = 000000, Comm = put
(PID.TID 0000.0001) //                bi = 000001, bj = 000001
(PID.TID 0000.0001) //       SOUTH: Tile = 000004, Process = 000000, Comm = put
(PID.TID 0000.0001) //                bi = 000002, bj = 000002
(PID.TID 0000.0001) //       NORTH: Tile = 000004, Process = 000000, Comm = put
(PID.TID 0000.0001) //                bi = 000002, bj = 000002
(PID.TID 0000.0001) // Tile number: 000003 (process no. = 000000)
(PID.TID 0000.0001) //        WEST: Tile = 000004, Process = 000000, Comm = put
(PID.TID 0000.0001) //                bi = 000002, bj = 000002
(PID.TID 0000.0001) //        EAST: Tile = 000004, Process = 000000, Comm = put
(PID.TID 0000.0001) //                bi = 000002, bj = 000002
(PID.TID 0000.0001) //       SOUTH: Tile = 000001, Process = 000000, Comm = put
(PID.TID 0000.0001) //                bi = 000001, bj = 000001
(PID.TID 0000.0001) //       NORTH: Tile = 000001, Process = 000000, Comm = put
(PID.TID 0000.0001) //                bi = 000001, bj = 000001
(PID.TID 0000.0001) // Tile number: 000004 (process no. = 000000)
(PID.TID 0000.0001) //        WEST: Tile = 000003, Process = 000000, Comm = put
(PID.TID 0000.0001) //                bi = 000001, bj = 000002
(PID.TID 0000.0001) //        EAST: Tile = 000003, Process = 000000, Comm = put
(PID.TID 0000.0001) //                bi = 000001, bj = 000002
(PID.TID 0000.0001) //       SOUTH: Tile = 000002, Process = 000000, Comm = put
(PID.TID 0000.0001) //                bi = 000002, bj = 000001
(PID.TID 0000.0001) //       NORTH: Tile = 000002, Process = 000000, Comm = put
(PID.TID 0000.0001) //                bi = 000002, bj = 000001
(PID.TID 0000.0001) 
(PID.TID 0000.0001)  INI_PARMS: opening model parameter file "data"
(PID.TID 0000.0001)  OPEN_COPY_DATA_FILE: opening file data
(PID.TID 0000.0001) // =======================================================
(PID.TID 0000.0001) // Parameter file "data"
(PID.TID 0000.0001) // =======================================================
(PID.TID 0000.0001) ># ====================
(PID.TID 0000.0001) ># | Model parameters |
(PID.TID 0000.0001) ># ====================
(PID.TID 0000.0001) >#
(PID.TID 0000.0001) ># Continuous equation parameters
(PID.TID 0000.0001) >#
(PID.TID 0000.0001) >#   tRef            - Reference vertical potential temperature          (deg C)
(PID.TID 0000.0001) >#   sRef            - Reference vertical salinity                         (PSU)
(PID.TID 0000.0001) >#   viscAh          - Horizontal eddy viscosity coefficient             (m^2/s)
(PID.TID 0000.0001) >#   viscAz          - Vertical eddy viscosity coefficient               (m^2/s)
(PID.TID 0000.0001) >#   diffKhT         - Horizontal temperature diffusivity                (m^2/s)
(PID.TID 0000.0001) >#   diffKzT         - Vertical temperature diffusivity                  (m^2/s)
(PID.TID 0000.0001) >#   diffKhS         - Horizontal salt diffusivity                       (m^2/s)
(PID.TID 0000.0001) >#   diffKzS         - Vertical salt diffusivity                         (m^2/s)
(PID.TID 0000.0001) >#   gravity         - Acceleration due to gravity                       (m/s^2)
(PID.TID 0000.0001) >#   rigidLid        - Set to true to use rigid lid
(PID.TID 0000.0001) >#   implicitFreeSurface - Set to true to use implicit free surface
(PID.TID 0000.0001) >#   eosType         - Flag for linear or polynomial equation of state
(PID.TID 0000.0001) >#   momAdvection    - On/Off flag for momentum self transport
(PID.TID 0000.0001) >#   momViscosity    - On/Off flag for momentum mixing
(PID.TID 0000.0001) >#
(PID.TID 0000.0001) > &PARM01
(PID.TID 0000.0001) > tRef= 24.0 , 23.0 , 22.0 , 21.0 , 20.0 ,
(PID.TID 0000.0001) >       19.0 , 18.0 , 17.0 , 16.0 , 15.0 ,
(PID.TID 0000.0001) >       14.0 , 13.0 , 12.0 , 11.0 , 10.0 ,
(PID.TID 0000.0001) >        9.0 ,  8.0 ,  7.0 ,  6.0,   5.0 ,
(PID.TID 0000.0001) >        4.0 ,  3.0 ,  2.0 ,
(PID.TID 0000.0001) > sRef= 34.65, 34.75, 34.82, 34.87, 34.90,
(PID.TID 0000.0001) >       34.90, 34.86, 34.78, 34.69, 34.60,
(PID.TID 0000.0001) >       34.58, 34.62, 34.68, 34.72, 34.73,
(PID.TID 0000.0001) >       34.74, 34.73, 34.73, 34.72, 34.72,
(PID.TID 0000.0001) >       34.71, 34.70, 34.69,
(PID.TID 0000.0001) > no_slip_sides=.FALSE.,
(PID.TID 0000.0001) > no_slip_bottom=.TRUE.,
(PID.TID 0000.0001) > viscAz=1.93e-5,
(PID.TID 0000.0001) > viscAh=5.E4,
(PID.TID 0000.0001) > diffKhT=0.0,
(PID.TID 0000.0001) > diffKzT=1.46e-5,
(PID.TID 0000.0001) > diffKhS=0.0,
(PID.TID 0000.0001) > diffKzS=1.46e-5,
(PID.TID 0000.0001) > rigidLid=.FALSE.,
(PID.TID 0000.0001) > implicitFreeSurface=.TRUE.,
(PID.TID 0000.0001) > eosType='JMD95Z',
(PID.TID 0000.0001) > saltStepping=.TRUE.,
(PID.TID 0000.0001) > tempStepping=.TRUE.,
(PID.TID 0000.0001) > momStepping=.TRUE.,
(PID.TID 0000.0001) > implicitDiffusion=.TRUE.,
(PID.TID 0000.0001) > implicitViscosity=.TRUE.,
(PID.TID 0000.0001) > staggerTimeStep=.TRUE.,
(PID.TID 0000.0001) > tempAdvScheme =7,
(PID.TID 0000.0001) > saltAdvScheme =7,
(PID.TID 0000.0001) > convertFW2Salt=-1,
(PID.TID 0000.0001) > allowFreezing=.FALSE.,
(PID.TID 0000.0001) >#- set wrong celsius2K to reproduce old results:
(PID.TID 0000.0001) > celsius2K=273.16,
(PID.TID 0000.0001) > HeatCapacity_Cp = 3986.D0,
(PID.TID 0000.0001) > gravity         = 9.8156,
(PID.TID 0000.0001) > rhoConst        = 1027.D0,
(PID.TID 0000.0001) > rhoConstFresh   = 999.8,
(PID.TID 0000.0001) > useSingleCpuIO=.TRUE.,
(PID.TID 0000.0001) > readBinaryPrec=32,
(PID.TID 0000.0001) > writeBinaryPrec=32,
(PID.TID 0000.0001) > /
(PID.TID 0000.0001) >
(PID.TID 0000.0001) ># Elliptic solver parameters
(PID.TID 0000.0001) >#
(PID.TID 0000.0001) >#   cg2dMaxIters       - Maximum number of 2d solver iterations
(PID.TID 0000.0001) >#   cg2dTargetResidual - Solver target residual
(PID.TID 0000.0001) >#
(PID.TID 0000.0001) > &PARM02
(PID.TID 0000.0001) > cg2dMaxIters=500,
(PID.TID 0000.0001) > cg2dTargetResidual=1.E-12,
(PID.TID 0000.0001) > /
(PID.TID 0000.0001) >
(PID.TID 0000.0001) ># Time stepping parameters
(PID.TID 0000.0001) >#
(PID.TID 0000.0001) >#   startTime         - Integration starting time                (s)
(PID.TID 0000.0001) >#   endTime           - Integration ending time                  (s)
(PID.TID 0000.0001) >#   deltaTMom         - Timestep for momemtum equations          (s)
(PID.TID 0000.0001) >#   deltaTtracer      - Tracer timestep                          (s)
(PID.TID 0000.0001) >#   deltaTClock       - Timestep used as model "clock"           (s)
(PID.TID 0000.0001) >#   abEps             - Adams-Bashforth stabilising factor
(PID.TID 0000.0001) >#   pChkPtFreq        - Frequency of permanent check pointing    (s)
(PID.TID 0000.0001) >#   chkPtFreq         - Frequency of rolling check pointing      (s)
(PID.TID 0000.0001) >#   dumpFreq          - Frequency at which model state is stored (s)
(PID.TID 0000.0001) >#   tauThetaClimRelax - Relaxation to climatology time scale     (s)
(PID.TID 0000.0001) >#   tauSaltClimRelax  - Relaxation to climatology time scale     (s)
(PID.TID 0000.0001) >#
(PID.TID 0000.0001) > &PARM03
(PID.TID 0000.0001) > startTime=3600.0,
(PID.TID 0000.0001) > endTime=36000.,
(PID.TID 0000.0001) > deltaTmom=3600.0,
(PID.TID 0000.0001) > deltaTtracer=3600.0,
(PID.TID 0000.0001) > deltaTClock =3600.0,
(PID.TID 0000.0001) > cAdjFreq=0.,
(PID.TID 0000.0001) > abEps=0.1,
(PID.TID 0000.0001) > forcing_In_AB = .FALSE.,
(PID.TID 0000.0001) > pChkptFreq=36000.,
(PID.TID 0000.0001) > chkptFreq= 0.,
(PID.TID 0000.0001) > dumpFreq = 0.,
(PID.TID 0000.0001) > taveFreq = 36000.,
(PID.TID 0000.0001) > monitorFreq=1.,
(PID.TID 0000.0001) > pickupStrictlyMatch=.FALSE.,
(PID.TID 0000.0001) > /
(PID.TID 0000.0001) >
(PID.TID 0000.0001) ># Gridding parameters
(PID.TID 0000.0001) >#
(PID.TID 0000.0001) >#   usingSphericalPolarGrid - On/Off flag for spherical polar coordinates
(PID.TID 0000.0001) >#   delX                    - Zonal grid spacing         (degrees)
(PID.TID 0000.0001) >#   delY                    - Meridional grid spacing    (degrees)
(PID.TID 0000.0001) >#   delZ                    - Vertical grid spacing      (m)
(PID.TID 0000.0001) >#   ygOrigin                - Southern boundary latitude (degrees)
(PID.TID 0000.0001) >#
(PID.TID 0000.0001) > &PARM04
(PID.TID 0000.0001) > usingSphericalPolarGrid=.TRUE.,
(PID.TID 0000.0001) > delX=20*2.E0,
(PID.TID 0000.0001) > delY=16*2.E0,
(PID.TID 0000.0001) > delZ= 10., 10., 15., 20., 20., 25., 35., 50., 75.,
(PID.TID 0000.0001) >       100., 150., 200., 275., 350., 415., 450.,
(PID.TID 0000.0001) >       500., 500., 500., 500., 500., 500., 500.,
(PID.TID 0000.0001) > ygOrigin=46.,
(PID.TID 0000.0001) > xgOrigin=280.,
(PID.TID 0000.0001) > rSphere = 6371.D3,
(PID.TID 0000.0001) > /
(PID.TID 0000.0001) >
(PID.TID 0000.0001) ># Input datasets
(PID.TID 0000.0001) >#
(PID.TID 0000.0001) >#   bathyFile       - File containing bathymetry
(PID.TID 0000.0001) >#   hydrogThetaFile - File containing initial potential temperature data
(PID.TID 0000.0001) >#   hydrogSaltFile  - File containing initial salinity data
(PID.TID 0000.0001) >#   zonalWindFile   - File containing zonal wind data
(PID.TID 0000.0001) >#   meridWindFile   - File containing meridional wind data
(PID.TID 0000.0001) >#   thetaClimFile   - File containing theta climatology used for relaxation
(PID.TID 0000.0001) >#   saltClimFile    - File containing salt climatology used for relaxation
(PID.TID 0000.0001) >#
(PID.TID 0000.0001) > &PARM05
(PID.TID 0000.0001) > bathyFile       = 'bathy.labsea1979',
(PID.TID 0000.0001) > hydrogThetaFile = 'LevCli_temp.labsea1979',
(PID.TID 0000.0001) > hydrogSaltFile  = 'LevCli_salt.labsea1979',
(PID.TID 0000.0001) > /
(PID.TID 0000.0001) 
(PID.TID 0000.0001)  INI_PARMS ; starts to read PARM01
(PID.TID 0000.0001)  INI_PARMS ; read PARM01 : OK
(PID.TID 0000.0001)  INI_PARMS ; starts to read PARM02
(PID.TID 0000.0001)  INI_PARMS ; read PARM02 : OK
(PID.TID 0000.0001)  INI_PARMS ; starts to read PARM03
(PID.TID 0000.0001)  INI_PARMS ; read PARM03 : OK
(PID.TID 0000.0001)  INI_PARMS ; starts to read PARM04
(PID.TID 0000.0001)  INI_PARMS ; read PARM04 : OK
(PID.TID 0000.0001)  INI_PARMS ; starts to read PARM05
(PID.TID 0000.0001)  INI_PARMS ; read PARM05 : OK
(PID.TID 0000.0001)  INI_PARMS: finished reading file "data"
(PID.TID 0000.0001)  PACKAGES_BOOT: opening data.pkg
(PID.TID 0000.0001)  OPEN_COPY_DATA_FILE: opening file data.pkg
(PID.TID 0000.0001) // =======================================================
(PID.TID 0000.0001) // Parameter file "data.pkg"
(PID.TID 0000.0001) // =======================================================
(PID.TID 0000.0001) ># Packages
(PID.TID 0000.0001) > &PACKAGES
(PID.TID 0000.0001) >  useGMRedi = .TRUE.,
(PID.TID 0000.0001) >  useKPP    = .TRUE.,
(PID.TID 0000.0001) >  useEXF    = .TRUE.,
(PID.TID 0000.0001) >  useCAL    = .TRUE.,
(PID.TID 0000.0001) >  useSEAICE = .TRUE.,
(PID.TID 0000.0001) >  useSALT_PLUME  = .TRUE.,
(PID.TID 0000.0001) > /
(PID.TID 0000.0001) 
(PID.TID 0000.0001)  PACKAGES_BOOT: finished reading data.pkg
(PID.TID 0000.0001)  PACKAGES_BOOT: On/Off package Summary
 --------  pkgs with a standard "usePKG" On/Off switch in "data.pkg":  --------
 pkg/kpp                  compiled   and   used ( useKPP                   = T )
 pkg/gmredi               compiled   and   used ( useGMRedi                = T )
 pkg/cal                  compiled   and   used ( useCAL                   = T )
 pkg/exf                  compiled   and   used ( useEXF                   = T )
 pkg/seaice               compiled   and   used ( useSEAICE                = T )
 pkg/salt_plume           compiled   and   used ( useSALT_PLUME            = T )
 pkg/diagnostics          compiled but not used ( useDiagnostics           = F )
 pkg/mnc                  compiled but not used ( useMNC                   = F )
 -------- pkgs without standard "usePKG" On/Off switch in "data.pkg":  --------
 pkg/generic_advdiff      compiled   and   used ( useGAD                   = T )
 pkg/mom_common           compiled   and   used ( momStepping              = T )
 pkg/mom_vecinv           compiled but not used ( +vectorInvariantMomentum = F )
 pkg/mom_fluxform         compiled   and   used ( & not vectorInvariantMom = T )
 pkg/cd_code              compiled but not used ( useCDscheme              = F )
 pkg/monitor              compiled   and   used ( monitorFreq > 0.         = T )
 pkg/timeave              compiled   and   used ( taveFreq > 0.            = T )
 pkg/debug                compiled but not used ( debugMode                = F )
 pkg/rw                   compiled   and   used
 pkg/mdsio                compiled   and   used
(PID.TID 0000.0001)  PACKAGES_BOOT: End of package Summary
(PID.TID 0000.0001) 
(PID.TID 0000.0001) CAL_READPARMS: opening data.cal
(PID.TID 0000.0001)  OPEN_COPY_DATA_FILE: opening file data.cal
(PID.TID 0000.0001) // =======================================================
(PID.TID 0000.0001) // Parameter file "data.cal"
(PID.TID 0000.0001) // =======================================================
(PID.TID 0000.0001) >#
(PID.TID 0000.0001) ># *******************
(PID.TID 0000.0001) ># Calendar Parameters
(PID.TID 0000.0001) ># *******************
(PID.TID 0000.0001) > &CAL_NML
(PID.TID 0000.0001) > TheCalendar='gregorian',
(PID.TID 0000.0001) > startDate_1=19790101,
(PID.TID 0000.0001) > startDate_2=000000,
(PID.TID 0000.0001) > /
(PID.TID 0000.0001) 
(PID.TID 0000.0001) CAL_READPARMS: finished reading data.cal
(PID.TID 0000.0001) EXF_READPARMS: opening data.exf
(PID.TID 0000.0001)  OPEN_COPY_DATA_FILE: opening file data.exf
(PID.TID 0000.0001) // =======================================================
(PID.TID 0000.0001) // Parameter file "data.exf"
(PID.TID 0000.0001) // =======================================================
(PID.TID 0000.0001) >#
(PID.TID 0000.0001) ># *********************
(PID.TID 0000.0001) ># External Forcing Data
(PID.TID 0000.0001) ># *********************
(PID.TID 0000.0001) > &EXF_NML_01
(PID.TID 0000.0001) >#
(PID.TID 0000.0001) > useExfCheckRange  = .TRUE.,
(PID.TID 0000.0001) > repeatPeriod      = 31622400.0,
(PID.TID 0000.0001) > exf_iprec         = 32,
(PID.TID 0000.0001) >#
(PID.TID 0000.0001) > /
(PID.TID 0000.0001) >
(PID.TID 0000.0001) ># *********************
(PID.TID 0000.0001) > &EXF_NML_02
(PID.TID 0000.0001) >#
(PID.TID 0000.0001) > hfluxstartdate1   = 19781216,
(PID.TID 0000.0001) > hfluxstartdate2   = 180000,
(PID.TID 0000.0001) > hfluxperiod       = 2635200.0,
(PID.TID 0000.0001) >#
(PID.TID 0000.0001) > sfluxstartdate1   = 19781216,
(PID.TID 0000.0001) > sfluxstartdate2   = 180000,
(PID.TID 0000.0001) > sfluxperiod       = 2635200.0,
(PID.TID 0000.0001) >#
(PID.TID 0000.0001) > ustressstartdate1 = 19781216,
(PID.TID 0000.0001) > ustressstartdate2 = 180000,
(PID.TID 0000.0001) > ustressperiod     = 2635200.0,
(PID.TID 0000.0001) >#
(PID.TID 0000.0001) > vstressstartdate1 = 19781216,
(PID.TID 0000.0001) > vstressstartdate2 = 180000,
(PID.TID 0000.0001) > vstressperiod     = 2635200.0,
(PID.TID 0000.0001) >#
(PID.TID 0000.0001) > atempstartdate1   = 19781216,
(PID.TID 0000.0001) > atempstartdate2   = 180000,
(PID.TID 0000.0001) > atempperiod       = 2635200.0,
(PID.TID 0000.0001) >#
(PID.TID 0000.0001) > aqhstartdate1     = 19781216,
(PID.TID 0000.0001) > aqhstartdate2     = 180000,
(PID.TID 0000.0001) > aqhperiod         = 2635200.0,
(PID.TID 0000.0001) >#
(PID.TID 0000.0001) >#evapstartdate1    = 19781216,
(PID.TID 0000.0001) >#evapstartdate2    = 180000,
(PID.TID 0000.0001) >#evapperiod        = 2635200.0,
(PID.TID 0000.0001) >#
(PID.TID 0000.0001) > precipstartdate1  = 19781216,
(PID.TID 0000.0001) > precipstartdate2  = 180000,
(PID.TID 0000.0001) > precipperiod      = 2635200.0,
(PID.TID 0000.0001) >#
(PID.TID 0000.0001) > uwindstartdate1   = 19781216,
(PID.TID 0000.0001) > uwindstartdate2   = 180000,
(PID.TID 0000.0001) > uwindperiod       = 2635200.0,
(PID.TID 0000.0001) >#
(PID.TID 0000.0001) > vwindstartdate1   = 19781216,
(PID.TID 0000.0001) > vwindstartdate2   = 180000,
(PID.TID 0000.0001) > vwindperiod       = 2635200.0,
(PID.TID 0000.0001) >#
(PID.TID 0000.0001) > swfluxstartdate1  = 19781216,
(PID.TID 0000.0001) > swfluxstartdate2  = 180000,
(PID.TID 0000.0001) > swfluxperiod      = 2635200.0,
(PID.TID 0000.0001) >#
(PID.TID 0000.0001) > lwfluxstartdate1  = 19781216,
(PID.TID 0000.0001) > lwfluxstartdate2  = 180000,
(PID.TID 0000.0001) > lwfluxperiod      = 2635200.0,
(PID.TID 0000.0001) >#
(PID.TID 0000.0001) > swdownstartdate1  = 19781216,
(PID.TID 0000.0001) > swdownstartdate2  = 180000,
(PID.TID 0000.0001) > swdownperiod      = 2635200.0,
(PID.TID 0000.0001) >#
(PID.TID 0000.0001) > lwdownstartdate1  = 19781216,
(PID.TID 0000.0001) > lwdownstartdate2  = 180000,
(PID.TID 0000.0001) > lwdownperiod      = 2635200.0,
(PID.TID 0000.0001) >#
(PID.TID 0000.0001) > climsststartdate1  = 19781216,
(PID.TID 0000.0001) > climsststartdate2  = 180000,
(PID.TID 0000.0001) > climsstperiod      = 2635200.0,
(PID.TID 0000.0001) > climsstTauRelax    = 0.0,
(PID.TID 0000.0001) >#
(PID.TID 0000.0001) > climsssstartdate1  = 19781216,
(PID.TID 0000.0001) > climsssstartdate2  = 180000,
(PID.TID 0000.0001) > climsssperiod      = 2635200.0,
(PID.TID 0000.0001) > climsssTauRelax    = 4142330.0,
(PID.TID 0000.0001) >#
(PID.TID 0000.0001) > hfluxfile         = ' ',
(PID.TID 0000.0001) > sfluxfile         = ' ',
(PID.TID 0000.0001) > ustressfile       = ' ',
(PID.TID 0000.0001) > vstressfile       = ' ',
(PID.TID 0000.0001) > atempfile         = 'tair.labsea1979',
(PID.TID 0000.0001) > aqhfile           = 'qa.labsea1979',
(PID.TID 0000.0001) > uwindfile         = 'u10m.labsea1979',
(PID.TID 0000.0001) > vwindfile         = 'v10m.labsea1979',
(PID.TID 0000.0001) >#evapfile          = 'evap.labsea1979',
(PID.TID 0000.0001) > precipfile        = 'prate.labsea1979',
(PID.TID 0000.0001) > lwfluxfile        = ' ',
(PID.TID 0000.0001) > swfluxfile        = ' ',
(PID.TID 0000.0001) > lwdownfile        = 'flo.labsea1979',
(PID.TID 0000.0001) > swdownfile        = 'fsh.labsea1979',
(PID.TID 0000.0001) > runoffFile        = ' '
(PID.TID 0000.0001) > climsstfile       = ' ',
(PID.TID 0000.0001) > climsssfile       = 'SSS_monthly.labsea1979',
(PID.TID 0000.0001) >#
(PID.TID 0000.0001) > /
(PID.TID 0000.0001) >
(PID.TID 0000.0001) ># *********************
(PID.TID 0000.0001) > &EXF_NML_03
(PID.TID 0000.0001) > /
(PID.TID 0000.0001) >
(PID.TID 0000.0001) ># *********************
(PID.TID 0000.0001) > &EXF_NML_04
(PID.TID 0000.0001) > /
(PID.TID 0000.0001) 
(PID.TID 0000.0001) EXF_READPARMS: reading EXF_NML_01
(PID.TID 0000.0001) EXF_READPARMS: reading EXF_NML_02
(PID.TID 0000.0001) EXF_READPARMS: reading EXF_NML_03
(PID.TID 0000.0001) EXF_READPARMS: finished reading data.exf
(PID.TID 0000.0001)  KPP_READPARMS: opening data.kpp
(PID.TID 0000.0001)  OPEN_COPY_DATA_FILE: opening file data.kpp
(PID.TID 0000.0001) // =======================================================
(PID.TID 0000.0001) // Parameter file "data.kpp"
(PID.TID 0000.0001) // =======================================================
(PID.TID 0000.0001) ># KPP parameters
(PID.TID 0000.0001) > &KPP_PARM01
(PID.TID 0000.0001) > KPPmixingMaps   = .FALSE.,
(PID.TID 0000.0001) > KPPwriteState   = .TRUE.,
(PID.TID 0000.0001) > KPP_ghatUseTotalDiffus=.TRUE.,
(PID.TID 0000.0001) > /
(PID.TID 0000.0001) 
(PID.TID 0000.0001)  KPP_READPARMS ; starts to read KPP_PARM01
(PID.TID 0000.0001)  KPP_READPARMS ; read KPP_PARM01 : OK
(PID.TID 0000.0001)  KPP_READPARMS: finished reading data.kpp
(PID.TID 0000.0001)  GM_READPARMS: opening data.gmredi
(PID.TID 0000.0001)  OPEN_COPY_DATA_FILE: opening file data.gmredi
(PID.TID 0000.0001) // =======================================================
(PID.TID 0000.0001) // Parameter file "data.gmredi"
(PID.TID 0000.0001) // =======================================================
(PID.TID 0000.0001) ># GMREDI parameters
(PID.TID 0000.0001) > &GM_PARM01
(PID.TID 0000.0001) >  GM_background_K = 571.0
(PID.TID 0000.0001) >  GM_taper_scheme = 'ldd97'
(PID.TID 0000.0001) > /
(PID.TID 0000.0001) 
(PID.TID 0000.0001)  GM_READPARMS: finished reading data.gmredi
(PID.TID 0000.0001) 
(PID.TID 0000.0001)  SEAICE_READPARMS: opening data.seaice
(PID.TID 0000.0001)  OPEN_COPY_DATA_FILE: opening file data.seaice
(PID.TID 0000.0001) // =======================================================
(PID.TID 0000.0001) // Parameter file "data.seaice"
(PID.TID 0000.0001) // =======================================================
(PID.TID 0000.0001) ># SEAICE parameters
(PID.TID 0000.0001) > &SEAICE_PARM01
(PID.TID 0000.0001) >#- seaice dynamics params:
(PID.TID 0000.0001) >  LSR_ERROR          = 1.E-12,
(PID.TID 0000.0001) ># LSR_mixIniGuess=1 : compute free-drift residual; =2,4 mix into initial guess
(PID.TID 0000.0001) >  LSR_mixIniGuess    = 1,
(PID.TID 0000.0001) >#- seaice state & transport params:
(PID.TID 0000.0001) >  SEAICEadvScheme    = 7,
(PID.TID 0000.0001) ># for adjoint simulations you will need
(PID.TID 0000.0001) ># SEAICEadvScheme    = 30,
(PID.TID 0000.0001) ># add small diffKh to test diffusion with multi-dim advect.
(PID.TID 0000.0001) >  SEAICEdiffKhArea   = 20.,
(PID.TID 0000.0001) >  SEAICE_salinityTracer = .TRUE.,
(PID.TID 0000.0001) ># SEAICE_saltFrac    = 0.3,
(PID.TID 0000.0001) >#- seaice thermodyn params:
(PID.TID 0000.0001) >  SEAICE_multDim     = 7,
(PID.TID 0000.0001) >#- constant seawater freezing point:
(PID.TID 0000.0001) >  SEAICE_tempFrz0    = -1.96,
(PID.TID 0000.0001) >  SEAICE_dTempFrz_dS = 0.,
(PID.TID 0000.0001) >#- to reproduce old results with former #defined SEAICE_SOLVE4TEMP_LEGACY code
(PID.TID 0000.0001) >    useMaykutSatVapPoly = .TRUE.,
(PID.TID 0000.0001) >    postSolvTempIter    =  0,
(PID.TID 0000.0001) >  SEAICE_dryIceAlb   = 0.8756,
(PID.TID 0000.0001) >  SEAICE_wetIceAlb   = 0.7856,
(PID.TID 0000.0001) >  SEAICE_drySnowAlb  = 0.9656,
(PID.TID 0000.0001) >  SEAICE_wetSnowAlb  = 0.8256,
(PID.TID 0000.0001) >  SEAICE_strength    = 2.6780e+04,
(PID.TID 0000.0001) ># SEAICE_waterDrag   = 5.3508,
(PID.TID 0000.0001) >  SEAICE_waterDrag   = 0.0052101265822784805,
(PID.TID 0000.0001) ># use the new standard way of specifying ocean-ice turb. flux coeff:
(PID.TID 0000.0001) >  SEAICE_mcPheePiston= 0.00004,
(PID.TID 0000.0001) >  SEAICE_frazilFrac  = 0.3,
(PID.TID 0000.0001) >#- seaice I/O params:
(PID.TID 0000.0001) >  SEAICEwriteState   = .TRUE.,
(PID.TID 0000.0001) ># old defaults
(PID.TID 0000.0001) > SEAICEscaleSurfStress = .FALSE.,
(PID.TID 0000.0001) > SEAICEaddSnowMass     = .FALSE.,
(PID.TID 0000.0001) > SEAICE_useMultDimSnow = .FALSE.,
(PID.TID 0000.0001) > SEAICEetaZmethod = 0,
(PID.TID 0000.0001) > SEAICE_drag = 0.002,
(PID.TID 0000.0001) > SEAICE_Olx = 0,
(PID.TID 0000.0001) > SEAICE_Oly = 0,
(PID.TID 0000.0001) > /
(PID.TID 0000.0001) >
(PID.TID 0000.0001) > &SEAICE_PARM03
(PID.TID 0000.0001) >  SItrNumInUse       = 2,
(PID.TID 0000.0001) >  SItrName(1)        = 'ridge',
(PID.TID 0000.0001) >  SItrMate(1)        = 'AREA',
(PID.TID 0000.0001) >  SItrName(2)        = 'salinity',
(PID.TID 0000.0001) >  SItrFromOceanFrac(2) = 0.3,
(PID.TID 0000.0001) > /
(PID.TID 0000.0001) 
(PID.TID 0000.0001)  SEAICE_READPARMS: finished reading data.seaice
(PID.TID 0000.0001) SALT_PLUME_READPARMS: opening data.salt_plume
(PID.TID 0000.0001)  OPEN_COPY_DATA_FILE: opening file data.salt_plume
(PID.TID 0000.0001) // =======================================================
(PID.TID 0000.0001) // Parameter file "data.salt_plume"
(PID.TID 0000.0001) // =======================================================
(PID.TID 0000.0001) > &SALT_PLUME_PARM01
(PID.TID 0000.0001) > SaltPlumeCriterion = 0.4D0
(PID.TID 0000.0001) > /
(PID.TID 0000.0001) 
(PID.TID 0000.0001) SALT_PLUME_READPARMS: finished reading data.salt_plume
(PID.TID 0000.0001) SET_PARMS: done
(PID.TID 0000.0001) Enter INI_VERTICAL_GRID: setInterFDr=    T ; setCenterDr=    F
(PID.TID 0000.0001) %MON XC_max                       =   3.1900000000000E+02
(PID.TID 0000.0001) %MON XC_min                       =   2.8100000000000E+02
(PID.TID 0000.0001) %MON XC_mean                      =   3.0000000000000E+02
(PID.TID 0000.0001) %MON XC_sd                        =   1.1532562594671E+01
(PID.TID 0000.0001) %MON XG_max                       =   3.1800000000000E+02
(PID.TID 0000.0001) %MON XG_min                       =   2.8000000000000E+02
(PID.TID 0000.0001) %MON XG_mean                      =   2.9900000000000E+02
(PID.TID 0000.0001) %MON XG_sd                        =   1.1532562594671E+01
(PID.TID 0000.0001) %MON DXC_max                      =   1.5166951523772E+05
(PID.TID 0000.0001) %MON DXC_min                      =   5.0026831972764E+04
(PID.TID 0000.0001) %MON DXC_mean                     =   1.0305926321463E+05
(PID.TID 0000.0001) %MON DXC_sd                       =   3.1375805318756E+04
(PID.TID 0000.0001) %MON DXF_max                      =   1.5166951523772E+05
(PID.TID 0000.0001) %MON DXF_min                      =   5.0026831972764E+04
(PID.TID 0000.0001) %MON DXF_mean                     =   1.0305926321463E+05
(PID.TID 0000.0001) %MON DXF_sd                       =   3.1375805318756E+04
(PID.TID 0000.0001) %MON DXG_max                      =   1.5448497309243E+05
(PID.TID 0000.0001) %MON DXG_min                      =   5.3800974869835E+04
(PID.TID 0000.0001) %MON DXG_mean                     =   1.0642630187324E+05
(PID.TID 0000.0001) %MON DXG_sd                       =   3.1081829200899E+04
(PID.TID 0000.0001) %MON DXV_max                      =   1.5448497309243E+05
(PID.TID 0000.0001) %MON DXV_min                      =   5.3800974869835E+04
(PID.TID 0000.0001) %MON DXV_mean                     =   1.0642630187324E+05
(PID.TID 0000.0001) %MON DXV_sd                       =   3.1081829200899E+04
(PID.TID 0000.0001) %MON YC_max                       =   7.7000000000000E+01
(PID.TID 0000.0001) %MON YC_min                       =   4.7000000000000E+01
(PID.TID 0000.0001) %MON YC_mean                      =   6.2000000000000E+01
(PID.TID 0000.0001) %MON YC_sd                        =   9.2195444572929E+00
(PID.TID 0000.0001) %MON YG_max                       =   7.6000000000000E+01
(PID.TID 0000.0001) %MON YG_min                       =   4.6000000000000E+01
(PID.TID 0000.0001) %MON YG_mean                      =   6.1000000000000E+01
(PID.TID 0000.0001) %MON YG_sd                        =   9.2195444572929E+00
(PID.TID 0000.0001) %MON DYC_max                      =   2.2238985328912E+05
(PID.TID 0000.0001) %MON DYC_min                      =   2.2238985328912E+05
(PID.TID 0000.0001) %MON DYC_mean                     =   2.2238985328912E+05
(PID.TID 0000.0001) %MON DYC_sd                       =   1.4551915228367E-10
(PID.TID 0000.0001) %MON DYF_max                      =   2.2238985328912E+05
(PID.TID 0000.0001) %MON DYF_min                      =   2.2238985328912E+05
(PID.TID 0000.0001) %MON DYF_mean                     =   2.2238985328912E+05
(PID.TID 0000.0001) %MON DYF_sd                       =   1.4551915228367E-10
(PID.TID 0000.0001) %MON DYG_max                      =   2.2238985328912E+05
(PID.TID 0000.0001) %MON DYG_min                      =   2.2238985328912E+05
(PID.TID 0000.0001) %MON DYG_mean                     =   2.2238985328912E+05
(PID.TID 0000.0001) %MON DYG_sd                       =   1.4551915228367E-10
(PID.TID 0000.0001) %MON DYU_max                      =   2.2238985328912E+05
(PID.TID 0000.0001) %MON DYU_min                      =   2.2238985328912E+05
(PID.TID 0000.0001) %MON DYU_mean                     =   2.2238985328912E+05
(PID.TID 0000.0001) %MON DYU_sd                       =   1.4551915228367E-10
(PID.TID 0000.0001) %MON RA_max                       =   3.3728048822756E+10
(PID.TID 0000.0001) %MON RA_min                       =   1.1124894996734E+10
(PID.TID 0000.0001) %MON RA_mean                      =   2.2918170839356E+10
(PID.TID 0000.0001) %MON RA_sd                        =   6.9773064942263E+09
(PID.TID 0000.0001) %MON RAW_max                      =   3.3728048822756E+10
(PID.TID 0000.0001) %MON RAW_min                      =   1.1124894996734E+10
(PID.TID 0000.0001) %MON RAW_mean                     =   2.2918170839356E+10
(PID.TID 0000.0001) %MON RAW_sd                       =   6.9773064942263E+09
(PID.TID 0000.0001) %MON RAS_max                      =   3.4354146294179E+10
(PID.TID 0000.0001) %MON RAS_min                      =   1.1964183470077E+10
(PID.TID 0000.0001) %MON RAS_mean                     =   2.3666928057229E+10
(PID.TID 0000.0001) %MON RAS_sd                       =   6.9119325076329E+09
(PID.TID 0000.0001) %MON RAZ_max                      =   3.4354146294179E+10
(PID.TID 0000.0001) %MON RAZ_min                      =   1.1964183470077E+10
(PID.TID 0000.0001) %MON RAZ_mean                     =   2.3666928057229E+10
(PID.TID 0000.0001) %MON RAZ_sd                       =   6.9119325076329E+09
(PID.TID 0000.0001) %MON AngleCS_max                  =   1.0000000000000E+00
(PID.TID 0000.0001) %MON AngleCS_min                  =   1.0000000000000E+00
(PID.TID 0000.0001) %MON AngleCS_mean                 =   1.0000000000000E+00
(PID.TID 0000.0001) %MON AngleCS_sd                   =   0.0000000000000E+00
(PID.TID 0000.0001) %MON AngleSN_max                  =   0.0000000000000E+00
(PID.TID 0000.0001) %MON AngleSN_min                  =   0.0000000000000E+00
(PID.TID 0000.0001) %MON AngleSN_mean                 =   0.0000000000000E+00
(PID.TID 0000.0001) %MON AngleSN_sd                   =   0.0000000000000E+00
(PID.TID 0000.0001)  MDS_READ_FIELD: opening global file: bathy.labsea1979
(PID.TID 0000.0001) // =======================================================
(PID.TID 0000.0001) // Field Model R_low (ini_masks_etc)
(PID.TID 0000.0001) // CMIN =         -4.200000000000000E+03
(PID.TID 0000.0001) // CMAX =         -5.500000000000000E+01
(PID.TID 0000.0001) // CINT =          1.535185185185185E+02
(PID.TID 0000.0001) // SYMBOLS (CMIN->CMAX): -abcdefghijklmnopqrstuvwxyz+
(PID.TID 0000.0001) //                  0.0: .
(PID.TID 0000.0001) // RANGE I (Lo:Hi:Step):(    -3:    24:     1)
(PID.TID 0000.0001) // RANGE J (Lo:Hi:Step):(    20:    -3:    -1)
(PID.TID 0000.0001) // RANGE K (Lo:Hi:Step):(   1:   1:   1)
(PID.TID 0000.0001) // =======================================================
(PID.TID 0000.0001) K =   1
(PID.TID 0000.0001) //                I=6       I=8       I=18
(PID.TID 0000.0001) // |--J--|321012345|789012347|901234567|901234
(PID.TID 0000.0001) //     20 cccg............zz......zzmgcccg....
(PID.TID 0000.0001) //     19 gcc-..........+.zz....+.zzxmgcc-....
(PID.TID 0000.0001) //     18 mjc-.......+zzz..z.+zzz..zzsmjc-....
(PID.TID 0000.0001) //     17 wwc-........++z+++..++z+++z+wwc-....
(PID.TID 0000.0001) //     16 .....zyyz........................zyy
(PID.TID 0000.0001) //     15 ....yxwwuspxyxz...pxyxz.........yxww
(PID.TID 0000.0001) //     14 .....+wwspppsxzz..ppsxzz.........+ww
(PID.TID 0000.0001) //     13 ........zwsppsyz..sppsyz............
(PID.TID 0000.0001) //     12 ..........+ypswzz++ypswzz+..........
(PID.TID 0000.0001) //     11 ............+wwy+...+wwy+...........
(PID.TID 0000.0001) //     10 ...........zzzywy+.zzzywy+..........
(PID.TID 0000.0001) //      9 ...z.......+zxsmmm.+zxsmmm+....z....
(PID.TID 0000.0001) //      8 z..s.....zzzxumjjjzzxumjjjjuz..s....
(PID.TID 0000.0001) //      7 jpmj......z.+zmjggz.+zmjggggjpmj....
(PID.TID 0000.0001) //      6 gggg.........zxmjg...zxmjggggggg....
(PID.TID 0000.0001) //      5 gggg..........zzsj....zzsjgggggg....
(PID.TID 0000.0001) //     12 ..........+ypswzz++ypswzz+..........
(PID.TID 0000.0001) //     11 ............+wwy+...+wwy+...........
(PID.TID 0000.0001) //     10 ...........zzzywy+.zzzywy+..........
(PID.TID 0000.0001) //      9 ...z.......+zxsmmm.+zxsmmm+....z....
(PID.TID 0000.0001) //      8 z..s.....zzzxumjjjzzxumjjjjuz..s....
(PID.TID 0000.0001) //      7 jpmj......z.+zmjggz.+zmjggggjpmj....
(PID.TID 0000.0001) //      6 gggg.........zxmjg...zxmjggggggg....
(PID.TID 0000.0001) //      5 gggg..........zzsj....zzsjgggggg....
(PID.TID 0000.0001) //      4 cccg............zz......zzmgcccg....
(PID.TID 0000.0001) //      3 gcc-..........+.zz....+.zzxmgcc-....
(PID.TID 0000.0001) //      2 mjc-.......+zzz..z.+zzz..zzsmjc-....
(PID.TID 0000.0001) //      1 wwc-........++z+++..++z+++z+wwc-....
(PID.TID 0000.0001) //      0 .....zyyz........................zyy
(PID.TID 0000.0001) //     -1 ....yxwwuspxyxz...pxyxz.........yxww
(PID.TID 0000.0001) //     -2 .....+wwspppsxzz..ppsxzz.........+ww
(PID.TID 0000.0001) //     -3 ........zwsppsyz..sppsyz............
(PID.TID 0000.0001) // =======================================================
(PID.TID 0000.0001) // END OF FIELD                                          =
(PID.TID 0000.0001) // =======================================================
(PID.TID 0000.0001) 
(PID.TID 0000.0001) // =======================================================
(PID.TID 0000.0001) // Field Model Ro_surf (ini_masks_etc)
(PID.TID 0000.0001) // CMIN =          1.000000000000000E+32
(PID.TID 0000.0001) // CMAX =         -1.000000000000000E+32
(PID.TID 0000.0001) // CINT =          0.000000000000000E+00
(PID.TID 0000.0001) // SYMBOLS (CMIN->CMAX): -abcdefghijklmnopqrstuvwxyz+
(PID.TID 0000.0001) //                  0.0: .
(PID.TID 0000.0001) // RANGE I (Lo:Hi:Step):(    -3:    24:     1)
(PID.TID 0000.0001) // RANGE J (Lo:Hi:Step):(    20:    -3:    -1)
(PID.TID 0000.0001) // RANGE K (Lo:Hi:Step):(   1:   1:   1)
(PID.TID 0000.0001) // =======================================================
(PID.TID 0000.0001) // =======================================================
(PID.TID 0000.0001) // END OF FIELD                                          =
(PID.TID 0000.0001) // =======================================================
(PID.TID 0000.0001) 
(PID.TID 0000.0001) // =======================================================
(PID.TID 0000.0001) // Field hFacC at iteration          0
(PID.TID 0000.0001) // CMIN =          1.000000000000000E+00
(PID.TID 0000.0001) // CMAX =          1.000000000000000E+00
(PID.TID 0000.0001) // CINT =          0.000000000000000E+00
(PID.TID 0000.0001) // SYMBOLS (CMIN->CMAX): -abcdefghijklmnopqrstuvwxyz+
(PID.TID 0000.0001) //                  0.0: .
(PID.TID 0000.0001) // RANGE I (Lo:Hi:Step):(    -3:    24:     1)
(PID.TID 0000.0001) // RANGE J (Lo:Hi:Step):(    20:    -3:    -1)
(PID.TID 0000.0001) // RANGE K (Lo:Hi:Step):(   1:   1:   1)
(PID.TID 0000.0001) // =======================================================
(PID.TID 0000.0001) // =======================================================
(PID.TID 0000.0001) // END OF FIELD                                          =
(PID.TID 0000.0001) // =======================================================
(PID.TID 0000.0001) 
(PID.TID 0000.0001) // =======================================================
(PID.TID 0000.0001) // Field hFacW at iteration          0
(PID.TID 0000.0001) // CMIN =          1.000000000000000E+00
(PID.TID 0000.0001) // CMAX =          1.000000000000000E+00
(PID.TID 0000.0001) // CINT =          0.000000000000000E+00
(PID.TID 0000.0001) // SYMBOLS (CMIN->CMAX): -abcdefghijklmnopqrstuvwxyz+
(PID.TID 0000.0001) //                  0.0: .
(PID.TID 0000.0001) // RANGE I (Lo:Hi:Step):(    -3:    24:     1)
(PID.TID 0000.0001) // RANGE J (Lo:Hi:Step):(    20:    -3:    -1)
(PID.TID 0000.0001) // RANGE K (Lo:Hi:Step):(   1:   1:   1)
(PID.TID 0000.0001) // =======================================================
(PID.TID 0000.0001) // =======================================================
(PID.TID 0000.0001) // END OF FIELD                                          =
(PID.TID 0000.0001) // =======================================================
(PID.TID 0000.0001) 
(PID.TID 0000.0001) // =======================================================
(PID.TID 0000.0001) // Field hFacS at iteration          0
(PID.TID 0000.0001) // CMIN =          1.000000000000000E+00
(PID.TID 0000.0001) // CMAX =          1.000000000000000E+00
(PID.TID 0000.0001) // CINT =          0.000000000000000E+00
(PID.TID 0000.0001) // SYMBOLS (CMIN->CMAX): -abcdefghijklmnopqrstuvwxyz+
(PID.TID 0000.0001) //                  0.0: .
(PID.TID 0000.0001) // RANGE I (Lo:Hi:Step):(    -3:    24:     1)
(PID.TID 0000.0001) // RANGE J (Lo:Hi:Step):(    20:    -3:    -1)
(PID.TID 0000.0001) // RANGE K (Lo:Hi:Step):(   1:   1:   1)
(PID.TID 0000.0001) // =======================================================
(PID.TID 0000.0001) // =======================================================
(PID.TID 0000.0001) // END OF FIELD                                          =
(PID.TID 0000.0001) // =======================================================
(PID.TID 0000.0001) 
(PID.TID 0000.0001) 
(PID.TID 0000.0001) // =======================================================
(PID.TID 0000.0001) // Calendar configuration >>> START <<<
(PID.TID 0000.0001) // =======================================================
(PID.TID 0000.0001) 
(PID.TID 0000.0001) modelstart = /* Start time of the model integration [s] */
(PID.TID 0000.0001)                 3.600000000000000E+03
(PID.TID 0000.0001)     ;
(PID.TID 0000.0001) modelend  = /* End time of the model integration [s] */
(PID.TID 0000.0001)                 3.600000000000000E+04
(PID.TID 0000.0001)     ;
(PID.TID 0000.0001) modelStep = /* Time interval for a model forward step [s] */
(PID.TID 0000.0001)                 3.600000000000000E+03
(PID.TID 0000.0001)     ;
(PID.TID 0000.0001) usingGregorianCalendar= /* Calendar Type: Gregorian Calendar */
(PID.TID 0000.0001)                   T
(PID.TID 0000.0001)     ;
(PID.TID 0000.0001) usingJulianCalendar = /* Calendar Type: Julian Calendar */
(PID.TID 0000.0001)                   F
(PID.TID 0000.0001)     ;
(PID.TID 0000.0001) usingNoLeapYearCal  = /* Calendar Type: without Leap Year */
(PID.TID 0000.0001)                   F
(PID.TID 0000.0001)     ;
(PID.TID 0000.0001) usingModelCalendar  = /* Calendar Type: Model Calendar */
(PID.TID 0000.0001)                   F
(PID.TID 0000.0001)     ;
(PID.TID 0000.0001) modelStartDate YYYYMMDD = /* Model start date YYYY-MM-DD */
(PID.TID 0000.0001)                19790101
(PID.TID 0000.0001)     ;
(PID.TID 0000.0001)   modelStartDate HHMMSS = /* Model start date HH-MM-SS  */
(PID.TID 0000.0001)                   10000
(PID.TID 0000.0001)     ;
(PID.TID 0000.0001) modelEndDate   YYYYMMDD = /* Model end date YYYY-MM-DD */
(PID.TID 0000.0001)                19790101
(PID.TID 0000.0001)     ;
(PID.TID 0000.0001)   modelEndDate   HHMMSS = /* Model end date HH-MM-SS  */
(PID.TID 0000.0001)                  100000
(PID.TID 0000.0001)     ;
(PID.TID 0000.0001) intyears = /* Number of calendar years affected by the integration */
(PID.TID 0000.0001)                       1
(PID.TID 0000.0001)     ;
(PID.TID 0000.0001) intmonths= /* Number of calendar months affected by the integration */
(PID.TID 0000.0001)                       1
(PID.TID 0000.0001)     ;
(PID.TID 0000.0001) intdays = /* Number of calendar days affected by the integration */
(PID.TID 0000.0001)                       1
(PID.TID 0000.0001)     ;
(PID.TID 0000.0001) modelIter0 = /* Base timestep number  */
(PID.TID 0000.0001)                       1
(PID.TID 0000.0001)     ;
(PID.TID 0000.0001) modelIterEnd = /* Final timestep number  */
(PID.TID 0000.0001)                      10
(PID.TID 0000.0001)     ;
(PID.TID 0000.0001) modelIntSteps= /* Number of model timesteps  */
(PID.TID 0000.0001)                       9
(PID.TID 0000.0001)     ;
(PID.TID 0000.0001) 
(PID.TID 0000.0001) // =======================================================
(PID.TID 0000.0001) // Calendar configuration  >>> END <<<
(PID.TID 0000.0001) // =======================================================
(PID.TID 0000.0001) 
(PID.TID 0000.0001) GAD_INIT_FIXED: GAD_OlMinSize=  4  0  1
(PID.TID 0000.0001) 
(PID.TID 0000.0001) // ===================================
(PID.TID 0000.0001) // GAD parameters :
(PID.TID 0000.0001) // ===================================
(PID.TID 0000.0001) tempAdvScheme =   /* Temp. Horiz.Advection scheme selector */
(PID.TID 0000.0001)                       7
(PID.TID 0000.0001)     ;
(PID.TID 0000.0001) tempVertAdvScheme =   /* Temp. Vert. Advection scheme selector */
(PID.TID 0000.0001)                       7
(PID.TID 0000.0001)     ;
(PID.TID 0000.0001) tempMultiDimAdvec =   /* use Muti-Dim Advec method for Temp */
(PID.TID 0000.0001)                   T
(PID.TID 0000.0001)     ;
(PID.TID 0000.0001) tempSOM_Advection = /* use 2nd Order Moment Advection for Temp */
(PID.TID 0000.0001)                   F
(PID.TID 0000.0001)     ;
(PID.TID 0000.0001) AdamsBashforthGt = /* apply Adams-Bashforth extrapolation on Gt */
(PID.TID 0000.0001)                   F
(PID.TID 0000.0001)     ;
(PID.TID 0000.0001) AdamsBashforth_T = /* apply Adams-Bashforth extrapolation on Temp */
(PID.TID 0000.0001)                   F
(PID.TID 0000.0001)     ;
(PID.TID 0000.0001) saltAdvScheme =   /* Salt. Horiz.advection scheme selector */
(PID.TID 0000.0001)                       7
(PID.TID 0000.0001)     ;
(PID.TID 0000.0001) saltVertAdvScheme =   /* Salt. Vert. Advection scheme selector */
(PID.TID 0000.0001)                       7
(PID.TID 0000.0001)     ;
(PID.TID 0000.0001) saltMultiDimAdvec =   /* use Muti-Dim Advec method for Salt */
(PID.TID 0000.0001)                   T
(PID.TID 0000.0001)     ;
(PID.TID 0000.0001) saltSOM_Advection = /* use 2nd Order Moment Advection for Salt */
(PID.TID 0000.0001)                   F
(PID.TID 0000.0001)     ;
(PID.TID 0000.0001) AdamsBashforthGs = /* apply Adams-Bashforth extrapolation on Gs */
(PID.TID 0000.0001)                   F
(PID.TID 0000.0001)     ;
(PID.TID 0000.0001) AdamsBashforth_S = /* apply Adams-Bashforth extrapolation on Salt */
(PID.TID 0000.0001)                   F
(PID.TID 0000.0001)     ;
(PID.TID 0000.0001) // ===================================
(PID.TID 0000.0001) 
(PID.TID 0000.0001) // =======================================================
(PID.TID 0000.0001) // External forcing (EXF) configuration >>> START <<<
(PID.TID 0000.0001) // =======================================================
(PID.TID 0000.0001) 
(PID.TID 0000.0001)  EXF general parameters:
(PID.TID 0000.0001) 
(PID.TID 0000.0001) exf_iprec = /* exf file precision */
(PID.TID 0000.0001)                      32
(PID.TID 0000.0001)     ;
(PID.TID 0000.0001) useExfYearlyFields = /* add extension _YEAR to input file names */
(PID.TID 0000.0001)                   F
(PID.TID 0000.0001)     ;
(PID.TID 0000.0001) twoDigitYear = /* use 2-digit year extension */
(PID.TID 0000.0001)                   F
(PID.TID 0000.0001)     ;
(PID.TID 0000.0001) useExfCheckRange = /* check for fields range */
(PID.TID 0000.0001)                   T
(PID.TID 0000.0001)     ;
(PID.TID 0000.0001) diags_opOceWeighted = /* weight flux diags by open-ocean fraction */
(PID.TID 0000.0001)                   T
(PID.TID 0000.0001)     ;
(PID.TID 0000.0001) exf_debugLev = /* select EXF-debug printing level */
(PID.TID 0000.0001)                       2
(PID.TID 0000.0001)     ;
(PID.TID 0000.0001) exf_monFreq  = /* EXF monitor frequency [ s ] */
(PID.TID 0000.0001)                 1.000000000000000E+00
(PID.TID 0000.0001)     ;
(PID.TID 0000.0001) repeatPeriod = /* period for cycling forcing dataset [ s ] */
(PID.TID 0000.0001)                 3.162240000000000E+07
(PID.TID 0000.0001)     ;
(PID.TID 0000.0001) climTempFreeze= /* Minimum climatological temperature [deg.C] */
(PID.TID 0000.0001)                -1.900000000000000E+00
(PID.TID 0000.0001)     ;
(PID.TID 0000.0001) windStressMax = /* Maximum absolute windstress [ Pa ] */
(PID.TID 0000.0001)                 2.000000000000000E+00
(PID.TID 0000.0001)     ;
(PID.TID 0000.0001) stressIsOnCgrid = /* set u,v_stress on Arakawa C-grid */
(PID.TID 0000.0001)                   F
(PID.TID 0000.0001)     ;
(PID.TID 0000.0001) rotateStressOnAgrid = /* rotate u,v_stress on Arakawa A-grid */
(PID.TID 0000.0001)                   F
(PID.TID 0000.0001)     ;
(PID.TID 0000.0001) cen2kel = /* conversion of deg. Centigrade to Kelvin [K] */
(PID.TID 0000.0001)                 2.731500000000000E+02
(PID.TID 0000.0001)     ;
(PID.TID 0000.0001) gravity_mks= /* gravitational acceleration [m/s^2] */
(PID.TID 0000.0001)                 9.810000000000000E+00
(PID.TID 0000.0001)     ;
(PID.TID 0000.0001) atmrho =  /* mean atmospheric density [kg/m^3] */
(PID.TID 0000.0001)                 1.200000000000000E+00
(PID.TID 0000.0001)     ;
(PID.TID 0000.0001) atmcp =  /* mean atmospheric specific heat [J/kg/K] */
(PID.TID 0000.0001)                 1.005000000000000E+03
(PID.TID 0000.0001)     ;
(PID.TID 0000.0001) flamb =  /* latent heat of evaporation [J/kg] */
(PID.TID 0000.0001)                 2.500000000000000E+06
(PID.TID 0000.0001)     ;
(PID.TID 0000.0001) flami =  /* latent heat of pure-ice melting [J/kg] */
(PID.TID 0000.0001)                 3.340000000000000E+05
(PID.TID 0000.0001)     ;
(PID.TID 0000.0001) cvapor_fac = /* const. for Saturation calculation [?] */
(PID.TID 0000.0001)                 6.403800000000000E+05
(PID.TID 0000.0001)     ;
(PID.TID 0000.0001) cvapor_exp = /* const. for Saturation calculation [?] */
(PID.TID 0000.0001)                 5.107400000000000E+03
(PID.TID 0000.0001)     ;
(PID.TID 0000.0001) cvapor_fac_ice= /* const. for Saturation calculation [?] */
(PID.TID 0000.0001)                 1.163780000000000E+07
(PID.TID 0000.0001)     ;
(PID.TID 0000.0001) cvapor_exp_ice= /* const. for Saturation calculation [?] */
(PID.TID 0000.0001)                 5.897800000000000E+03
(PID.TID 0000.0001)     ;
(PID.TID 0000.0001) humid_fac = /* humidity coef. in virtual temp. [(kg/kg)^-1] */
(PID.TID 0000.0001)                 6.060000000000000E-01
(PID.TID 0000.0001)     ;
(PID.TID 0000.0001) gamma_blk = /* adiabatic lapse rate [?] */
(PID.TID 0000.0001)                 1.000000000000000E-02
(PID.TID 0000.0001)     ;
(PID.TID 0000.0001) saltsat = /* reduction of Qsat over salty water [-] */
(PID.TID 0000.0001)                 9.800000000000000E-01
(PID.TID 0000.0001)     ;
(PID.TID 0000.0001) noNegativeEvap = /* prevent negative Evaporation */
(PID.TID 0000.0001)                   F
(PID.TID 0000.0001)     ;
(PID.TID 0000.0001) sstExtrapol = /* extrapolation coeff from lev. 1 & 2 to surf [-] */
(PID.TID 0000.0001)                 0.000000000000000E+00
(PID.TID 0000.0001)     ;
(PID.TID 0000.0001) cDrag_1 = /* coef used in drag calculation [?] */
(PID.TID 0000.0001)                 2.700000000000000E-03
(PID.TID 0000.0001)     ;
(PID.TID 0000.0001) cDrag_2 = /* coef used in drag calculation [?] */
(PID.TID 0000.0001)                 1.420000000000000E-04
(PID.TID 0000.0001)     ;
(PID.TID 0000.0001) cDrag_3 = /* coef used in drag calculation [?] */
(PID.TID 0000.0001)                 7.640000000000000E-05
(PID.TID 0000.0001)     ;
(PID.TID 0000.0001) cStanton_1 = /* coef used in Stanton number calculation [?] */
(PID.TID 0000.0001)                 3.270000000000000E-02
(PID.TID 0000.0001)     ;
(PID.TID 0000.0001) cStanton_2 = /* coef used in Stanton number calculation [?] */
(PID.TID 0000.0001)                 1.800000000000000E-02
(PID.TID 0000.0001)     ;
(PID.TID 0000.0001) cDalton = /* coef used in Dalton number calculation [?] */
(PID.TID 0000.0001)                 3.460000000000000E-02
(PID.TID 0000.0001)     ;
(PID.TID 0000.0001) exf_scal_BulkCdn= /* Drag coefficient scaling factor [-] */
(PID.TID 0000.0001)                 1.000000000000000E+00
(PID.TID 0000.0001)     ;
(PID.TID 0000.0001) zolmin = /* minimum stability parameter [?] */
(PID.TID 0000.0001)                -1.000000000000000E+02
(PID.TID 0000.0001)     ;
(PID.TID 0000.0001) psim_fac = /* coef used in turbulent fluxes calculation [-] */
(PID.TID 0000.0001)                 5.000000000000000E+00
(PID.TID 0000.0001)     ;
(PID.TID 0000.0001) zref =  /* reference height [ m ] */
(PID.TID 0000.0001)                 1.000000000000000E+01
(PID.TID 0000.0001)     ;
(PID.TID 0000.0001) hu =  /* height of mean wind [ m ] */
(PID.TID 0000.0001)                 1.000000000000000E+01
(PID.TID 0000.0001)     ;
(PID.TID 0000.0001) ht =  /* height of mean temperature [ m ] */
(PID.TID 0000.0001)                 2.000000000000000E+00
(PID.TID 0000.0001)     ;
(PID.TID 0000.0001) hq =  /* height of mean spec.humidity [ m ] */
(PID.TID 0000.0001)                 2.000000000000000E+00
(PID.TID 0000.0001)     ;
(PID.TID 0000.0001) uMin = /* minimum wind speed [m/s] */
(PID.TID 0000.0001)                 5.000000000000000E-01
(PID.TID 0000.0001)     ;
(PID.TID 0000.0001) useStabilityFct_overIce= /* transfert Coeffs over sea-ice depend on stability */
(PID.TID 0000.0001)                   F
(PID.TID 0000.0001)     ;
(PID.TID 0000.0001) exf_iceCd = /* drag coefficient over sea-ice (fixed) [-] */
(PID.TID 0000.0001)                 1.630000000000000E-03
(PID.TID 0000.0001)     ;
(PID.TID 0000.0001) exf_iceCe = /* transfert coeff. over sea-ice, for Evap (fixed) [-] */
(PID.TID 0000.0001)                 1.630000000000000E-03
(PID.TID 0000.0001)     ;
(PID.TID 0000.0001) exf_iceCh = /* transfert coeff. over sea-ice, Sens.Heat.(fixed)[-] */
(PID.TID 0000.0001)                 1.630000000000000E-03
(PID.TID 0000.0001)     ;
(PID.TID 0000.0001) exf_albedo =  /* Sea-water albedo [-] */
(PID.TID 0000.0001)                 1.000000000000000E-01
(PID.TID 0000.0001)     ;
(PID.TID 0000.0001) useExfZenAlbedo = /* Sea-water albedo varies with zenith angle */
(PID.TID 0000.0001)                   F
(PID.TID 0000.0001)     ;
(PID.TID 0000.0001) select_ZenAlbedo = /* Sea-water albedo computation method */
(PID.TID 0000.0001)                       0
(PID.TID 0000.0001)     ;
(PID.TID 0000.0001) useExfZenIncoming = /* compute incoming solar radiation */
(PID.TID 0000.0001)                   F
(PID.TID 0000.0001)     ;
(PID.TID 0000.0001) ocean_emissivity = /* longwave ocean-surface emissivity [-] */
(PID.TID 0000.0001)                 9.700176366843034E-01
(PID.TID 0000.0001)     ;
(PID.TID 0000.0001) ice_emissivity = /* longwave seaice emissivity [-] */
(PID.TID 0000.0001)                 9.500000000000000E-01
(PID.TID 0000.0001)     ;
(PID.TID 0000.0001) snow_emissivity = /* longwave snow  emissivity [-] */
(PID.TID 0000.0001)                 9.500000000000000E-01
(PID.TID 0000.0001)     ;
(PID.TID 0000.0001) 
(PID.TID 0000.0001)  EXF main CPP flags:
(PID.TID 0000.0001) 
(PID.TID 0000.0001) // USE_EXF_INTERPOLATION:          NOT defined
(PID.TID 0000.0001) // ALLOW_ATM_TEMP:                     defined
(PID.TID 0000.0001) // ALLOW_ATM_WIND (useAtmWind):        defined
(PID.TID 0000.0001) // ALLOW_DOWNWARD_RADIATION:           defined
(PID.TID 0000.0001) // ALLOW_BULKFORMULAE:                 defined
(PID.TID 0000.0001) 
(PID.TID 0000.0001)    Zonal wind forcing starts at                   -1317600.
(PID.TID 0000.0001)    Zonal wind forcing period is                    2635200.
(PID.TID 0000.0001)    Zonal wind forcing repeat-cycle is             31622400.
(PID.TID 0000.0001)    Zonal wind forcing is read from file:
(PID.TID 0000.0001)    >> u10m.labsea1979 <<
(PID.TID 0000.0001) 
(PID.TID 0000.0001)    Meridional wind forcing starts at              -1317600.
(PID.TID 0000.0001)    Meridional wind forcing period is               2635200.
(PID.TID 0000.0001)    Meridional wind forcing repeat-cycle is        31622400.
(PID.TID 0000.0001)    Meridional wind forcing is read from file:
(PID.TID 0000.0001)    >> v10m.labsea1979 <<
(PID.TID 0000.0001) 
(PID.TID 0000.0001)    Atmospheric temperature starts at              -1317600.
(PID.TID 0000.0001)    Atmospheric temperature period is               2635200.
(PID.TID 0000.0001)    Atmospheric temperature repeat-cycle is        31622400.
(PID.TID 0000.0001)    Atmospheric temperature is read from file:
(PID.TID 0000.0001)    >> tair.labsea1979 <<
(PID.TID 0000.0001) 
(PID.TID 0000.0001)    Atmospheric specific humidity starts at        -1317600.
(PID.TID 0000.0001)    Atmospheric specific humidity period is         2635200.
(PID.TID 0000.0001)    Atmospheric specific humidity rep-cycle is     31622400.
(PID.TID 0000.0001)    Atmospheric specific humidity is read from file:
(PID.TID 0000.0001)    >> qa.labsea1979 <<
(PID.TID 0000.0001) 
(PID.TID 0000.0001) // ALLOW_READ_TURBFLUXES:          NOT defined
(PID.TID 0000.0001) // EXF_READ_EVAP:                  NOT defined
(PID.TID 0000.0001) 
(PID.TID 0000.0001)    Precipitation data starts at                   -1317600.
(PID.TID 0000.0001)    Precipitation data period is                    2635200.
(PID.TID 0000.0001)    Precipitation data repeat-cycle is             31622400.
(PID.TID 0000.0001)    Precipitation data is read from file:
(PID.TID 0000.0001)    >> prate.labsea1979 <<
(PID.TID 0000.0001) 
(PID.TID 0000.0001) // ALLOW_RUNOFF:                       defined
(PID.TID 0000.0001) // ALLOW_RUNOFTEMP:                NOT defined
(PID.TID 0000.0001) // ALLOW_SALTFLX:                      defined
(PID.TID 0000.0001) 
(PID.TID 0000.0001)    Downward shortwave flux starts at              -1317600.
(PID.TID 0000.0001)    Downward shortwave flux period is               2635200.
(PID.TID 0000.0001)    Downward shortwave flux repeat-cycle is        31622400.
(PID.TID 0000.0001)    Downward shortwave flux is read from file:
(PID.TID 0000.0001)    >> fsh.labsea1979 <<
(PID.TID 0000.0001) 
(PID.TID 0000.0001)    Downward longwave flux starts at               -1317600.
(PID.TID 0000.0001)    Downward longwave flux period is                2635200.
(PID.TID 0000.0001)    Downward longwave flux repeat-cycle is         31622400.
(PID.TID 0000.0001)    Downward longwave flux is read from file:
(PID.TID 0000.0001)    >> flo.labsea1979 <<
(PID.TID 0000.0001) 
(PID.TID 0000.0001) // =======================================================
(PID.TID 0000.0001) // External forcing (EXF) climatology configuration :
(PID.TID 0000.0001) // =======================================================
(PID.TID 0000.0001) 
(PID.TID 0000.0001) // ALLOW_CLIMSST_RELAXATION:           defined
(PID.TID 0000.0001)    climsst relaxation is NOT used
(PID.TID 0000.0001) 
(PID.TID 0000.0001) // ALLOW_CLIMSSS_RELAXATION:           defined
(PID.TID 0000.0001)    Climatological SSS starts at                   -1317600.
(PID.TID 0000.0001)    Climatological SSS period is                    2635200.
(PID.TID 0000.0001)    Climatological SSS repeat-cycle is             31622400.
(PID.TID 0000.0001)    Climatological SSS is read from file:
(PID.TID 0000.0001)    >> SSS_monthly.labsea1979 <<
(PID.TID 0000.0001) 
(PID.TID 0000.0001) // =======================================================
(PID.TID 0000.0001) // External forcing (EXF) configuration  >>> END <<<
(PID.TID 0000.0001) // =======================================================
(PID.TID 0000.0001) 
(PID.TID 0000.0001) // =======================================================
(PID.TID 0000.0001) // Seaice configuration (SEAICE_PARM01) >>> START <<<
(PID.TID 0000.0001) // =======================================================
(PID.TID 0000.0001) 
(PID.TID 0000.0001)    Seaice time stepping configuration   > START <
(PID.TID 0000.0001)    ----------------------------------------------
(PID.TID 0000.0001) SEAICE_deltaTtherm= /* thermodynamic timestep */
(PID.TID 0000.0001)                 3.600000000000000E+03
(PID.TID 0000.0001)     ;
(PID.TID 0000.0001) SEAICE_deltaTdyn  = /* dynamic timestep */
(PID.TID 0000.0001)                 3.600000000000000E+03
(PID.TID 0000.0001)     ;
(PID.TID 0000.0001) SEAICE_deltaTevp  = /* EVP timestep */
(PID.TID 0000.0001)                 1.234567000000000E+05
(PID.TID 0000.0001)     ;
(PID.TID 0000.0001) SEAICEuseBDF2  = /* use backw. differencing for mom. eq. */
(PID.TID 0000.0001)                   F
(PID.TID 0000.0001)     ;
(PID.TID 0000.0001) SEAICEupdateOceanStress= /* update Ocean surf. stress */
(PID.TID 0000.0001)                   T
(PID.TID 0000.0001)     ;
(PID.TID 0000.0001) SEAICErestoreUnderIce  = /* restore T and S under ice */
(PID.TID 0000.0001)                   F
(PID.TID 0000.0001)     ;
(PID.TID 0000.0001) 
(PID.TID 0000.0001)    Seaice dynamics configuration   > START <
(PID.TID 0000.0001)    ------------------------------------------
(PID.TID 0000.0001) SEAICEuseDYNAMICS = /* use dynamics */
(PID.TID 0000.0001)                   T
(PID.TID 0000.0001)     ;
(PID.TID 0000.0001) model grid type   = /* type of sea ice model grid */
(PID.TID 0000.0001)               'C-GRID'
(PID.TID 0000.0001)     ;
(PID.TID 0000.0001) SEAICEuseStrImpCpl = /* use strongly implicit coupling */
(PID.TID 0000.0001)                   F
(PID.TID 0000.0001)     ;
(PID.TID 0000.0001) SEAICEusePicardAsPrecon = /* Picard as preconditioner */
(PID.TID 0000.0001)                   F
(PID.TID 0000.0001)     ;
(PID.TID 0000.0001) SEAICEuseLSR      = /* use default Picard-LSR solver */
(PID.TID 0000.0001)                   T
(PID.TID 0000.0001)     ;
(PID.TID 0000.0001) SEAICEuseKrylov   = /* use Picard-Krylov solver */
(PID.TID 0000.0001)                   F
(PID.TID 0000.0001)     ;
(PID.TID 0000.0001) SEAICEuseEVP      = /* use EVP solver rather than LSR */
(PID.TID 0000.0001)                   F
(PID.TID 0000.0001)     ;
(PID.TID 0000.0001) SEAICEuseJFNK     = /* use JFNK solver */
(PID.TID 0000.0001)                   F
(PID.TID 0000.0001)     ;
(PID.TID 0000.0001) SEAICEuseFREEDRIFT = /* use free drift solution */
(PID.TID 0000.0001)                   F
(PID.TID 0000.0001)     ;
(PID.TID 0000.0001) OCEAN_drag        = /* air-ocean drag coefficient */
(PID.TID 0000.0001)                 1.000000000000000E-03
(PID.TID 0000.0001)     ;
(PID.TID 0000.0001) SEAICE_drag       = /* air-ice drag coefficient */
(PID.TID 0000.0001)                 2.000000000000000E-03
(PID.TID 0000.0001)     ;
(PID.TID 0000.0001) SEAICE_drag_south      = /* Southern Ocean SEAICE_drag */
(PID.TID 0000.0001)                 2.000000000000000E-03
(PID.TID 0000.0001)     ;
(PID.TID 0000.0001) SEAICE_waterDrag  = /* water-ice drag (no units) */
(PID.TID 0000.0001)                 5.210126582278480E-03
(PID.TID 0000.0001)     ;
(PID.TID 0000.0001) SEAICE_waterDrag_south = /* Southern Ocean waterDrag (no units) */
(PID.TID 0000.0001)                 5.210126582278480E-03
(PID.TID 0000.0001)     ;
(PID.TID 0000.0001) SEAICEdWatMin = /* minimum linear water-ice drag (in m/s) */
(PID.TID 0000.0001)                 2.500000000000000E-01
(PID.TID 0000.0001)     ;
(PID.TID 0000.0001) SEAICEbasalDragK2 = /* Basal drag parameter */
(PID.TID 0000.0001)                 0.000000000000000E+00
(PID.TID 0000.0001)     ;
(PID.TID 0000.0001) SEAICEuseTilt     = /* include surface tilt in dyna. */
(PID.TID 0000.0001)                   T
(PID.TID 0000.0001)     ;
(PID.TID 0000.0001) SEAICEuseTEM      = /* use truncated ellipse rheology */
(PID.TID 0000.0001)                   F
(PID.TID 0000.0001)     ;
(PID.TID 0000.0001) SEAICE_strength   = /* sea-ice strength Pstar */
(PID.TID 0000.0001)                 2.678000000000000E+04
(PID.TID 0000.0001)     ;
(PID.TID 0000.0001) SEAICE_cStar      = /* sea-ice strength parameter cStar */
(PID.TID 0000.0001)                 2.000000000000000E+01
(PID.TID 0000.0001)     ;
(PID.TID 0000.0001) SEAICEpressReplFac= /* press. replacement method factor */
(PID.TID 0000.0001)                 1.000000000000000E+00
(PID.TID 0000.0001)     ;
(PID.TID 0000.0001) SEAICE_tensilFac  = /* sea-ice tensile strength factor */
(PID.TID 0000.0001)                 0.000000000000000E+00
(PID.TID 0000.0001)     ;
(PID.TID 0000.0001) SEAICE_tensilDepth= /* crit. depth for tensile strength */
(PID.TID 0000.0001)                 0.000000000000000E+00
(PID.TID 0000.0001)     ;
(PID.TID 0000.0001) SEAICEpresH0   = /* sea-ice strength Heff threshold */
(PID.TID 0000.0001)                 1.000000000000000E+00
(PID.TID 0000.0001)     ;
(PID.TID 0000.0001) SEAICEpresPow0 = /* exponent for Heff<SEAICEpresH0 */
(PID.TID 0000.0001)                       1
(PID.TID 0000.0001)     ;
(PID.TID 0000.0001) SEAICEpresPow1 = /* exponent for Heff>SEAICEpresH0 */
(PID.TID 0000.0001)                       1
(PID.TID 0000.0001)     ;
(PID.TID 0000.0001) SEAICEetaZmethod = /* method computing eta at Z-point */
(PID.TID 0000.0001)                       0
(PID.TID 0000.0001)     ;
(PID.TID 0000.0001) SEAICE_zetaMaxFac = /* factor for upper viscosity bound */
(PID.TID 0000.0001)                 2.500000000000000E+08
(PID.TID 0000.0001)     ;
(PID.TID 0000.0001) SEAICE_zetaMin    = /* lower bound for viscosity */
(PID.TID 0000.0001)                 0.000000000000000E+00
(PID.TID 0000.0001)     ;
(PID.TID 0000.0001) SEAICE_eccen    = /* elliptical yield curve eccent */
(PID.TID 0000.0001)                 2.000000000000000E+00
(PID.TID 0000.0001)     ;
(PID.TID 0000.0001) SEAICEstressFactor    = /* wind stress scaling factor */
(PID.TID 0000.0001)                 1.000000000000000E+00
(PID.TID 0000.0001)     ;
(PID.TID 0000.0001) SEAICE_airTurnAngle    = /* air-ice turning angle */
(PID.TID 0000.0001)                 0.000000000000000E+00
(PID.TID 0000.0001)     ;
(PID.TID 0000.0001) SEAICE_waterTurnAngle  = /* ice-water turning angle */
(PID.TID 0000.0001)                 0.000000000000000E+00
(PID.TID 0000.0001)     ;
(PID.TID 0000.0001) SEAICEuseMetricTerms = /* use metric terms */
(PID.TID 0000.0001)                   T
(PID.TID 0000.0001)     ;
(PID.TID 0000.0001) SEAICE_no_slip    = /* no slip boundary conditions */
(PID.TID 0000.0001)                   F
(PID.TID 0000.0001)     ;
(PID.TID 0000.0001) SEAICE_2ndOrderBC = /* 2nd order no slip boundary conditions */
(PID.TID 0000.0001)                   F
(PID.TID 0000.0001)     ;
(PID.TID 0000.0001) SEAICE_clipVeloctities = /* impose max. vels. */
(PID.TID 0000.0001)                   F
(PID.TID 0000.0001)     ;
(PID.TID 0000.0001) useHB87stressCoupling  = /* altern. ice-ocean stress */
(PID.TID 0000.0001)                   F
(PID.TID 0000.0001)     ;
(PID.TID 0000.0001) SEAICEscaleSurfStress  = /* scale atm. and ocean-surface stress with AREA */
(PID.TID 0000.0001)                   F
(PID.TID 0000.0001)     ;
(PID.TID 0000.0001) SEAICE_maskRHS    = /* mask RHS of solver */
(PID.TID 0000.0001)                   F
(PID.TID 0000.0001)     ;
(PID.TID 0000.0001) SEAICEaddSnowMass = /* add snow mass to seaiceMassC/U/V */
(PID.TID 0000.0001)                   F
(PID.TID 0000.0001)     ;
(PID.TID 0000.0001) LSR_mixIniGuess = /* mix free-drift sol. into LSR initial Guess */
(PID.TID 0000.0001)                       1
(PID.TID 0000.0001)     ;
(PID.TID 0000.0001) SEAICE_LSRrelaxU  = /* LSR solver: relaxation parameter */
(PID.TID 0000.0001)                 9.500000000000000E-01
(PID.TID 0000.0001)     ;
(PID.TID 0000.0001) SEAICE_LSRrelaxV  = /* LSR solver: relaxation parameter */
(PID.TID 0000.0001)                 9.500000000000000E-01
(PID.TID 0000.0001)     ;
(PID.TID 0000.0001) LSR_ERROR         = /* sets accuracy of LSR solver */
(PID.TID 0000.0001)                 1.000000000000000E-12
(PID.TID 0000.0001)     ;
(PID.TID 0000.0001) SOLV_NCHECK       = /* test interval for LSR solver */
(PID.TID 0000.0001)                       2
(PID.TID 0000.0001)     ;
(PID.TID 0000.0001) SEAICEuseMultiTileSolver = /* use full domain tri-diag solver */
(PID.TID 0000.0001)                   F
(PID.TID 0000.0001)     ;
(PID.TID 0000.0001) SEAICE_OLx = /* overlap for LSR/preconditioner */
(PID.TID 0000.0001)                       0
(PID.TID 0000.0001)     ;
(PID.TID 0000.0001) SEAICE_OLy = /* overlap for LSR/preconditioner */
(PID.TID 0000.0001)                       0
(PID.TID 0000.0001)     ;
(PID.TID 0000.0001) SEAICEnonLinIterMax = /* max. number of nonlinear solver steps */
(PID.TID 0000.0001)                       2
(PID.TID 0000.0001)     ;
(PID.TID 0000.0001) SEAICElinearIterMax = /* max. number of linear solver steps */
(PID.TID 0000.0001)                    1500
(PID.TID 0000.0001)     ;
(PID.TID 0000.0001) SEAICEnonLinTol     = /* non-linear solver tolerance */
(PID.TID 0000.0001)                 0.000000000000000E+00
(PID.TID 0000.0001)     ;
(PID.TID 0000.0001) 
(PID.TID 0000.0001)    Seaice advection diffusion config,   > START <
(PID.TID 0000.0001)    -----------------------------------------------
(PID.TID 0000.0001) SEAICEmomAdvection = /* advect sea ice momentum */
(PID.TID 0000.0001)                   F
(PID.TID 0000.0001)     ;
(PID.TID 0000.0001) SEAICEadvHeff = /* advect effective ice thickness */
(PID.TID 0000.0001)                   T
(PID.TID 0000.0001)     ;
(PID.TID 0000.0001) SEAICEadvArea = /* advect fractional ice area */
(PID.TID 0000.0001)                   T
(PID.TID 0000.0001)     ;
(PID.TID 0000.0001) SEAICEadvSnow = /* advect snow layer together with ice */
(PID.TID 0000.0001)                   T
(PID.TID 0000.0001)     ;
(PID.TID 0000.0001) SEAICEadvScheme   = /* advection scheme for ice */
(PID.TID 0000.0001)                       7
(PID.TID 0000.0001)     ;
(PID.TID 0000.0001) SEAICEadvSchArea   = /* advection scheme for area */
(PID.TID 0000.0001)                       7
(PID.TID 0000.0001)     ;
(PID.TID 0000.0001) SEAICEadvSchHeff   = /* advection scheme for thickness */
(PID.TID 0000.0001)                       7
(PID.TID 0000.0001)     ;
(PID.TID 0000.0001) SEAICEadvSchSnow   = /* advection scheme for snow */
(PID.TID 0000.0001)                       7
(PID.TID 0000.0001)     ;
(PID.TID 0000.0001) SEAICEdiffKhArea   = /* diffusivity (m^2/s) for area */
(PID.TID 0000.0001)                 2.000000000000000E+01
(PID.TID 0000.0001)     ;
(PID.TID 0000.0001) SEAICEdiffKhHeff   = /* diffusivity (m^2/s) for heff */
(PID.TID 0000.0001)                 2.000000000000000E+01
(PID.TID 0000.0001)     ;
(PID.TID 0000.0001) SEAICEdiffKhSnow   = /* diffusivity (m^2/s) for snow */
(PID.TID 0000.0001)                 2.000000000000000E+01
(PID.TID 0000.0001)     ;
(PID.TID 0000.0001) DIFF1             = /* parameter used in advect.F [m/s] */
(PID.TID 0000.0001)                 0.000000000000000E+00
(PID.TID 0000.0001)     ;
(PID.TID 0000.0001) 
(PID.TID 0000.0001)    Seaice thermodynamics configuration   > START <
(PID.TID 0000.0001)    -----------------------------------------------
(PID.TID 0000.0001) SEAICE_rhoIce     = /* density of sea ice (kg/m3) */
(PID.TID 0000.0001)                 9.100000000000000E+02
(PID.TID 0000.0001)     ;
(PID.TID 0000.0001) SEAICE_rhoSnow    = /* density of snow (kg/m3) */
(PID.TID 0000.0001)                 3.300000000000000E+02
(PID.TID 0000.0001)     ;
(PID.TID 0000.0001) SEAICE_rhoAir     = /* density of air (kg/m3) */
(PID.TID 0000.0001)                 1.200000000000000E+00
(PID.TID 0000.0001)     ;
(PID.TID 0000.0001) usePW79thermodynamics  = /* default 0-layer TD */
(PID.TID 0000.0001)                   T
(PID.TID 0000.0001)     ;
(PID.TID 0000.0001) SEAICE_lhEvap     = /* latent heat of evaporation */
(PID.TID 0000.0001)                 2.500000000000000E+06
(PID.TID 0000.0001)     ;
(PID.TID 0000.0001) SEAICE_lhFusion   = /* latent heat of fusion */
(PID.TID 0000.0001)                 3.340000000000000E+05
(PID.TID 0000.0001)     ;
(PID.TID 0000.0001) SEAICE_mcPheePiston = /* turbulent flux "piston velocity" a la McPhee (m/s) */
(PID.TID 0000.0001)                 4.000000000000000E-05
(PID.TID 0000.0001)     ;
(PID.TID 0000.0001) SEAICE_mcPheeTaper = /* tapering of turbulent flux (0.< <1.) for AREA=1. */
(PID.TID 0000.0001)                 0.000000000000000E+00
(PID.TID 0000.0001)     ;
(PID.TID 0000.0001) SEAICE_mcPheeStepFunc = /* replace linear tapering with step funct. */
(PID.TID 0000.0001)                   F
(PID.TID 0000.0001)     ;
(PID.TID 0000.0001) SEAICE_frazilFrac = /* frazil (T<tempFrz) to seaice conversion rate (0.< <1.) */
(PID.TID 0000.0001)                 3.000000000000000E-01
(PID.TID 0000.0001)     ;
(PID.TID 0000.0001) SEAICE_tempFrz0   = /* freezing temp. of sea water (intercept) */
(PID.TID 0000.0001)                -1.960000000000000E+00
(PID.TID 0000.0001)     ;
(PID.TID 0000.0001) SEAICE_dTempFrz_dS= /* freezing temp. of sea water (slope) */
(PID.TID 0000.0001)                 0.000000000000000E+00
(PID.TID 0000.0001)     ;
(PID.TID 0000.0001) SEAICE_growMeltByConv  = /* grow,melt by vert. conv. */
(PID.TID 0000.0001)                   F
(PID.TID 0000.0001)     ;
(PID.TID 0000.0001) SEAICE_doOpenWaterGrowth = /* grow by open water */
(PID.TID 0000.0001)                   T
(PID.TID 0000.0001)     ;
(PID.TID 0000.0001) SEAICE_doOpenWaterMelt = /* melt by open water */
(PID.TID 0000.0001)                   F
(PID.TID 0000.0001)     ;
(PID.TID 0000.0001) SEAICE_areaGainFormula = /* ice cover gain formula (1,2)*/
(PID.TID 0000.0001)                       1
(PID.TID 0000.0001)     1=from growth by ATM
(PID.TID 0000.0001)     2=from predicted growth by ATM
(PID.TID 0000.0001)     ;
(PID.TID 0000.0001) SEAICE_areaLossFormula = /* ice cover loss formula (1,2)*/
(PID.TID 0000.0001)                       1
(PID.TID 0000.0001)     1=from all but only melt conributions by ATM and OCN
(PID.TID 0000.0001)     2=from net melt-grow>0 by ATM and OCN
(PID.TID 0000.0001)     3=from predicted melt by ATM
(PID.TID 0000.0001)     ;
(PID.TID 0000.0001) HO                = /* nominal thickness of new ice */
(PID.TID 0000.0001)                 5.000000000000000E-01
(PID.TID 0000.0001)     ;
(PID.TID 0000.0001) HO_south               = /* Southern Ocean HO */
(PID.TID 0000.0001)                 5.000000000000000E-01
(PID.TID 0000.0001)     ;
(PID.TID 0000.0001) SEAICE_area_max        = /* set to les than 1. to mimic open leads */
(PID.TID 0000.0001)                 1.000000000000000E+00
(PID.TID 0000.0001)     ;
(PID.TID 0000.0001) SEAICE_salt0   = /* constant sea ice salinity */
(PID.TID 0000.0001)                 0.000000000000000E+00
(PID.TID 0000.0001)     ;
(PID.TID 0000.0001) SEAICE_salinityTracer = /* test SITR varia. salinity */
(PID.TID 0000.0001)                   T
(PID.TID 0000.0001)     ;
(PID.TID 0000.0001) SEAICEuseFlooding = /* turn submerged snow into ice */
(PID.TID 0000.0001)                   T
(PID.TID 0000.0001)     ;
(PID.TID 0000.0001) 
(PID.TID 0000.0001)    Seaice air-sea fluxes configuration,   > START <
(PID.TID 0000.0001)    -----------------------------------------------
(PID.TID 0000.0001) SEAICEheatConsFix  = /* accound for ocn<->seaice advect. heat flux */
(PID.TID 0000.0001)                   F
(PID.TID 0000.0001)     ;
(PID.TID 0000.0001) SEAICE_multDim    = /* number of ice categories (1 or 7) */
(PID.TID 0000.0001)                       7
(PID.TID 0000.0001)     ;
(PID.TID 0000.0001) SEAICE_PDF        = /* sea-ice distribution (-) */
(PID.TID 0000.0001)     7 @  1.428571428571428E-01              /* K =  1:  7 */
(PID.TID 0000.0001)     ;
(PID.TID 0000.0001) IMAX_TICE         = /* iterations for ice surface temp */
(PID.TID 0000.0001)                      10
(PID.TID 0000.0001)     ;
(PID.TID 0000.0001) postSolvTempIter= /* flux calculation after surf. temp iter */
(PID.TID 0000.0001)                       0
(PID.TID 0000.0001)     ;
(PID.TID 0000.0001) SEAICE_dryIceAlb  = /* winter albedo */
(PID.TID 0000.0001)                 8.756000000000000E-01
(PID.TID 0000.0001)     ;
(PID.TID 0000.0001) SEAICE_wetIceAlb  = /* summer albedo */
(PID.TID 0000.0001)                 7.856000000000000E-01
(PID.TID 0000.0001)     ;
(PID.TID 0000.0001) SEAICE_drySnowAlb = /* dry snow albedo */
(PID.TID 0000.0001)                 9.656000000000000E-01
(PID.TID 0000.0001)     ;
(PID.TID 0000.0001) SEAICE_wetSnowAlb = /* wet snow albedo */
(PID.TID 0000.0001)                 8.256000000000000E-01
(PID.TID 0000.0001)     ;
(PID.TID 0000.0001) SEAICE_dryIceAlb_south = /* Southern Ocean dryIceAlb */
(PID.TID 0000.0001)                 8.756000000000000E-01
(PID.TID 0000.0001)     ;
(PID.TID 0000.0001) SEAICE_wetIceAlb_south = /* Southern Ocean wetIceAlb */
(PID.TID 0000.0001)                 7.856000000000000E-01
(PID.TID 0000.0001)     ;
(PID.TID 0000.0001) SEAICE_drySnowAlb_south= /* Southern Ocean drySnowAlb */
(PID.TID 0000.0001)                 9.656000000000000E-01
(PID.TID 0000.0001)     ;
(PID.TID 0000.0001) SEAICE_wetSnowAlb_south= /* Southern Ocean wetSnowAlb */
(PID.TID 0000.0001)                 8.256000000000000E-01
(PID.TID 0000.0001)     ;
(PID.TID 0000.0001) SEAICE_wetAlbTemp= /* Temp (o.C) threshold for wet-albedo */
(PID.TID 0000.0001)                -1.000000000000000E-03
(PID.TID 0000.0001)     ;
(PID.TID 0000.0001) SEAICE_snow_emiss = /* snow emissivity */
(PID.TID 0000.0001)                 9.500000000000000E-01
(PID.TID 0000.0001)     ;
(PID.TID 0000.0001) SEAICE_ice_emiss = /* seaice emissivity */
(PID.TID 0000.0001)                 9.500000000000000E-01
(PID.TID 0000.0001)     ;
(PID.TID 0000.0001) SEAICE_cpAir      = /* heat capacity of air */
(PID.TID 0000.0001)                 1.005000000000000E+03
(PID.TID 0000.0001)     ;
(PID.TID 0000.0001) SEAICE_dalton     = /* constant dalton number */
(PID.TID 0000.0001)                 1.750000000000000E-03
(PID.TID 0000.0001)     ;
(PID.TID 0000.0001) SEAICE_iceConduct = /* sea-ice conductivity */
(PID.TID 0000.0001)                 2.165600000000000E+00
(PID.TID 0000.0001)     ;
(PID.TID 0000.0001) SEAICE_snowConduct= /* snow conductivity */
(PID.TID 0000.0001)                 3.100000000000000E-01
(PID.TID 0000.0001)     ;
(PID.TID 0000.0001) SEAICE_snowThick  = /* cutoff snow thickness (for albedo) */
(PID.TID 0000.0001)                 1.500000000000000E-01
(PID.TID 0000.0001)     ;
(PID.TID 0000.0001) SEAICE_shortwave  = /* penetration shortwave radiation */
(PID.TID 0000.0001)                 3.000000000000000E-01
(PID.TID 0000.0001)     ;
(PID.TID 0000.0001) useMaykutSatVapPoly = /* use Maykut Polynomial for Sat.Vap.Pr */
(PID.TID 0000.0001)                   T
(PID.TID 0000.0001)     ;
(PID.TID 0000.0001) MIN_ATEMP         = /* minimum air temperature */
(PID.TID 0000.0001)                -5.000000000000000E+01
(PID.TID 0000.0001)     ;
(PID.TID 0000.0001) MIN_LWDOWN        = /* minimum downward longwave */
(PID.TID 0000.0001)                 6.000000000000000E+01
(PID.TID 0000.0001)     ;
(PID.TID 0000.0001) MIN_TICE          = /* minimum ice temperature */
(PID.TID 0000.0001)                -5.000000000000000E+01
(PID.TID 0000.0001)     ;
(PID.TID 0000.0001) 
(PID.TID 0000.0001)    Seaice initialization and IO config.,   > START <
(PID.TID 0000.0001)    -------------------------------------------------
(PID.TID 0000.0001) SEAICE_initialHEFF= /* initial sea-ice thickness */
(PID.TID 0000.0001)                 0.000000000000000E+00
(PID.TID 0000.0001)     ;
(PID.TID 0000.0001) AreaFile = /* Initial ice concentration File */
(PID.TID 0000.0001)               ''
(PID.TID 0000.0001)     ;
(PID.TID 0000.0001) HeffFile = /* Initial effective ice thickness File */
(PID.TID 0000.0001)               ''
(PID.TID 0000.0001)     ;
(PID.TID 0000.0001) HsnowFile = /* Initial snow thickness File */
(PID.TID 0000.0001)               ''
(PID.TID 0000.0001)     ;
(PID.TID 0000.0001) uIceFile = /* Initial U-ice velocity File */
(PID.TID 0000.0001)               ''
(PID.TID 0000.0001)     ;
(PID.TID 0000.0001) vIceFile = /* Initial V-ice velocity File */
(PID.TID 0000.0001)               ''
(PID.TID 0000.0001)     ;
(PID.TID 0000.0001) SEAICEwriteState  = /* write sea ice state to file */
(PID.TID 0000.0001)                   T
(PID.TID 0000.0001)     ;
(PID.TID 0000.0001) SEAICE_monFreq  = /* monitor frequency */
(PID.TID 0000.0001)                 1.000000000000000E+00
(PID.TID 0000.0001)     ;
(PID.TID 0000.0001) SEAICE_dumpFreq   = /* dump frequency */
(PID.TID 0000.0001)                 0.000000000000000E+00
(PID.TID 0000.0001)     ;
(PID.TID 0000.0001) SEAICE_taveFreq   = /* time-averaging frequency */
(PID.TID 0000.0001)                 3.600000000000000E+04
(PID.TID 0000.0001)     ;
(PID.TID 0000.0001) SEAICE_mon_stdio  = /* write monitor to std-outp */
(PID.TID 0000.0001)                   T
(PID.TID 0000.0001)     ;
(PID.TID 0000.0001) SEAICE_dump_mdsio = /* write snap-shot   using MDSIO */
(PID.TID 0000.0001)                   T
(PID.TID 0000.0001)     ;
(PID.TID 0000.0001) SEAICE_tave_mdsio = /* write TimeAverage using MDSIO */
(PID.TID 0000.0001)                   T
(PID.TID 0000.0001)     ;
(PID.TID 0000.0001) SEAICE_mon_mnc    = /* write monitor to netcdf file */
(PID.TID 0000.0001)                   F
(PID.TID 0000.0001)     ;
(PID.TID 0000.0001) SEAICE_dump_mnc   = /* write snap-shot   using MNC */
(PID.TID 0000.0001)                   F
(PID.TID 0000.0001)     ;
(PID.TID 0000.0001) SEAICE_tave_mnc   = /* write TimeAverage using MNC */
(PID.TID 0000.0001)                   F
(PID.TID 0000.0001)     ;
(PID.TID 0000.0001) SItrNumInUse = /* number of tracers that are in use (<SItrMaxNum) */
(PID.TID 0000.0001)                       2
(PID.TID 0000.0001)     ;
(PID.TID 0000.0001) == SItracer no.   1 is in use and defined as
(PID.TID 0000.0001)   -- SItrMate = /* tracer of HEFF or AREA */
(PID.TID 0000.0001)               'AREA'
(PID.TID 0000.0001)     ;
(PID.TID 0000.0001)   -- SItrName = /* tracer name*/
(PID.TID 0000.0001)               'ridge'
(PID.TID 0000.0001)     ;
(PID.TID 0000.0001)   -- SItrNameLong = /* tracer long name*/
(PID.TID 0000.0001)               ''
(PID.TID 0000.0001)     ;
(PID.TID 0000.0001)   -- SItrFile = /* tracer initial condition file */
(PID.TID 0000.0001)               ''
(PID.TID 0000.0001)     ;
(PID.TID 0000.0001)   -- SItrUnit = /* tracer unit */
(PID.TID 0000.0001)               ''
(PID.TID 0000.0001)     ;
(PID.TID 0000.0001)   -- SItrFromOcean0 = /* for new ice from freeze */
(PID.TID 0000.0001)                 0.000000000000000E+00
(PID.TID 0000.0001)     ;
(PID.TID 0000.0001)   -- SItrFromOceanFrac = /* for new ice from freeze */
(PID.TID 0000.0001)                 0.000000000000000E+00
(PID.TID 0000.0001)     ;
(PID.TID 0000.0001)   -- SItrFromFlood0 = /* for new ice from freeze */
(PID.TID 0000.0001)                 0.000000000000000E+00
(PID.TID 0000.0001)     ;
(PID.TID 0000.0001)   -- SItrFromFloodFrac = /* for new ice from freeze */
(PID.TID 0000.0001)                 0.000000000000000E+00
(PID.TID 0000.0001)     ;
(PID.TID 0000.0001)   -- SItrExpand0 = /* for ice cover thermo. expans. */
(PID.TID 0000.0001)                 0.000000000000000E+00
(PID.TID 0000.0001)     ;
(PID.TID 0000.0001) == SItracer no.   2 is in use and defined as
(PID.TID 0000.0001)   -- SItrMate = /* tracer of HEFF or AREA */
(PID.TID 0000.0001)               'HEFF'
(PID.TID 0000.0001)     ;
(PID.TID 0000.0001)   -- SItrName = /* tracer name*/
(PID.TID 0000.0001)               'salinity'
(PID.TID 0000.0001)     ;
(PID.TID 0000.0001)   -- SItrNameLong = /* tracer long name*/
(PID.TID 0000.0001)               ''
(PID.TID 0000.0001)     ;
(PID.TID 0000.0001)   -- SItrFile = /* tracer initial condition file */
(PID.TID 0000.0001)               ''
(PID.TID 0000.0001)     ;
(PID.TID 0000.0001)   -- SItrUnit = /* tracer unit */
(PID.TID 0000.0001)               ''
(PID.TID 0000.0001)     ;
(PID.TID 0000.0001)   -- SItrFromOcean0 = /* for new ice from freeze */
(PID.TID 0000.0001)                 0.000000000000000E+00
(PID.TID 0000.0001)     ;
(PID.TID 0000.0001)   -- SItrFromOceanFrac = /* for new ice from freeze */
(PID.TID 0000.0001)                 3.000000000000000E-01
(PID.TID 0000.0001)     ;
(PID.TID 0000.0001)   -- SItrFromFlood0 = /* for new ice from freeze */
(PID.TID 0000.0001)                 0.000000000000000E+00
(PID.TID 0000.0001)     ;
(PID.TID 0000.0001)   -- SItrFromFloodFrac = /* for new ice from freeze */
(PID.TID 0000.0001)                 0.000000000000000E+00
(PID.TID 0000.0001)     ;
(PID.TID 0000.0001)   -- SItrExpand0 = /* for ice cover thermo. expans. */
(PID.TID 0000.0001)                 0.000000000000000E+00
(PID.TID 0000.0001)     ;
(PID.TID 0000.0001) 
(PID.TID 0000.0001)    Seaice regularization numbers,   > START <
(PID.TID 0000.0001)    -----------------------------------------------
(PID.TID 0000.0001) SEAICE_deltaMin   = /* reduce singularities in Delta */
(PID.TID 0000.0001)                 1.000000000000000E-10
(PID.TID 0000.0001)     ;
(PID.TID 0000.0001) SEAICE_EPS        = /* small number */
(PID.TID 0000.0001)                 1.000000000000000E-10
(PID.TID 0000.0001)     ;
(PID.TID 0000.0001) SEAICE_EPS_SQ     = /* small number squared */
(PID.TID 0000.0001)                 1.000000000000000E-20
(PID.TID 0000.0001)     ;
(PID.TID 0000.0001) SEAICE_area_reg   = /* reduce derivative singularities */
(PID.TID 0000.0001)                 1.000000000000000E-05
(PID.TID 0000.0001)     ;
(PID.TID 0000.0001) SEAICE_hice_reg   = /* reduce derivative singularities */
(PID.TID 0000.0001)                 5.000000000000000E-02
(PID.TID 0000.0001)     ;
(PID.TID 0000.0001) SEAICE_area_floor = /* reduce derivative singularities */
(PID.TID 0000.0001)                 1.000000000000000E-05
(PID.TID 0000.0001)     ;
(PID.TID 0000.0001) 
(PID.TID 0000.0001) // =======================================================
(PID.TID 0000.0001) // Seaice configuration (SEAICE_PARM01) >>> END <<<
(PID.TID 0000.0001) // =======================================================
(PID.TID 0000.0001) 
(PID.TID 0000.0001) %MON fCori_max                    =   1.4210453727344E-04
(PID.TID 0000.0001) %MON fCori_min                    =   1.0666243053630E-04
(PID.TID 0000.0001) %MON fCori_mean                   =   1.2711058365303E-04
(PID.TID 0000.0001) %MON fCori_sd                     =   1.1031533875266E-05
(PID.TID 0000.0001) %MON fCoriG_max                   =   1.4151032568025E-04
(PID.TID 0000.0001) %MON fCoriG_min                   =   1.0491029349513E-04
(PID.TID 0000.0001) %MON fCoriG_mean                  =   1.2591168756569E-04
(PID.TID 0000.0001) %MON fCoriG_sd                    =   1.1383815633153E-05
(PID.TID 0000.0001) %MON fCoriCos_max                 =   9.9464325599212E-05
(PID.TID 0000.0001) %MON fCoriCos_min                 =   3.2807417471054E-05
(PID.TID 0000.0001) %MON fCoriCos_mean                =   6.7585896192312E-05
(PID.TID 0000.0001) %MON fCoriCos_sd                  =   2.0576140902612E-05
(PID.TID 0000.0001) INI_CG2D: CG2D normalisation factor =  1.6094939840939192E-04
(PID.TID 0000.0001) 
(PID.TID 0000.0001) // =======================================================
(PID.TID 0000.0001) // Model configuration
(PID.TID 0000.0001) // =======================================================
(PID.TID 0000.0001) //
(PID.TID 0000.0001) // "Physical" paramters ( PARM01 in namelist )
(PID.TID 0000.0001) //
(PID.TID 0000.0001) buoyancyRelation = /* Type of relation to get Buoyancy */
(PID.TID 0000.0001)               'OCEANIC'
(PID.TID 0000.0001)     ;
(PID.TID 0000.0001) fluidIsAir   =  /* fluid major constituent is Air */
(PID.TID 0000.0001)                   F
(PID.TID 0000.0001)     ;
(PID.TID 0000.0001) fluidIsWater =  /* fluid major constituent is Water */
(PID.TID 0000.0001)                   T
(PID.TID 0000.0001)     ;
(PID.TID 0000.0001) usingPCoords =  /* use p (or p*) vertical coordinate */
(PID.TID 0000.0001)                   F
(PID.TID 0000.0001)     ;
(PID.TID 0000.0001) usingZCoords =  /* use z (or z*) vertical coordinate */
(PID.TID 0000.0001)                   T
(PID.TID 0000.0001)     ;
(PID.TID 0000.0001) tRef =   /* Reference temperature profile ( oC or K ) */
(PID.TID 0000.0001)                 2.400000000000000E+01,      /* K =  1 */
(PID.TID 0000.0001)                 2.300000000000000E+01,      /* K =  2 */
(PID.TID 0000.0001)                 2.200000000000000E+01,      /* K =  3 */
(PID.TID 0000.0001)                 2.100000000000000E+01,      /* K =  4 */
(PID.TID 0000.0001)                 2.000000000000000E+01,      /* K =  5 */
(PID.TID 0000.0001)                 1.900000000000000E+01,      /* K =  6 */
(PID.TID 0000.0001)                 1.800000000000000E+01,      /* K =  7 */
(PID.TID 0000.0001)                 1.700000000000000E+01,      /* K =  8 */
(PID.TID 0000.0001)                 1.600000000000000E+01,      /* K =  9 */
(PID.TID 0000.0001)                 1.500000000000000E+01,      /* K = 10 */
(PID.TID 0000.0001)                 1.400000000000000E+01,      /* K = 11 */
(PID.TID 0000.0001)                 1.300000000000000E+01,      /* K = 12 */
(PID.TID 0000.0001)                 1.200000000000000E+01,      /* K = 13 */
(PID.TID 0000.0001)                 1.100000000000000E+01,      /* K = 14 */
(PID.TID 0000.0001)                 1.000000000000000E+01,      /* K = 15 */
(PID.TID 0000.0001)                 9.000000000000000E+00,      /* K = 16 */
(PID.TID 0000.0001)                 8.000000000000000E+00,      /* K = 17 */
(PID.TID 0000.0001)                 7.000000000000000E+00,      /* K = 18 */
(PID.TID 0000.0001)                 6.000000000000000E+00,      /* K = 19 */
(PID.TID 0000.0001)                 5.000000000000000E+00,      /* K = 20 */
(PID.TID 0000.0001)                 4.000000000000000E+00,      /* K = 21 */
(PID.TID 0000.0001)                 3.000000000000000E+00,      /* K = 22 */
(PID.TID 0000.0001)                 2.000000000000000E+00       /* K = 23 */
(PID.TID 0000.0001)     ;
(PID.TID 0000.0001) sRef =   /* Reference salinity profile ( psu ) */
(PID.TID 0000.0001)                 3.465000000000000E+01,      /* K =  1 */
(PID.TID 0000.0001)                 3.475000000000000E+01,      /* K =  2 */
(PID.TID 0000.0001)                 3.482000000000000E+01,      /* K =  3 */
(PID.TID 0000.0001)                 3.487000000000000E+01,      /* K =  4 */
(PID.TID 0000.0001)     2 @  3.490000000000000E+01,             /* K =  5:  6 */
(PID.TID 0000.0001)                 3.486000000000000E+01,      /* K =  7 */
(PID.TID 0000.0001)                 3.478000000000000E+01,      /* K =  8 */
(PID.TID 0000.0001)                 3.469000000000000E+01,      /* K =  9 */
(PID.TID 0000.0001)                 3.460000000000000E+01,      /* K = 10 */
(PID.TID 0000.0001)                 3.458000000000000E+01,      /* K = 11 */
(PID.TID 0000.0001)                 3.462000000000000E+01,      /* K = 12 */
(PID.TID 0000.0001)                 3.468000000000000E+01,      /* K = 13 */
(PID.TID 0000.0001)                 3.472000000000000E+01,      /* K = 14 */
(PID.TID 0000.0001)                 3.473000000000000E+01,      /* K = 15 */
(PID.TID 0000.0001)                 3.474000000000000E+01,      /* K = 16 */
(PID.TID 0000.0001)     2 @  3.473000000000000E+01,             /* K = 17: 18 */
(PID.TID 0000.0001)     2 @  3.472000000000000E+01,             /* K = 19: 20 */
(PID.TID 0000.0001)                 3.471000000000000E+01,      /* K = 21 */
(PID.TID 0000.0001)                 3.470000000000000E+01,      /* K = 22 */
(PID.TID 0000.0001)                 3.469000000000000E+01       /* K = 23 */
(PID.TID 0000.0001)     ;
(PID.TID 0000.0001) useStrainTensionVisc= /* Use StrainTension Form of Viscous Operator */
(PID.TID 0000.0001)                   F
(PID.TID 0000.0001)     ;
(PID.TID 0000.0001) useVariableVisc = /* Use variable horizontal viscosity */
(PID.TID 0000.0001)                   F
(PID.TID 0000.0001)     ;
(PID.TID 0000.0001) useHarmonicVisc = /* Use harmonic horizontal viscosity */
(PID.TID 0000.0001)                   T
(PID.TID 0000.0001)     ;
(PID.TID 0000.0001) useBiharmonicVisc= /* Use biharmonic horiz.  viscosity */
(PID.TID 0000.0001)                   F
(PID.TID 0000.0001)     ;
(PID.TID 0000.0001) useSmag3D = /* Use isotropic 3-D Smagorinsky viscosity */
(PID.TID 0000.0001)                   F
(PID.TID 0000.0001)     ;
(PID.TID 0000.0001) viscAh  =   /* Lateral harmonic viscosity ( m^2/s ) */
(PID.TID 0000.0001)                 5.000000000000000E+04
(PID.TID 0000.0001)     ;
(PID.TID 0000.0001) viscA4  =   /* Lateral biharmonic viscosity ( m^4/s ) */
(PID.TID 0000.0001)                 0.000000000000000E+00
(PID.TID 0000.0001)     ;
(PID.TID 0000.0001) no_slip_sides =  /* Viscous BCs: No-slip sides */
(PID.TID 0000.0001)                   F
(PID.TID 0000.0001)     ;
(PID.TID 0000.0001) sideDragFactor = /* side-drag scaling factor (non-dim) */
(PID.TID 0000.0001)                 2.000000000000000E+00
(PID.TID 0000.0001)     ;
(PID.TID 0000.0001) viscArNr = /* vertical profile of vertical viscosity ( m^2/s )*/
(PID.TID 0000.0001)    23 @  1.930000000000000E-05              /* K =  1: 23 */
(PID.TID 0000.0001)     ;
(PID.TID 0000.0001) no_slip_bottom =  /* Viscous BCs: No-slip bottom */
(PID.TID 0000.0001)                   T
(PID.TID 0000.0001)     ;
(PID.TID 0000.0001) bottomVisc_pCell = /* Partial-cell in bottom Visc. BC */
(PID.TID 0000.0001)                   F
(PID.TID 0000.0001)     ;
(PID.TID 0000.0001) bottomDragLinear = /* linear bottom-drag coefficient ( m/s ) */
(PID.TID 0000.0001)                 0.000000000000000E+00
(PID.TID 0000.0001)     ;
(PID.TID 0000.0001) bottomDragQuadratic = /* quadratic bottom-drag coefficient (-) */
(PID.TID 0000.0001)                 0.000000000000000E+00
(PID.TID 0000.0001)     ;
(PID.TID 0000.0001) selectBotDragQuadr = /* select quadratic bottom drag options */
(PID.TID 0000.0001)                      -1
(PID.TID 0000.0001)     ;
(PID.TID 0000.0001) diffKhT =   /* Laplacian diffusion of heat laterally ( m^2/s ) */
(PID.TID 0000.0001)                 0.000000000000000E+00
(PID.TID 0000.0001)     ;
(PID.TID 0000.0001) diffK4T =   /* Biharmonic diffusion of heat laterally ( m^4/s ) */
(PID.TID 0000.0001)                 0.000000000000000E+00
(PID.TID 0000.0001)     ;
(PID.TID 0000.0001) diffKhS =   /* Laplacian diffusion of salt laterally ( m^2/s ) */
(PID.TID 0000.0001)                 0.000000000000000E+00
(PID.TID 0000.0001)     ;
(PID.TID 0000.0001) diffK4S =   /* Biharmonic diffusion of salt laterally ( m^4/s ) */
(PID.TID 0000.0001)                 0.000000000000000E+00
(PID.TID 0000.0001)     ;
(PID.TID 0000.0001) diffKrNrT = /* vertical profile of vertical diffusion of Temp ( m^2/s )*/
(PID.TID 0000.0001)    23 @  1.460000000000000E-05              /* K =  1: 23 */
(PID.TID 0000.0001)     ;
(PID.TID 0000.0001) diffKrNrS = /* vertical profile of vertical diffusion of Salt ( m^2/s )*/
(PID.TID 0000.0001)    23 @  1.460000000000000E-05              /* K =  1: 23 */
(PID.TID 0000.0001)     ;
(PID.TID 0000.0001) diffKrBL79surf = /* Surface diffusion for Bryan and Lewis 79 ( m^2/s ) */
(PID.TID 0000.0001)                 0.000000000000000E+00
(PID.TID 0000.0001)     ;
(PID.TID 0000.0001) diffKrBL79deep = /* Deep diffusion for Bryan and Lewis 1979 ( m^2/s ) */
(PID.TID 0000.0001)                 0.000000000000000E+00
(PID.TID 0000.0001)     ;
(PID.TID 0000.0001) diffKrBL79scl = /* Depth scale for Bryan and Lewis 1979 ( m ) */
(PID.TID 0000.0001)                 2.000000000000000E+02
(PID.TID 0000.0001)     ;
(PID.TID 0000.0001) diffKrBL79Ho = /* Turning depth for Bryan and Lewis 1979 ( m ) */
(PID.TID 0000.0001)                -2.000000000000000E+03
(PID.TID 0000.0001)     ;
(PID.TID 0000.0001) ivdc_kappa = /* Implicit Vertical Diffusivity for Convection ( m^2/s) */
(PID.TID 0000.0001)                 0.000000000000000E+00
(PID.TID 0000.0001)     ;
(PID.TID 0000.0001) hMixCriteria=  /* Criteria for mixed-layer diagnostic */
(PID.TID 0000.0001)                -8.000000000000000E-01
(PID.TID 0000.0001)     ;
(PID.TID 0000.0001) dRhoSmall =  /* Parameter for mixed-layer diagnostic */
(PID.TID 0000.0001)                 1.000000000000000E-06
(PID.TID 0000.0001)     ;
(PID.TID 0000.0001) hMixSmooth=  /* Smoothing parameter for mixed-layer diagnostic */
(PID.TID 0000.0001)                 0.000000000000000E+00
(PID.TID 0000.0001)     ;
(PID.TID 0000.0001) eosType =  /* Type of Equation of State */
(PID.TID 0000.0001)               'JMD95Z'
(PID.TID 0000.0001)     ;
(PID.TID 0000.0001) eosRefP0 = /* Reference atmospheric pressure for EOS ( Pa ) */
(PID.TID 0000.0001)                 1.013250000000000E+05
(PID.TID 0000.0001)     ;
(PID.TID 0000.0001) selectP_inEOS_Zc = /* select pressure to use in EOS (0,1,2,3) */
(PID.TID 0000.0001)                       0
(PID.TID 0000.0001)     0= -g*rhoConst*z ; 1= pRef (from tRef,sRef); 2= Hyd P ; 3= Hyd+NH P
(PID.TID 0000.0001)     ;
(PID.TID 0000.0001) surf_pRef = /* Surface reference pressure ( Pa ) */
(PID.TID 0000.0001)                 1.013250000000000E+05
(PID.TID 0000.0001)     ;
(PID.TID 0000.0001) HeatCapacity_Cp =  /* Specific heat capacity ( J/kg/K ) */
(PID.TID 0000.0001)                 3.986000000000000E+03
(PID.TID 0000.0001)     ;
(PID.TID 0000.0001) celsius2K = /* 0 degree Celsius converted to Kelvin ( K ) */
(PID.TID 0000.0001)                 2.731600000000000E+02
(PID.TID 0000.0001)     ;
(PID.TID 0000.0001) rhoConst  = /* Reference density (Boussinesq)  ( kg/m^3 ) */
(PID.TID 0000.0001)                 1.027000000000000E+03
(PID.TID 0000.0001)     ;
(PID.TID 0000.0001) rhoFacC = /* normalized Reference density @ cell-Center (-) */
(PID.TID 0000.0001)    23 @  1.000000000000000E+00              /* K =  1: 23 */
(PID.TID 0000.0001)     ;
(PID.TID 0000.0001) rhoFacF = /* normalized Reference density @ W-Interface (-) */
(PID.TID 0000.0001)    24 @  1.000000000000000E+00              /* K =  1: 24 */
(PID.TID 0000.0001)     ;
(PID.TID 0000.0001) rhoConstFresh = /* Fresh-water reference density ( kg/m^3 ) */
(PID.TID 0000.0001)                 9.998000000000000E+02
(PID.TID 0000.0001)     ;
(PID.TID 0000.0001) gravity =   /* Gravitational acceleration ( m/s^2 ) */
(PID.TID 0000.0001)                 9.815600000000000E+00
(PID.TID 0000.0001)     ;
(PID.TID 0000.0001) gBaro =   /* Barotropic gravity ( m/s^2 ) */
(PID.TID 0000.0001)                 9.815600000000000E+00
(PID.TID 0000.0001)     ;
(PID.TID 0000.0001) gravFacC = /* gravity factor (vs surf.) @ cell-Center (-) */
(PID.TID 0000.0001)    23 @  1.000000000000000E+00              /* K =  1: 23 */
(PID.TID 0000.0001)     ;
(PID.TID 0000.0001) gravFacF = /* gravity factor (vs surf.) @ W-Interface (-) */
(PID.TID 0000.0001)    24 @  1.000000000000000E+00              /* K =  1: 24 */
(PID.TID 0000.0001)     ;
(PID.TID 0000.0001) rotationPeriod =   /* Rotation Period ( s ) */
(PID.TID 0000.0001)                 8.616400000000000E+04
(PID.TID 0000.0001)     ;
(PID.TID 0000.0001) omega =   /* Angular velocity ( rad/s ) */
(PID.TID 0000.0001)                 7.292123516990375E-05
(PID.TID 0000.0001)     ;
(PID.TID 0000.0001) f0 =   /* Reference coriolis parameter ( 1/s ) */
(PID.TID 0000.0001)                 1.000000000000000E-04
(PID.TID 0000.0001)     ;
(PID.TID 0000.0001) beta =   /* Beta ( 1/(m.s) ) */
(PID.TID 0000.0001)                 9.999999999999999E-12
(PID.TID 0000.0001)     ;
(PID.TID 0000.0001) fPrime =   /* Second coriolis parameter ( 1/s ) */
(PID.TID 0000.0001)                 0.000000000000000E+00
(PID.TID 0000.0001)     ;
(PID.TID 0000.0001) rigidLid =   /* Rigid lid on/off flag */
(PID.TID 0000.0001)                   F
(PID.TID 0000.0001)     ;
(PID.TID 0000.0001) implicitFreeSurface =   /* Implicit free surface on/off flag */
(PID.TID 0000.0001)                   T
(PID.TID 0000.0001)     ;
(PID.TID 0000.0001) freeSurfFac =   /* Implicit free surface factor */
(PID.TID 0000.0001)                 1.000000000000000E+00
(PID.TID 0000.0001)     ;
(PID.TID 0000.0001) implicSurfPress =  /* Surface Pressure implicit factor (0-1)*/
(PID.TID 0000.0001)                 1.000000000000000E+00
(PID.TID 0000.0001)     ;
(PID.TID 0000.0001) implicDiv2DFlow =  /* Barot. Flow Div. implicit factor (0-1)*/
(PID.TID 0000.0001)                 1.000000000000000E+00
(PID.TID 0000.0001)     ;
(PID.TID 0000.0001) uniformLin_PhiSurf = /* use uniform Bo_surf on/off flag*/
(PID.TID 0000.0001)                   T
(PID.TID 0000.0001)     ;
(PID.TID 0000.0001) uniformFreeSurfLev = /* free-surface level-index is uniform */
(PID.TID 0000.0001)                   T
(PID.TID 0000.0001)     ;
(PID.TID 0000.0001) hFacMin =   /* minimum partial cell factor (hFac) */
(PID.TID 0000.0001)                 1.000000000000000E+00
(PID.TID 0000.0001)     ;
(PID.TID 0000.0001) hFacMinDr = /* minimum partial cell thickness ( m) */
(PID.TID 0000.0001)                 0.000000000000000E+00
(PID.TID 0000.0001)     ;
(PID.TID 0000.0001) exactConserv =  /* Exact Volume Conservation on/off flag*/
(PID.TID 0000.0001)                   F
(PID.TID 0000.0001)     ;
(PID.TID 0000.0001) linFSConserveTr = /* Tracer correction for Lin Free Surface on/off flag*/
(PID.TID 0000.0001)                   F
(PID.TID 0000.0001)     ;
(PID.TID 0000.0001) nonlinFreeSurf = /* Non-linear Free Surf. options (-1,0,1,2,3)*/
(PID.TID 0000.0001)                       0
(PID.TID 0000.0001)      -1,0= Off ; 1,2,3= On, 2=+rescale gU,gV, 3=+update cg2d solv.
(PID.TID 0000.0001)     ;
(PID.TID 0000.0001) hFacInf =   /* lower threshold for hFac (nonlinFreeSurf only)*/
(PID.TID 0000.0001)                 2.000000000000000E-01
(PID.TID 0000.0001)     ;
(PID.TID 0000.0001) hFacSup =   /* upper threshold for hFac (nonlinFreeSurf only)*/
(PID.TID 0000.0001)                 2.000000000000000E+00
(PID.TID 0000.0001)     ;
(PID.TID 0000.0001) select_rStar = /* r* Vertical coord. options (=0 r coord.; >0 uses r*)*/
(PID.TID 0000.0001)                       0
(PID.TID 0000.0001)     ;
(PID.TID 0000.0001) useRealFreshWaterFlux = /* Real Fresh Water Flux on/off flag*/
(PID.TID 0000.0001)                   F
(PID.TID 0000.0001)     ;
(PID.TID 0000.0001) temp_EvPrRn = /* Temp. of Evap/Prec/R (UNSET=use local T)(oC)*/
(PID.TID 0000.0001)                 1.234567000000000E+05
(PID.TID 0000.0001)     ;
(PID.TID 0000.0001) salt_EvPrRn = /* Salin. of Evap/Prec/R (UNSET=use local S)(psu)*/
(PID.TID 0000.0001)                 0.000000000000000E+00
(PID.TID 0000.0001)     ;
(PID.TID 0000.0001) selectAddFluid = /* option for mass source/sink of fluid (=0: off) */
(PID.TID 0000.0001)                       0
(PID.TID 0000.0001)     ;
(PID.TID 0000.0001) temp_addMass = /* Temp. of addMass array (UNSET=use local T)(oC)*/
(PID.TID 0000.0001)                 1.234567000000000E+05
(PID.TID 0000.0001)     ;
(PID.TID 0000.0001) salt_addMass = /* Salin. of addMass array (UNSET=use local S)(psu)*/
(PID.TID 0000.0001)                 0.000000000000000E+00
(PID.TID 0000.0001)     ;
(PID.TID 0000.0001) convertFW2Salt = /* convert F.W. Flux to Salt Flux (-1=use local S)(psu)*/
(PID.TID 0000.0001)                -1.000000000000000E+00
(PID.TID 0000.0001)     ;
(PID.TID 0000.0001) use3Dsolver = /* use 3-D pressure solver on/off flag */
(PID.TID 0000.0001)                   F
(PID.TID 0000.0001)     ;
(PID.TID 0000.0001) nonHydrostatic =  /* Non-Hydrostatic on/off flag */
(PID.TID 0000.0001)                   F
(PID.TID 0000.0001)     ;
(PID.TID 0000.0001) nh_Am2 = /* Non-Hydrostatic terms scaling factor */
(PID.TID 0000.0001)                 1.000000000000000E+00
(PID.TID 0000.0001)     ;
(PID.TID 0000.0001) implicitNHPress = /* Non-Hyd Pressure implicit factor (0-1)*/
(PID.TID 0000.0001)                 1.000000000000000E+00
(PID.TID 0000.0001)     ;
(PID.TID 0000.0001) selectNHfreeSurf = /* Non-Hyd (free-)Surface option */
(PID.TID 0000.0001)                       0
(PID.TID 0000.0001)     ;
(PID.TID 0000.0001) quasiHydrostatic = /* Quasi-Hydrostatic on/off flag */
(PID.TID 0000.0001)                   F
(PID.TID 0000.0001)     ;
(PID.TID 0000.0001) calc_wVelocity = /* vertical velocity calculation on/off flag */
(PID.TID 0000.0001)                   T
(PID.TID 0000.0001)     ;
(PID.TID 0000.0001) momStepping =  /* Momentum equation on/off flag */
(PID.TID 0000.0001)                   T
(PID.TID 0000.0001)     ;
(PID.TID 0000.0001) vectorInvariantMomentum= /* Vector-Invariant Momentum on/off */
(PID.TID 0000.0001)                   F
(PID.TID 0000.0001)     ;
(PID.TID 0000.0001) momAdvection =  /* Momentum advection on/off flag */
(PID.TID 0000.0001)                   T
(PID.TID 0000.0001)     ;
(PID.TID 0000.0001) momViscosity =  /* Momentum viscosity on/off flag */
(PID.TID 0000.0001)                   T
(PID.TID 0000.0001)     ;
(PID.TID 0000.0001) momImplVertAdv= /* Momentum implicit vert. advection on/off*/
(PID.TID 0000.0001)                   F
(PID.TID 0000.0001)     ;
(PID.TID 0000.0001) implicitViscosity = /* Implicit viscosity on/off flag */
(PID.TID 0000.0001)                   T
(PID.TID 0000.0001)     ;
(PID.TID 0000.0001) selectImplicitDrag= /* Implicit bot Drag options (0,1,2)*/
(PID.TID 0000.0001)                       0
(PID.TID 0000.0001)     0= Expl. ; 1= Impl. on provis. Vel ; 2= Fully Impl (with surf.P)
(PID.TID 0000.0001)     ;
(PID.TID 0000.0001) metricTerms =  /* metric-Terms on/off flag */
(PID.TID 0000.0001)                   T
(PID.TID 0000.0001)     ;
(PID.TID 0000.0001) useNHMTerms = /* Non-Hydrostatic Metric-Terms on/off */
(PID.TID 0000.0001)                   F
(PID.TID 0000.0001)     ;
(PID.TID 0000.0001) selectCoriMap = /* Coriolis Map options (0,1,2,3)*/
(PID.TID 0000.0001)                       2
(PID.TID 0000.0001)     0= f-Plane ; 1= Beta-Plane ; 2= Spherical ; 3= read from file
(PID.TID 0000.0001)     ;
(PID.TID 0000.0001) use3dCoriolis = /* 3-D Coriolis on/off flag */
(PID.TID 0000.0001)                   F
(PID.TID 0000.0001)     ;
(PID.TID 0000.0001) useCoriolis =  /* Coriolis on/off flag */
(PID.TID 0000.0001)                   T
(PID.TID 0000.0001)     ;
(PID.TID 0000.0001) useCDscheme =  /* CD scheme on/off flag */
(PID.TID 0000.0001)                   F
(PID.TID 0000.0001)     ;
(PID.TID 0000.0001) selectCoriScheme= /* Scheme selector for Coriolis-Term */
(PID.TID 0000.0001)                       0
(PID.TID 0000.0001)    = 0 : original discretization (simple averaging, no hFac)
(PID.TID 0000.0001)    = 1 : Wet-point averaging (Jamar & Ozer 1986)
(PID.TID 0000.0001)    = 2 : energy conserving scheme (no hFac weight)
(PID.TID 0000.0001)    = 3 : energy conserving scheme using Wet-point averaging
(PID.TID 0000.0001)     ;
(PID.TID 0000.0001) momForcing =  /* Momentum forcing on/off flag */
(PID.TID 0000.0001)                   T
(PID.TID 0000.0001)     ;
(PID.TID 0000.0001) momTidalForcing = /* Momentum Tidal forcing on/off flag */
(PID.TID 0000.0001)                   T
(PID.TID 0000.0001)     ;
(PID.TID 0000.0001) momPressureForcing =  /* Momentum pressure term on/off flag */
(PID.TID 0000.0001)                   T
(PID.TID 0000.0001)     ;
(PID.TID 0000.0001) implicitIntGravWave= /* Implicit Internal Gravity Wave flag */
(PID.TID 0000.0001)                   F
(PID.TID 0000.0001)     ;
(PID.TID 0000.0001) staggerTimeStep =    /* Stagger time stepping on/off flag */
(PID.TID 0000.0001)                   T
(PID.TID 0000.0001)     ;
(PID.TID 0000.0001) doResetHFactors = /* reset thickness factors @ each time-step */
(PID.TID 0000.0001)                   F
(PID.TID 0000.0001)     ;
(PID.TID 0000.0001) multiDimAdvection =  /* enable/disable Multi-Dim Advection */
(PID.TID 0000.0001)                   T
(PID.TID 0000.0001)     ;
(PID.TID 0000.0001) useMultiDimAdvec =   /* Multi-Dim Advection is/is-not used */
(PID.TID 0000.0001)                   T
(PID.TID 0000.0001)     ;
(PID.TID 0000.0001) implicitDiffusion = /* Implicit Diffusion on/off flag */
(PID.TID 0000.0001)                   T
(PID.TID 0000.0001)     ;
(PID.TID 0000.0001) tempStepping =  /* Temperature equation on/off flag */
(PID.TID 0000.0001)                   T
(PID.TID 0000.0001)     ;
(PID.TID 0000.0001) tempAdvection = /* Temperature advection on/off flag */
(PID.TID 0000.0001)                   T
(PID.TID 0000.0001)     ;
(PID.TID 0000.0001) tempImplVertAdv = /* Temp. implicit vert. advection on/off */
(PID.TID 0000.0001)                   F
(PID.TID 0000.0001)     ;
(PID.TID 0000.0001) tempForcing  =  /* Temperature forcing on/off flag */
(PID.TID 0000.0001)                   T
(PID.TID 0000.0001)     ;
(PID.TID 0000.0001) doThetaClimRelax = /* apply SST relaxation on/off flag */
(PID.TID 0000.0001)                   F
(PID.TID 0000.0001)     ;
(PID.TID 0000.0001) tempIsActiveTr = /* Temp. is a dynamically Active Tracer */
(PID.TID 0000.0001)                   T
(PID.TID 0000.0001)     ;
(PID.TID 0000.0001) saltStepping =  /* Salinity equation on/off flag */
(PID.TID 0000.0001)                   T
(PID.TID 0000.0001)     ;
(PID.TID 0000.0001) saltAdvection = /* Salinity advection on/off flag */
(PID.TID 0000.0001)                   T
(PID.TID 0000.0001)     ;
(PID.TID 0000.0001) saltImplVertAdv = /* Sali. implicit vert. advection on/off */
(PID.TID 0000.0001)                   F
(PID.TID 0000.0001)     ;
(PID.TID 0000.0001) saltForcing  =  /* Salinity forcing on/off flag */
(PID.TID 0000.0001)                   T
(PID.TID 0000.0001)     ;
(PID.TID 0000.0001) doSaltClimRelax = /* apply SSS relaxation on/off flag */
(PID.TID 0000.0001)                   T
(PID.TID 0000.0001)     ;
(PID.TID 0000.0001) saltIsActiveTr = /* Salt  is a dynamically Active Tracer */
(PID.TID 0000.0001)                   T
(PID.TID 0000.0001)     ;
(PID.TID 0000.0001)  readBinaryPrec = /* Precision used for reading binary files */
(PID.TID 0000.0001)                      32
(PID.TID 0000.0001)     ;
(PID.TID 0000.0001) writeBinaryPrec = /* Precision used for writing binary files */
(PID.TID 0000.0001)                      32
(PID.TID 0000.0001)     ;
(PID.TID 0000.0001)  rwSuffixType =   /* select format of mds file suffix */
(PID.TID 0000.0001)                       0
(PID.TID 0000.0001)    = 0 : myIter (I10.10) ;   = 1 : 100*myTime (100th sec) ;
(PID.TID 0000.0001)    = 2 : myTime (seconds);   = 3 : myTime/360 (10th of hr);
(PID.TID 0000.0001)    = 4 : myTime/3600 (hours)
(PID.TID 0000.0001)     ;
(PID.TID 0000.0001)  globalFiles = /* write "global" (=not per tile) files */
(PID.TID 0000.0001)                   F
(PID.TID 0000.0001)     ;
(PID.TID 0000.0001)  useSingleCpuIO = /* only master MPI process does I/O */
(PID.TID 0000.0001)                   T
(PID.TID 0000.0001)     ;
(PID.TID 0000.0001)  useSingleCpuInput = /* only master process reads input */
(PID.TID 0000.0001)                   T
(PID.TID 0000.0001)     ;
(PID.TID 0000.0001) /* debLev[*]  : level of debug & auxiliary message printing */
(PID.TID 0000.0001) debLevZero =  0 ; /* level of disabled aux. msg printing */
(PID.TID 0000.0001)    debLevA =  1 ; /* level of minimum  aux. msg printing */
(PID.TID 0000.0001)    debLevB =  2 ; /* level of low aux. print (report read-file opening)*/
(PID.TID 0000.0001)    debLevC =  3 ; /* level of moderate debug prt (most pkgs debug msg) */
(PID.TID 0000.0001)    debLevD =  4 ; /* level of enhanced debug prt (add DEBUG_STATS prt) */
(PID.TID 0000.0001)    debLevE =  5 ; /* level of extensive debug printing */
(PID.TID 0000.0001) debugLevel =  /* select debug printing level */
(PID.TID 0000.0001)                       2
(PID.TID 0000.0001)     ;
(PID.TID 0000.0001)  plotLevel =  /* select PLOT_FIELD printing level */
(PID.TID 0000.0001)                       2
(PID.TID 0000.0001)     ;
(PID.TID 0000.0001) //
(PID.TID 0000.0001) // Elliptic solver(s) paramters ( PARM02 in namelist )
(PID.TID 0000.0001) //
(PID.TID 0000.0001) cg2dMaxIters =   /* Upper limit on 2d con. grad iterations  */
(PID.TID 0000.0001)                     500
(PID.TID 0000.0001)     ;
(PID.TID 0000.0001) cg2dChkResFreq =   /* 2d con. grad convergence test frequency */
(PID.TID 0000.0001)                       1
(PID.TID 0000.0001)     ;
(PID.TID 0000.0001) cg2dUseMinResSol= /* use cg2d last-iter(=0) / min-resid.(=1) solution */
(PID.TID 0000.0001)                       0
(PID.TID 0000.0001)     ;
(PID.TID 0000.0001) cg2dTargetResidual =   /* 2d con. grad target residual  */
(PID.TID 0000.0001)                 1.000000000000000E-12
(PID.TID 0000.0001)     ;
(PID.TID 0000.0001) cg2dTargetResWunit =   /* CG2d target residual [W units] */
(PID.TID 0000.0001)                -1.000000000000000E+00
(PID.TID 0000.0001)     ;
(PID.TID 0000.0001) cg2dPreCondFreq =   /* Freq. for updating cg2d preconditioner */
(PID.TID 0000.0001)                       1
(PID.TID 0000.0001)     ;
(PID.TID 0000.0001) useSRCGSolver =  /* use single reduction CG solver(s) */
(PID.TID 0000.0001)                   F
(PID.TID 0000.0001)     ;
(PID.TID 0000.0001) printResidualFreq = /* Freq. for printing CG residual */
(PID.TID 0000.0001)                       0
(PID.TID 0000.0001)     ;
(PID.TID 0000.0001) //
(PID.TID 0000.0001) // Time stepping paramters ( PARM03 in namelist )
(PID.TID 0000.0001) //
(PID.TID 0000.0001) deltaTMom =   /* Momentum equation timestep ( s ) */
(PID.TID 0000.0001)                 3.600000000000000E+03
(PID.TID 0000.0001)     ;
(PID.TID 0000.0001) deltaTFreeSurf = /* FreeSurface equation timestep ( s ) */
(PID.TID 0000.0001)                 3.600000000000000E+03
(PID.TID 0000.0001)     ;
(PID.TID 0000.0001) dTtracerLev =  /* Tracer equation timestep ( s ) */
(PID.TID 0000.0001)    23 @  3.600000000000000E+03              /* K =  1: 23 */
(PID.TID 0000.0001)     ;
(PID.TID 0000.0001) deltaTClock  =   /* Model clock timestep ( s ) */
(PID.TID 0000.0001)                 3.600000000000000E+03
(PID.TID 0000.0001)     ;
(PID.TID 0000.0001) cAdjFreq =   /* Convective adjustment interval ( s ) */
(PID.TID 0000.0001)                 0.000000000000000E+00
(PID.TID 0000.0001)     ;
(PID.TID 0000.0001) momForcingOutAB = /* =1: take Momentum Forcing out of Adams-Bash. stepping */
(PID.TID 0000.0001)                       1
(PID.TID 0000.0001)     ;
(PID.TID 0000.0001) tracForcingOutAB = /* =1: take T,S,pTr Forcing out of Adams-Bash. stepping */
(PID.TID 0000.0001)                       1
(PID.TID 0000.0001)     ;
(PID.TID 0000.0001) momDissip_In_AB = /* put Dissipation Tendency in Adams-Bash. stepping */
(PID.TID 0000.0001)                   T
(PID.TID 0000.0001)     ;
(PID.TID 0000.0001) doAB_onGtGs = /* apply AB on Tendencies (rather than on T,S)*/
(PID.TID 0000.0001)                   T
(PID.TID 0000.0001)     ;
(PID.TID 0000.0001) abEps =   /* Adams-Bashforth-2 stabilizing weight */
(PID.TID 0000.0001)                 1.000000000000000E-01
(PID.TID 0000.0001)     ;
(PID.TID 0000.0001) applyExchUV_early = /* Apply EXCH to U,V earlier in time-step */
(PID.TID 0000.0001)                   F
(PID.TID 0000.0001)     ;
(PID.TID 0000.0001) pickupStrictlyMatch= /* stop if pickup do not strictly match */
(PID.TID 0000.0001)                   F
(PID.TID 0000.0001)     ;
(PID.TID 0000.0001) nIter0   =   /* Run starting timestep number */
(PID.TID 0000.0001)                       1
(PID.TID 0000.0001)     ;
(PID.TID 0000.0001) nTimeSteps = /* Number of timesteps */
(PID.TID 0000.0001)                       9
(PID.TID 0000.0001)     ;
(PID.TID 0000.0001) nEndIter =   /* Run ending timestep number */
(PID.TID 0000.0001)                      10
(PID.TID 0000.0001)     ;
(PID.TID 0000.0001) baseTime =   /* Model base time ( s ) */
(PID.TID 0000.0001)                 0.000000000000000E+00
(PID.TID 0000.0001)     ;
(PID.TID 0000.0001) startTime =  /* Run start time ( s ) */
(PID.TID 0000.0001)                 3.600000000000000E+03
(PID.TID 0000.0001)     ;
(PID.TID 0000.0001) endTime  =   /* Integration ending time ( s ) */
(PID.TID 0000.0001)                 3.600000000000000E+04
(PID.TID 0000.0001)     ;
(PID.TID 0000.0001) pChkPtFreq = /* Permanent restart/pickup file interval ( s ) */
(PID.TID 0000.0001)                 3.600000000000000E+04
(PID.TID 0000.0001)     ;
(PID.TID 0000.0001) chkPtFreq  = /* Rolling restart/pickup file interval ( s ) */
(PID.TID 0000.0001)                 0.000000000000000E+00
(PID.TID 0000.0001)     ;
(PID.TID 0000.0001) pickup_write_mdsio =   /* Model IO flag. */
(PID.TID 0000.0001)                   T
(PID.TID 0000.0001)     ;
(PID.TID 0000.0001) pickup_read_mdsio =   /* Model IO flag. */
(PID.TID 0000.0001)                   T
(PID.TID 0000.0001)     ;
(PID.TID 0000.0001) pickup_write_mnc =   /* Model IO flag. */
(PID.TID 0000.0001)                   F
(PID.TID 0000.0001)     ;
(PID.TID 0000.0001) pickup_read_mnc =   /* Model IO flag. */
(PID.TID 0000.0001)                   F
(PID.TID 0000.0001)     ;
(PID.TID 0000.0001) writePickupAtEnd =   /* Model IO flag. */
(PID.TID 0000.0001)                   T
(PID.TID 0000.0001)     ;
(PID.TID 0000.0001) dumpFreq =   /* Model state write out interval ( s ). */
(PID.TID 0000.0001)                 0.000000000000000E+00
(PID.TID 0000.0001)     ;
(PID.TID 0000.0001) dumpInitAndLast= /* write out Initial & Last iter. model state */
(PID.TID 0000.0001)                   T
(PID.TID 0000.0001)     ;
(PID.TID 0000.0001) snapshot_mdsio =   /* Model IO flag. */
(PID.TID 0000.0001)                   T
(PID.TID 0000.0001)     ;
(PID.TID 0000.0001) snapshot_mnc =   /* Model IO flag. */
(PID.TID 0000.0001)                   F
(PID.TID 0000.0001)     ;
(PID.TID 0000.0001) monitorFreq =   /* Monitor output interval ( s ). */
(PID.TID 0000.0001)                 1.000000000000000E+00
(PID.TID 0000.0001)     ;
(PID.TID 0000.0001) monitorSelect = /* select group of variables to monitor */
(PID.TID 0000.0001)                       3
(PID.TID 0000.0001)     ;
(PID.TID 0000.0001) monitor_stdio =   /* Model IO flag. */
(PID.TID 0000.0001)                   T
(PID.TID 0000.0001)     ;
(PID.TID 0000.0001) monitor_mnc =   /* Model IO flag. */
(PID.TID 0000.0001)                   F
(PID.TID 0000.0001)     ;
(PID.TID 0000.0001) externForcingPeriod =   /* forcing period (s) */
(PID.TID 0000.0001)                 0.000000000000000E+00
(PID.TID 0000.0001)     ;
(PID.TID 0000.0001) externForcingCycle =   /* period of the cyle (s). */
(PID.TID 0000.0001)                 0.000000000000000E+00
(PID.TID 0000.0001)     ;
(PID.TID 0000.0001) tauThetaClimRelax =   /* relaxation time scale (s) */
(PID.TID 0000.0001)                 0.000000000000000E+00
(PID.TID 0000.0001)     ;
(PID.TID 0000.0001) tauSaltClimRelax =   /* relaxation time scale (s) */
(PID.TID 0000.0001)                 4.142330000000000E+06
(PID.TID 0000.0001)     ;
(PID.TID 0000.0001) latBandClimRelax =   /* max. Lat. where relaxation */
(PID.TID 0000.0001)                 1.800000000000000E+02
(PID.TID 0000.0001)     ;
(PID.TID 0000.0001) //
(PID.TID 0000.0001) // Gridding paramters ( PARM04 in namelist )
(PID.TID 0000.0001) //
(PID.TID 0000.0001) usingCartesianGrid = /* Cartesian coordinates flag ( True/False ) */
(PID.TID 0000.0001)                   F
(PID.TID 0000.0001)     ;
(PID.TID 0000.0001) usingCylindricalGrid = /* Cylindrical coordinates flag ( True/False ) */
(PID.TID 0000.0001)                   F
(PID.TID 0000.0001)     ;
(PID.TID 0000.0001) usingSphericalPolarGrid = /* Spherical coordinates flag ( True/False ) */
(PID.TID 0000.0001)                   T
(PID.TID 0000.0001)     ;
(PID.TID 0000.0001) usingCurvilinearGrid = /* Curvilinear coordinates flag ( True/False ) */
(PID.TID 0000.0001)                   F
(PID.TID 0000.0001)     ;
(PID.TID 0000.0001) useMin4hFacEdges = /* set hFacW,S as minimum of adjacent hFacC factor */
(PID.TID 0000.0001)                   F
(PID.TID 0000.0001)     ;
(PID.TID 0000.0001) interViscAr_pCell = /* account for partial-cell in interior vert. viscosity */
(PID.TID 0000.0001)                   F
(PID.TID 0000.0001)     ;
(PID.TID 0000.0001) interDiffKr_pCell = /* account for partial-cell in interior vert. diffusion */
(PID.TID 0000.0001)                   F
(PID.TID 0000.0001)     ;
(PID.TID 0000.0001) pCellMix_select = /* option to enhance mixing near surface & bottom */
(PID.TID 0000.0001)                       0
(PID.TID 0000.0001)     ;
(PID.TID 0000.0001) selectSigmaCoord = /* Hybrid-Sigma Vert. Coordinate option */
(PID.TID 0000.0001)                       0
(PID.TID 0000.0001)     ;
(PID.TID 0000.0001) rSigmaBnd = /* r/sigma transition ( units of r ==  m ) */
(PID.TID 0000.0001)                 1.234567000000000E+05
(PID.TID 0000.0001)     ;
(PID.TID 0000.0001) rkSign =   /* index orientation relative to vertical coordinate */
(PID.TID 0000.0001)                -1.000000000000000E+00
(PID.TID 0000.0001)     ;
(PID.TID 0000.0001) gravitySign = /* gravity orientation relative to vertical coordinate */
(PID.TID 0000.0001)                -1.000000000000000E+00
(PID.TID 0000.0001)     ;
(PID.TID 0000.0001) seaLev_Z =  /* reference height of sea-level [m] */
(PID.TID 0000.0001)                 0.000000000000000E+00
(PID.TID 0000.0001)     ;
(PID.TID 0000.0001) top_Pres =  /* reference pressure at the top [Pa] */
(PID.TID 0000.0001)                 0.000000000000000E+00
(PID.TID 0000.0001)     ;
(PID.TID 0000.0001) mass2rUnit = /* convert mass per unit area [kg/m2] to r-units [m] */
(PID.TID 0000.0001)                 9.737098344693282E-04
(PID.TID 0000.0001)     ;
(PID.TID 0000.0001) rUnit2mass = /* convert r-units [m] to mass per unit area [kg/m2] */
(PID.TID 0000.0001)                 1.027000000000000E+03
(PID.TID 0000.0001)     ;
(PID.TID 0000.0001) drC =   /* C spacing ( units of r ) */
(PID.TID 0000.0001)                 5.000000000000000E+00,      /* K =  1 */
(PID.TID 0000.0001)                 1.000000000000000E+01,      /* K =  2 */
(PID.TID 0000.0001)                 1.250000000000000E+01,      /* K =  3 */
(PID.TID 0000.0001)                 1.750000000000000E+01,      /* K =  4 */
(PID.TID 0000.0001)                 2.000000000000000E+01,      /* K =  5 */
(PID.TID 0000.0001)                 2.250000000000000E+01,      /* K =  6 */
(PID.TID 0000.0001)                 3.000000000000000E+01,      /* K =  7 */
(PID.TID 0000.0001)                 4.250000000000000E+01,      /* K =  8 */
(PID.TID 0000.0001)                 6.250000000000000E+01,      /* K =  9 */
(PID.TID 0000.0001)                 8.750000000000000E+01,      /* K = 10 */
(PID.TID 0000.0001)                 1.250000000000000E+02,      /* K = 11 */
(PID.TID 0000.0001)                 1.750000000000000E+02,      /* K = 12 */
(PID.TID 0000.0001)                 2.375000000000000E+02,      /* K = 13 */
(PID.TID 0000.0001)                 3.125000000000000E+02,      /* K = 14 */
(PID.TID 0000.0001)                 3.825000000000000E+02,      /* K = 15 */
(PID.TID 0000.0001)                 4.325000000000000E+02,      /* K = 16 */
(PID.TID 0000.0001)                 4.750000000000000E+02,      /* K = 17 */
(PID.TID 0000.0001)     6 @  5.000000000000000E+02,             /* K = 18: 23 */
(PID.TID 0000.0001)                 2.500000000000000E+02       /* K = 24 */
(PID.TID 0000.0001)     ;
(PID.TID 0000.0001) drF =   /* W spacing ( units of r ) */
(PID.TID 0000.0001)     2 @  1.000000000000000E+01,             /* K =  1:  2 */
(PID.TID 0000.0001)                 1.500000000000000E+01,      /* K =  3 */
(PID.TID 0000.0001)     2 @  2.000000000000000E+01,             /* K =  4:  5 */
(PID.TID 0000.0001)                 2.500000000000000E+01,      /* K =  6 */
(PID.TID 0000.0001)                 3.500000000000000E+01,      /* K =  7 */
(PID.TID 0000.0001)                 5.000000000000000E+01,      /* K =  8 */
(PID.TID 0000.0001)                 7.500000000000000E+01,      /* K =  9 */
(PID.TID 0000.0001)                 1.000000000000000E+02,      /* K = 10 */
(PID.TID 0000.0001)                 1.500000000000000E+02,      /* K = 11 */
(PID.TID 0000.0001)                 2.000000000000000E+02,      /* K = 12 */
(PID.TID 0000.0001)                 2.750000000000000E+02,      /* K = 13 */
(PID.TID 0000.0001)                 3.500000000000000E+02,      /* K = 14 */
(PID.TID 0000.0001)                 4.150000000000000E+02,      /* K = 15 */
(PID.TID 0000.0001)                 4.500000000000000E+02,      /* K = 16 */
(PID.TID 0000.0001)     7 @  5.000000000000000E+02              /* K = 17: 23 */
(PID.TID 0000.0001)     ;
(PID.TID 0000.0001) delX = /* U spacing ( m - cartesian, degrees - spherical ) */
(PID.TID 0000.0001)    20 @  2.000000000000000E+00              /* I =  1: 20 */
(PID.TID 0000.0001)     ;
(PID.TID 0000.0001) delY = /* V spacing ( m - cartesian, degrees - spherical ) */
(PID.TID 0000.0001)    16 @  2.000000000000000E+00              /* J =  1: 16 */
(PID.TID 0000.0001)     ;
(PID.TID 0000.0001) xgOrigin = /* X-axis origin of West  edge (cartesian: m, lat-lon: deg) */
(PID.TID 0000.0001)                 2.800000000000000E+02
(PID.TID 0000.0001)     ;
(PID.TID 0000.0001) ygOrigin = /* Y-axis origin of South edge (cartesian: m, lat-lon: deg) */
(PID.TID 0000.0001)                 4.600000000000000E+01
(PID.TID 0000.0001)     ;
(PID.TID 0000.0001) rSphere =  /* Radius ( ignored - cartesian, m - spherical ) */
(PID.TID 0000.0001)                 6.371000000000000E+06
(PID.TID 0000.0001)     ;
(PID.TID 0000.0001) deepAtmosphere = /* Deep/Shallow Atmosphere flag (True/False) */
(PID.TID 0000.0001)                   F
(PID.TID 0000.0001)     ;
(PID.TID 0000.0001) xC =  /* xC(:,1,:,1) : P-point X coord ( deg. or m if cartesian) */
(PID.TID 0000.0001)                 2.810000000000000E+02,      /* I =  1 */
(PID.TID 0000.0001)                 2.830000000000000E+02,      /* I =  2 */
(PID.TID 0000.0001)                 2.850000000000000E+02,      /* I =  3 */
(PID.TID 0000.0001)                 2.870000000000000E+02,      /* I =  4 */
(PID.TID 0000.0001)                 2.890000000000000E+02,      /* I =  5 */
(PID.TID 0000.0001)                 2.910000000000000E+02,      /* I =  6 */
(PID.TID 0000.0001)                 2.930000000000000E+02,      /* I =  7 */
(PID.TID 0000.0001)                 2.950000000000000E+02,      /* I =  8 */
(PID.TID 0000.0001)                 2.970000000000000E+02,      /* I =  9 */
(PID.TID 0000.0001)                 2.990000000000000E+02,      /* I = 10 */
(PID.TID 0000.0001)                 3.010000000000000E+02,      /* I = 11 */
(PID.TID 0000.0001)                 3.030000000000000E+02,      /* I = 12 */
(PID.TID 0000.0001)                 3.050000000000000E+02,      /* I = 13 */
(PID.TID 0000.0001)                 3.070000000000000E+02,      /* I = 14 */
(PID.TID 0000.0001)                 3.090000000000000E+02,      /* I = 15 */
(PID.TID 0000.0001)                 3.110000000000000E+02,      /* I = 16 */
(PID.TID 0000.0001)                 3.130000000000000E+02,      /* I = 17 */
(PID.TID 0000.0001)                 3.150000000000000E+02,      /* I = 18 */
(PID.TID 0000.0001)                 3.170000000000000E+02,      /* I = 19 */
(PID.TID 0000.0001)                 3.190000000000000E+02       /* I = 20 */
(PID.TID 0000.0001)     ;
(PID.TID 0000.0001) yC =  /* yC(1,:,1,:) : P-point Y coord ( deg. or m if cartesian) */
(PID.TID 0000.0001)                 4.700000000000000E+01,      /* J =  1 */
(PID.TID 0000.0001)                 4.900000000000000E+01,      /* J =  2 */
(PID.TID 0000.0001)                 5.100000000000000E+01,      /* J =  3 */
(PID.TID 0000.0001)                 5.300000000000000E+01,      /* J =  4 */
(PID.TID 0000.0001)                 5.500000000000000E+01,      /* J =  5 */
(PID.TID 0000.0001)                 5.700000000000000E+01,      /* J =  6 */
(PID.TID 0000.0001)                 5.900000000000000E+01,      /* J =  7 */
(PID.TID 0000.0001)                 6.100000000000000E+01,      /* J =  8 */
(PID.TID 0000.0001)                 6.300000000000000E+01,      /* J =  9 */
(PID.TID 0000.0001)                 6.500000000000000E+01,      /* J = 10 */
(PID.TID 0000.0001)                 6.700000000000000E+01,      /* J = 11 */
(PID.TID 0000.0001)                 6.900000000000000E+01,      /* J = 12 */
(PID.TID 0000.0001)                 7.100000000000000E+01,      /* J = 13 */
(PID.TID 0000.0001)                 7.300000000000000E+01,      /* J = 14 */
(PID.TID 0000.0001)                 7.500000000000000E+01,      /* J = 15 */
(PID.TID 0000.0001)                 7.700000000000000E+01       /* J = 16 */
(PID.TID 0000.0001)     ;
(PID.TID 0000.0001) rcoord = /* P-point R coordinate (  units of r ) */
(PID.TID 0000.0001)                -5.000000000000000E+00,      /* K =  1 */
(PID.TID 0000.0001)                -1.500000000000000E+01,      /* K =  2 */
(PID.TID 0000.0001)                -2.750000000000000E+01,      /* K =  3 */
(PID.TID 0000.0001)                -4.500000000000000E+01,      /* K =  4 */
(PID.TID 0000.0001)                -6.500000000000000E+01,      /* K =  5 */
(PID.TID 0000.0001)                -8.750000000000000E+01,      /* K =  6 */
(PID.TID 0000.0001)                -1.175000000000000E+02,      /* K =  7 */
(PID.TID 0000.0001)                -1.600000000000000E+02,      /* K =  8 */
(PID.TID 0000.0001)                -2.225000000000000E+02,      /* K =  9 */
(PID.TID 0000.0001)                -3.100000000000000E+02,      /* K = 10 */
(PID.TID 0000.0001)                -4.350000000000000E+02,      /* K = 11 */
(PID.TID 0000.0001)                -6.100000000000000E+02,      /* K = 12 */
(PID.TID 0000.0001)                -8.475000000000000E+02,      /* K = 13 */
(PID.TID 0000.0001)                -1.160000000000000E+03,      /* K = 14 */
(PID.TID 0000.0001)                -1.542500000000000E+03,      /* K = 15 */
(PID.TID 0000.0001)                -1.975000000000000E+03,      /* K = 16 */
(PID.TID 0000.0001)                -2.450000000000000E+03,      /* K = 17 */
(PID.TID 0000.0001)                -2.950000000000000E+03,      /* K = 18 */
(PID.TID 0000.0001)                -3.450000000000000E+03,      /* K = 19 */
(PID.TID 0000.0001)                -3.950000000000000E+03,      /* K = 20 */
(PID.TID 0000.0001)                -4.450000000000000E+03,      /* K = 21 */
(PID.TID 0000.0001)                -4.950000000000000E+03,      /* K = 22 */
(PID.TID 0000.0001)                -5.450000000000000E+03       /* K = 23 */
(PID.TID 0000.0001)     ;
(PID.TID 0000.0001) rF =   /* W-Interf. R coordinate (  units of r ) */
(PID.TID 0000.0001)                 0.000000000000000E+00,      /* K =  1 */
(PID.TID 0000.0001)                -1.000000000000000E+01,      /* K =  2 */
(PID.TID 0000.0001)                -2.000000000000000E+01,      /* K =  3 */
(PID.TID 0000.0001)                -3.500000000000000E+01,      /* K =  4 */
(PID.TID 0000.0001)                -5.500000000000000E+01,      /* K =  5 */
(PID.TID 0000.0001)                -7.500000000000000E+01,      /* K =  6 */
(PID.TID 0000.0001)                -1.000000000000000E+02,      /* K =  7 */
(PID.TID 0000.0001)                -1.350000000000000E+02,      /* K =  8 */
(PID.TID 0000.0001)                -1.850000000000000E+02,      /* K =  9 */
(PID.TID 0000.0001)                -2.600000000000000E+02,      /* K = 10 */
(PID.TID 0000.0001)                -3.600000000000000E+02,      /* K = 11 */
(PID.TID 0000.0001)                -5.100000000000000E+02,      /* K = 12 */
(PID.TID 0000.0001)                -7.100000000000000E+02,      /* K = 13 */
(PID.TID 0000.0001)                -9.850000000000000E+02,      /* K = 14 */
(PID.TID 0000.0001)                -1.335000000000000E+03,      /* K = 15 */
(PID.TID 0000.0001)                -1.750000000000000E+03,      /* K = 16 */
(PID.TID 0000.0001)                -2.200000000000000E+03,      /* K = 17 */
(PID.TID 0000.0001)                -2.700000000000000E+03,      /* K = 18 */
(PID.TID 0000.0001)                -3.200000000000000E+03,      /* K = 19 */
(PID.TID 0000.0001)                -3.700000000000000E+03,      /* K = 20 */
(PID.TID 0000.0001)                -4.200000000000000E+03,      /* K = 21 */
(PID.TID 0000.0001)                -4.700000000000000E+03,      /* K = 22 */
(PID.TID 0000.0001)                -5.200000000000000E+03,      /* K = 23 */
(PID.TID 0000.0001)                -5.700000000000000E+03       /* K = 24 */
(PID.TID 0000.0001)     ;
(PID.TID 0000.0001) deepFacC = /* deep-model grid factor @ cell-Center (-) */
(PID.TID 0000.0001)    23 @  1.000000000000000E+00              /* K =  1: 23 */
(PID.TID 0000.0001)     ;
(PID.TID 0000.0001) deepFacF = /* deep-model grid factor @ W-Interface (-) */
(PID.TID 0000.0001)    24 @  1.000000000000000E+00              /* K =  1: 24 */
(PID.TID 0000.0001)     ;
(PID.TID 0000.0001) rVel2wUnit = /* convert units: rVel -> wSpeed (=1 if z-coord)*/
(PID.TID 0000.0001)    24 @  1.000000000000000E+00              /* K =  1: 24 */
(PID.TID 0000.0001)     ;
(PID.TID 0000.0001) wUnit2rVel = /* convert units: wSpeed -> rVel (=1 if z-coord)*/
(PID.TID 0000.0001)    24 @  1.000000000000000E+00              /* K =  1: 24 */
(PID.TID 0000.0001)     ;
(PID.TID 0000.0001) dBdrRef = /* Vertical grad. of reference buoyancy [(m/s/r)^2] */
(PID.TID 0000.0001)                 0.000000000000000E+00,      /* K =  1 */
(PID.TID 0000.0001)                 3.513461801096672E-04,      /* K =  2 */
(PID.TID 0000.0001)                 2.578462793867026E-04,      /* K =  3 */
(PID.TID 0000.0001)                 1.716535447918954E-04,      /* K =  4 */
(PID.TID 0000.0001)                 1.391849606744939E-04,      /* K =  5 */
(PID.TID 0000.0001)                 1.106038973987551E-04,      /* K =  6 */
(PID.TID 0000.0001)                 7.062448315028799E-05,      /* K =  7 */
(PID.TID 0000.0001)                 4.112152780686669E-05,      /* K =  8 */
(PID.TID 0000.0001)                 2.554455911799560E-05,      /* K =  9 */
(PID.TID 0000.0001)                 1.739274227427603E-05,      /* K = 10 */
(PID.TID 0000.0001)                 1.573008010125636E-05,      /* K = 11 */
(PID.TID 0000.0001)                 1.341763357458043E-05,      /* K = 12 */
(PID.TID 0000.0001)                 1.029886793911016E-05,      /* K = 13 */
(PID.TID 0000.0001)                 7.244777660794312E-06,      /* K = 14 */
(PID.TID 0000.0001)                 5.291061202791868E-06,      /* K = 15 */
(PID.TID 0000.0001)                 4.668992652371521E-06,      /* K = 16 */
(PID.TID 0000.0001)                 3.952349989520169E-06,      /* K = 17 */
(PID.TID 0000.0001)                 3.937600045035830E-06,      /* K = 18 */
(PID.TID 0000.0001)                 3.833348475309353E-06,      /* K = 19 */
(PID.TID 0000.0001)                 4.027570774400333E-06,      /* K = 20 */
(PID.TID 0000.0001)                 3.935806005392895E-06,      /* K = 21 */
(PID.TID 0000.0001)                 3.995673930141529E-06,      /* K = 22 */
(PID.TID 0000.0001)                 4.061338744769299E-06       /* K = 23 */
(PID.TID 0000.0001)     ;
(PID.TID 0000.0001) rotateGrid = /* use rotated grid ( True/False ) */
(PID.TID 0000.0001)                   F
(PID.TID 0000.0001)     ;
(PID.TID 0000.0001) phiEuler = /* Euler angle, rotation about original z-coordinate [rad] */
(PID.TID 0000.0001)                 0.000000000000000E+00
(PID.TID 0000.0001)     ;
(PID.TID 0000.0001) thetaEuler = /* Euler angle, rotation about new x-coordinate [rad] */
(PID.TID 0000.0001)                 0.000000000000000E+00
(PID.TID 0000.0001)     ;
(PID.TID 0000.0001) psiEuler = /* Euler angle, rotation about new z-coordinate [rad] */
(PID.TID 0000.0001)                 0.000000000000000E+00
(PID.TID 0000.0001)     ;
(PID.TID 0000.0001) dxF =  /* dxF(:,1,:,1) ( units: m ) */
(PID.TID 0000.0001)    20 @  1.516695152377178E+05              /* I =  1: 20 */
(PID.TID 0000.0001)     ;
(PID.TID 0000.0001) dxF =  /* dxF(1,:,1,:) ( units: m ) */
(PID.TID 0000.0001)                 1.516695152377178E+05,      /* J =  1 */
(PID.TID 0000.0001)                 1.459008712061998E+05,      /* J =  2 */
(PID.TID 0000.0001)                 1.399544694374234E+05,      /* J =  3 */
(PID.TID 0000.0001)                 1.338375547059709E+05,      /* J =  4 */
(PID.TID 0000.0001)                 1.275575795302040E+05,      /* J =  5 */
(PID.TID 0000.0001)                 1.211221950925184E+05,      /* J =  6 */
(PID.TID 0000.0001)                 1.145392419175564E+05,      /* J =  7 */
(PID.TID 0000.0001)                 1.078167403197357E+05,      /* J =  8 */
(PID.TID 0000.0001)                 1.009628806317309E+05,      /* J =  9 */
(PID.TID 0000.0001)                 9.398601322581600E+04,      /* J = 10 */
(PID.TID 0000.0001)                 8.689463834022089E+04,      /* J = 11 */
(PID.TID 0000.0001)                 7.969739572290120E+04,      /* J = 12 */
(PID.TID 0000.0001)                 7.240305410533583E+04,      /* J = 13 */
(PID.TID 0000.0001)                 6.502050051917860E+04,      /* J = 14 */
(PID.TID 0000.0001)                 5.755872946877906E+04,      /* J = 15 */
(PID.TID 0000.0001)                 5.002683197276441E+04       /* J = 16 */
(PID.TID 0000.0001)     ;
(PID.TID 0000.0001) dyF =  /* dyF(:,1,:,1) ( units: m ) */
(PID.TID 0000.0001)    20 @  2.223898532891175E+05              /* I =  1: 20 */
(PID.TID 0000.0001)     ;
(PID.TID 0000.0001) dyF =  /* dyF(1,:,1,:) ( units: m ) */
(PID.TID 0000.0001)    16 @  2.223898532891175E+05              /* J =  1: 16 */
(PID.TID 0000.0001)     ;
(PID.TID 0000.0001) dxG =  /* dxG(:,1,:,1) ( units: m ) */
(PID.TID 0000.0001)    20 @  1.544849730924338E+05              /* I =  1: 20 */
(PID.TID 0000.0001)     ;
(PID.TID 0000.0001) dxG =  /* dxG(1,:,1,:) ( units: m ) */
(PID.TID 0000.0001)                 1.544849730924338E+05,      /* J =  1 */
(PID.TID 0000.0001)                 1.488078573794047E+05,      /* J =  2 */
(PID.TID 0000.0001)                 1.429494422142520E+05,      /* J =  3 */
(PID.TID 0000.0001)                 1.369168651734348E+05,      /* J =  4 */
(PID.TID 0000.0001)                 1.307174760228300E+05,      /* J =  5 */
(PID.TID 0000.0001)                 1.243588277631750E+05,      /* J =  6 */
(PID.TID 0000.0001)                 1.178486674278995E+05,      /* J =  7 */
(PID.TID 0000.0001)                 1.111949266445588E+05,      /* J =  8 */
(PID.TID 0000.0001)                 1.044057119713670E+05,      /* J =  9 */
(PID.TID 0000.0001)                 9.748929502060512E+04,      /* J = 10 */
(PID.TID 0000.0001)                 9.045410238093534E+04,      /* J = 11 */
(PID.TID 0000.0001)                 8.330870535090075E+04,      /* J = 12 */
(PID.TID 0000.0001)                 7.606180949611843E+04,      /* J = 13 */
(PID.TID 0000.0001)                 6.872224404288860E+04,      /* J = 14 */
(PID.TID 0000.0001)                 6.129895112114271E+04,      /* J = 15 */
(PID.TID 0000.0001)                 5.380097486983529E+04       /* J = 16 */
(PID.TID 0000.0001)     ;
(PID.TID 0000.0001) dyG =  /* dyG(:,1,:,1) ( units: m ) */
(PID.TID 0000.0001)    20 @  2.223898532891175E+05              /* I =  1: 20 */
(PID.TID 0000.0001)     ;
(PID.TID 0000.0001) dyG =  /* dyG(1,:,1,:) ( units: m ) */
(PID.TID 0000.0001)    16 @  2.223898532891175E+05              /* J =  1: 16 */
(PID.TID 0000.0001)     ;
(PID.TID 0000.0001) dxC =  /* dxC(:,1,:,1) ( units: m ) */
(PID.TID 0000.0001)    20 @  1.516695152377178E+05              /* I =  1: 20 */
(PID.TID 0000.0001)     ;
(PID.TID 0000.0001) dxC =  /* dxC(1,:,1,:) ( units: m ) */
(PID.TID 0000.0001)                 1.516695152377178E+05,      /* J =  1 */
(PID.TID 0000.0001)                 1.459008712061998E+05,      /* J =  2 */
(PID.TID 0000.0001)                 1.399544694374234E+05,      /* J =  3 */
(PID.TID 0000.0001)                 1.338375547059709E+05,      /* J =  4 */
(PID.TID 0000.0001)                 1.275575795302040E+05,      /* J =  5 */
(PID.TID 0000.0001)                 1.211221950925184E+05,      /* J =  6 */
(PID.TID 0000.0001)                 1.145392419175564E+05,      /* J =  7 */
(PID.TID 0000.0001)                 1.078167403197357E+05,      /* J =  8 */
(PID.TID 0000.0001)                 1.009628806317309E+05,      /* J =  9 */
(PID.TID 0000.0001)                 9.398601322581600E+04,      /* J = 10 */
(PID.TID 0000.0001)                 8.689463834022089E+04,      /* J = 11 */
(PID.TID 0000.0001)                 7.969739572290120E+04,      /* J = 12 */
(PID.TID 0000.0001)                 7.240305410533583E+04,      /* J = 13 */
(PID.TID 0000.0001)                 6.502050051917860E+04,      /* J = 14 */
(PID.TID 0000.0001)                 5.755872946877906E+04,      /* J = 15 */
(PID.TID 0000.0001)                 5.002683197276441E+04       /* J = 16 */
(PID.TID 0000.0001)     ;
(PID.TID 0000.0001) dyC =  /* dyC(:,1,:,1) ( units: m ) */
(PID.TID 0000.0001)    20 @  2.223898532891175E+05              /* I =  1: 20 */
(PID.TID 0000.0001)     ;
(PID.TID 0000.0001) dyC =  /* dyC(1,:,1,:) ( units: m ) */
(PID.TID 0000.0001)    16 @  2.223898532891175E+05              /* J =  1: 16 */
(PID.TID 0000.0001)     ;
(PID.TID 0000.0001) dxV =  /* dxV(:,1,:,1) ( units: m ) */
(PID.TID 0000.0001)    20 @  1.544849730924338E+05              /* I =  1: 20 */
(PID.TID 0000.0001)     ;
(PID.TID 0000.0001) dxV =  /* dxV(1,:,1,:) ( units: m ) */
(PID.TID 0000.0001)                 1.544849730924338E+05,      /* J =  1 */
(PID.TID 0000.0001)                 1.488078573794047E+05,      /* J =  2 */
(PID.TID 0000.0001)                 1.429494422142520E+05,      /* J =  3 */
(PID.TID 0000.0001)                 1.369168651734348E+05,      /* J =  4 */
(PID.TID 0000.0001)                 1.307174760228300E+05,      /* J =  5 */
(PID.TID 0000.0001)                 1.243588277631750E+05,      /* J =  6 */
(PID.TID 0000.0001)                 1.178486674278995E+05,      /* J =  7 */
(PID.TID 0000.0001)                 1.111949266445588E+05,      /* J =  8 */
(PID.TID 0000.0001)                 1.044057119713670E+05,      /* J =  9 */
(PID.TID 0000.0001)                 9.748929502060512E+04,      /* J = 10 */
(PID.TID 0000.0001)                 9.045410238093534E+04,      /* J = 11 */
(PID.TID 0000.0001)                 8.330870535090075E+04,      /* J = 12 */
(PID.TID 0000.0001)                 7.606180949611843E+04,      /* J = 13 */
(PID.TID 0000.0001)                 6.872224404288860E+04,      /* J = 14 */
(PID.TID 0000.0001)                 6.129895112114271E+04,      /* J = 15 */
(PID.TID 0000.0001)                 5.380097486983529E+04       /* J = 16 */
(PID.TID 0000.0001)     ;
(PID.TID 0000.0001) dyU =  /* dyU(:,1,:,1) ( units: m ) */
(PID.TID 0000.0001)    20 @  2.223898532891175E+05              /* I =  1: 20 */
(PID.TID 0000.0001)     ;
(PID.TID 0000.0001) dyU =  /* dyU(1,:,1,:) ( units: m ) */
(PID.TID 0000.0001)    16 @  2.223898532891175E+05              /* J =  1: 16 */
(PID.TID 0000.0001)     ;
(PID.TID 0000.0001) rA  =  /* rA (:,1,:,1) ( units: m^2 ) */
(PID.TID 0000.0001)    20 @  3.372804882275630E+10              /* I =  1: 20 */
(PID.TID 0000.0001)     ;
(PID.TID 0000.0001) rA  =  /* rA (1,:,1,:) ( units: m^2 ) */
(PID.TID 0000.0001)                 3.372804882275630E+10,      /* J =  1 */
(PID.TID 0000.0001)                 3.244522605358471E+10,      /* J =  2 */
(PID.TID 0000.0001)                 3.112287377427108E+10,      /* J =  3 */
(PID.TID 0000.0001)                 2.976260306737437E+10,      /* J =  4 */
(PID.TID 0000.0001)                 2.836607121321784E+10,      /* J =  5 */
(PID.TID 0000.0001)                 2.693497967074614E+10,      /* J =  6 */
(PID.TID 0000.0001)                 2.547107200456132E+10,      /* J =  7 */
(PID.TID 0000.0001)                 2.397613176065682E+10,      /* J =  8 */
(PID.TID 0000.0001)                 2.245198029344207E+10,      /* J =  9 */
(PID.TID 0000.0001)                 2.090047454670177E+10,      /* J = 10 */
(PID.TID 0000.0001)                 1.932350479119805E+10,      /* J = 11 */
(PID.TID 0000.0001)                 1.772299232166360E+10,      /* J = 12 */
(PID.TID 0000.0001)                 1.610088711600326E+10,      /* J = 13 */
(PID.TID 0000.0001)                 1.445916545954351E+10,      /* J = 14 */
(PID.TID 0000.0001)                 1.279982753723478E+10,      /* J = 15 */
(PID.TID 0000.0001)                 1.112489499673432E+10       /* J = 16 */
(PID.TID 0000.0001)     ;
(PID.TID 0000.0001) rAw =  /* rAw(:,1,:,1) ( units: m^2 ) */
(PID.TID 0000.0001)    20 @  3.372804882275630E+10              /* I =  1: 20 */
(PID.TID 0000.0001)     ;
(PID.TID 0000.0001) rAw =  /* rAw(1,:,1,:) ( units: m^2 ) */
(PID.TID 0000.0001)                 3.372804882275630E+10,      /* J =  1 */
(PID.TID 0000.0001)                 3.244522605358471E+10,      /* J =  2 */
(PID.TID 0000.0001)                 3.112287377427108E+10,      /* J =  3 */
(PID.TID 0000.0001)                 2.976260306737437E+10,      /* J =  4 */
(PID.TID 0000.0001)                 2.836607121321784E+10,      /* J =  5 */
(PID.TID 0000.0001)                 2.693497967074614E+10,      /* J =  6 */
(PID.TID 0000.0001)                 2.547107200456132E+10,      /* J =  7 */
(PID.TID 0000.0001)                 2.397613176065682E+10,      /* J =  8 */
(PID.TID 0000.0001)                 2.245198029344207E+10,      /* J =  9 */
(PID.TID 0000.0001)                 2.090047454670177E+10,      /* J = 10 */
(PID.TID 0000.0001)                 1.932350479119805E+10,      /* J = 11 */
(PID.TID 0000.0001)                 1.772299232166360E+10,      /* J = 12 */
(PID.TID 0000.0001)                 1.610088711600326E+10,      /* J = 13 */
(PID.TID 0000.0001)                 1.445916545954351E+10,      /* J = 14 */
(PID.TID 0000.0001)                 1.279982753723478E+10,      /* J = 15 */
(PID.TID 0000.0001)                 1.112489499673432E+10       /* J = 16 */
(PID.TID 0000.0001)     ;
(PID.TID 0000.0001) rAs =  /* rAs(:,1,:,1) ( units: m^2 ) */
(PID.TID 0000.0001)    20 @  3.435414629417918E+10              /* I =  1: 20 */
(PID.TID 0000.0001)     ;
(PID.TID 0000.0001) rAs =  /* rAs(1,:,1,:) ( units: m^2 ) */
(PID.TID 0000.0001)                 3.435414629417918E+10,      /* J =  1 */
(PID.TID 0000.0001)                 3.309167746093097E+10,      /* J =  2 */
(PID.TID 0000.0001)                 3.178889151607872E+10,      /* J =  3 */
(PID.TID 0000.0001)                 3.044737570361747E+10,      /* J =  4 */
(PID.TID 0000.0001)                 2.906876445392020E+10,      /* J =  5 */
(PID.TID 0000.0001)                 2.765473739243563E+10,      /* J =  6 */
(PID.TID 0000.0001)                 2.620701729332415E+10,      /* J =  7 */
(PID.TID 0000.0001)                 2.472736798052209E+10,      /* J =  8 */
(PID.TID 0000.0001)                 2.321759217879512E+10,      /* J =  9 */
(PID.TID 0000.0001)                 2.167952931739416E+10,      /* J = 10 */
(PID.TID 0000.0001)                 2.011505328899539E+10,      /* J = 11 */
(PID.TID 0000.0001)                 1.852607016665020E+10,      /* J = 12 */
(PID.TID 0000.0001)                 1.691451588152944E+10,      /* J = 13 */
(PID.TID 0000.0001)                 1.528235386428863E+10,      /* J = 14 */
(PID.TID 0000.0001)                 1.363157265293026E+10,      /* J = 15 */
(PID.TID 0000.0001)                 1.196418347007692E+10       /* J = 16 */
(PID.TID 0000.0001)     ;
(PID.TID 0000.0001) globalArea = /* Integrated horizontal Area (m^2) */
(PID.TID 0000.0001)                 3.562528105304877E+12
(PID.TID 0000.0001)     ;
(PID.TID 0000.0001) // =======================================================
(PID.TID 0000.0001) // End of Model config. summary
(PID.TID 0000.0001) // =======================================================
(PID.TID 0000.0001) 
(PID.TID 0000.0001) == Packages configuration : Check & print summary ==
(PID.TID 0000.0001) 
(PID.TID 0000.0001) KPP_CHECK: #define ALLOW_KPP
(PID.TID 0000.0001)  kpp_freq = /* frequency of KPP calculation */
(PID.TID 0000.0001)                 3.600000000000000E+03
(PID.TID 0000.0001)     ;
(PID.TID 0000.0001) KPP_ghatUseTotalDiffus= /* non-local term fct of total diffus */
(PID.TID 0000.0001)                   T
(PID.TID 0000.0001)     ;
(PID.TID 0000.0001) KPPuseDoubleDiff = /* include double diffusive contrib */
(PID.TID 0000.0001)                   F
(PID.TID 0000.0001)     ;
(PID.TID 0000.0001) LimitHblStable = /* limits depth of hbl if stable cond.*/
(PID.TID 0000.0001)                   T
(PID.TID 0000.0001)     ;
(PID.TID 0000.0001)  minKPPhbl = /* minimum KPPhbl value [m] */
(PID.TID 0000.0001)                 5.000000000000000E+00
(PID.TID 0000.0001)     ;
(PID.TID 0000.0001)  epsln     = /* constant [-] */
(PID.TID 0000.0001)                 9.999999999999999E-21
(PID.TID 0000.0001)     ;
(PID.TID 0000.0001)  phepsi    = /* constant [-] */
(PID.TID 0000.0001)                 1.000000000000000E-10
(PID.TID 0000.0001)     ;
(PID.TID 0000.0001)  epsilon   = /* constant [-] */
(PID.TID 0000.0001)                 1.000000000000000E-01
(PID.TID 0000.0001)     ;
(PID.TID 0000.0001)  vonk      = /* Von Karmans constant [-] */
(PID.TID 0000.0001)                 4.000000000000000E-01
(PID.TID 0000.0001)     ;
(PID.TID 0000.0001)  dB_dz     = /* maximum N^2 in mixed layer [s^-2] */
(PID.TID 0000.0001)                 5.200000000000000E-05
(PID.TID 0000.0001)     ;
(PID.TID 0000.0001)  conc1     = /* scalar constant [-] */
(PID.TID 0000.0001)                 5.000000000000000E+00
(PID.TID 0000.0001)     ;
(PID.TID 0000.0001)  conam     = /* scalar constant [-] */
(PID.TID 0000.0001)                 1.257000000000000E+00
(PID.TID 0000.0001)     ;
(PID.TID 0000.0001)  concm     = /* scalar constant [-] */
(PID.TID 0000.0001)                 8.380000000000001E+00
(PID.TID 0000.0001)     ;
(PID.TID 0000.0001)  conc2     = /* scalar constant [-] */
(PID.TID 0000.0001)                 1.600000000000000E+01
(PID.TID 0000.0001)     ;
(PID.TID 0000.0001)  conas     = /* scalar constant [-] */
(PID.TID 0000.0001)                -2.886000000000000E+01
(PID.TID 0000.0001)     ;
(PID.TID 0000.0001)  concs     = /* scalar constant [-] */
(PID.TID 0000.0001)                 9.895999999999999E+01
(PID.TID 0000.0001)     ;
(PID.TID 0000.0001)  conc3     = /* scalar constant [-] */
(PID.TID 0000.0001)                 1.600000000000000E+01
(PID.TID 0000.0001)     ;
(PID.TID 0000.0001)  zetam     = /* scalar constant [-] */
(PID.TID 0000.0001)                -2.000000000000000E-01
(PID.TID 0000.0001)     ;
(PID.TID 0000.0001)  zetas     = /* scalar constant [-] */
(PID.TID 0000.0001)                -1.000000000000000E+00
(PID.TID 0000.0001)     ;
(PID.TID 0000.0001)  Ricr      = /* critical bulk Richardson Number [-] */
(PID.TID 0000.0001)                 3.000000000000000E-01
(PID.TID 0000.0001)     ;
(PID.TID 0000.0001)  cekman    = /* coeff for Ekman depth [-] */
(PID.TID 0000.0001)                 7.000000000000000E-01
(PID.TID 0000.0001)     ;
(PID.TID 0000.0001)  cmonob    = /* coeff for Monin-Obukhov depth [-] */
(PID.TID 0000.0001)                 1.000000000000000E+00
(PID.TID 0000.0001)     ;
(PID.TID 0000.0001)  concv     = /* buoyancy freq ratio [-] */
(PID.TID 0000.0001)                 1.800000000000000E+00
(PID.TID 0000.0001)     ;
(PID.TID 0000.0001)  hbf       = /* solar radiation depth ratio [-] */
(PID.TID 0000.0001)                 1.000000000000000E+00
(PID.TID 0000.0001)     ;
(PID.TID 0000.0001)  zmin      = /* minimum for zehat in table [m3/s3] */
(PID.TID 0000.0001)                -4.000000000000000E-07
(PID.TID 0000.0001)     ;
(PID.TID 0000.0001)  zmax      = /* maximum for zehat in table [m3/s3] */
(PID.TID 0000.0001)                 0.000000000000000E+00
(PID.TID 0000.0001)     ;
(PID.TID 0000.0001)  umin      = /* minimum for ustar in table [m/s] */
(PID.TID 0000.0001)                 0.000000000000000E+00
(PID.TID 0000.0001)     ;
(PID.TID 0000.0001)  umax      = /* maximum for ustar in table [m/s] */
(PID.TID 0000.0001)                 4.000000000000000E-02
(PID.TID 0000.0001)     ;
(PID.TID 0000.0001) num_v_smooth_Ri = /* number of vertical smoothing */
(PID.TID 0000.0001)                       0
(PID.TID 0000.0001)     ;
(PID.TID 0000.0001)  Riinfty   = /* shear instability Ri number limit [-] */
(PID.TID 0000.0001)                 7.000000000000000E-01
(PID.TID 0000.0001)     ;
(PID.TID 0000.0001)  BVSQcon   = /* Brunt-Vaisala squared (=N^2) [s^-2] */
(PID.TID 0000.0001)                -2.000000000000000E-05
(PID.TID 0000.0001)     ;
(PID.TID 0000.0001)  difm0     = /* max viscosity from shear instab. [m2/s] */
(PID.TID 0000.0001)                 5.000000000000000E-03
(PID.TID 0000.0001)     ;
(PID.TID 0000.0001)  difs0     = /* max diffusiv. from shear instab. [m2/s] */
(PID.TID 0000.0001)                 5.000000000000000E-03
(PID.TID 0000.0001)     ;
(PID.TID 0000.0001)  dift0     = /* max diffusiv. from shear instab. [m2/s] */
(PID.TID 0000.0001)                 5.000000000000000E-03
(PID.TID 0000.0001)     ;
(PID.TID 0000.0001)  difmcon   = /* convective viscosity [m2/s] */
(PID.TID 0000.0001)                 1.000000000000000E-01
(PID.TID 0000.0001)     ;
(PID.TID 0000.0001)  difscon   = /* convective diffusiv. [m2/s] */
(PID.TID 0000.0001)                 1.000000000000000E-01
(PID.TID 0000.0001)     ;
(PID.TID 0000.0001)  diftcon   = /* convective diffusiv. [m2/s] */
(PID.TID 0000.0001)                 1.000000000000000E-01
(PID.TID 0000.0001)     ;
(PID.TID 0000.0001)  Rrho0     = /* double diffusion density ratio [-] */
(PID.TID 0000.0001)                 1.900000000000000E+00
(PID.TID 0000.0001)     ;
(PID.TID 0000.0001)  dsfmax    = /* max diffusiv. for salt fingering [m2/s] */
(PID.TID 0000.0001)                 1.000000000000000E-02
(PID.TID 0000.0001)     ;
(PID.TID 0000.0001)  cstar     = /* coeff for non-locak transport [-] */
(PID.TID 0000.0001)                 1.000000000000000E+01
(PID.TID 0000.0001)     ;
(PID.TID 0000.0001) KPPwriteState = /* write KPP fields to file */
(PID.TID 0000.0001)                   T
(PID.TID 0000.0001)     ;
(PID.TID 0000.0001)  kpp_dumpFreq = /* dump freq of KPP output */
(PID.TID 0000.0001)                 0.000000000000000E+00
(PID.TID 0000.0001)     ;
(PID.TID 0000.0001)  kpp_taveFreq = /* time-averaging freq of KPP output */
(PID.TID 0000.0001)                 3.600000000000000E+04
(PID.TID 0000.0001)     ;
(PID.TID 0000.0001) 
(PID.TID 0000.0001) GMREDI_CHECK: #define GMREDI
(PID.TID 0000.0001) GM_AdvForm =     /* if FALSE => use SkewFlux Form */
(PID.TID 0000.0001)                   F
(PID.TID 0000.0001)     ;
(PID.TID 0000.0001) GM_InMomAsStress = /* if TRUE => apply as Eddy Stress */
(PID.TID 0000.0001)                   F
(PID.TID 0000.0001)     ;
(PID.TID 0000.0001) GM_AdvSeparate = /* Calc Bolus & Euler Adv. separately */
(PID.TID 0000.0001)                   F
(PID.TID 0000.0001)     ;
(PID.TID 0000.0001) GM_ExtraDiag =   /* Tensor Extra Diag (line 1&2) non 0 */
(PID.TID 0000.0001)                   F
(PID.TID 0000.0001)     ;
(PID.TID 0000.0001) GM_isopycK =    /* Background Isopyc. Diffusivity [m^2/s] */
(PID.TID 0000.0001)                 5.710000000000000E+02
(PID.TID 0000.0001)     ;
(PID.TID 0000.0001) GM_skewflx*K =  /* Background GM_SkewFlx Diffusivity [m^2/s] */
(PID.TID 0000.0001)                 5.710000000000000E+02
(PID.TID 0000.0001)     ;
(PID.TID 0000.0001) GM_advec*K =    /* Backg. GM-Advec(=Bolus) Diffusivity [m^2/s]*/
(PID.TID 0000.0001)                 0.000000000000000E+00
(PID.TID 0000.0001)     ;
(PID.TID 0000.0001) GM_Kmin_horiz = /* Minimum Horizontal Diffusivity [m^2/s] */
(PID.TID 0000.0001)                 0.000000000000000E+00
(PID.TID 0000.0001)     ;
(PID.TID 0000.0001) GM_Visbeck_alpha = /* Visbeck alpha coeff. [-] */
(PID.TID 0000.0001)                 0.000000000000000E+00
(PID.TID 0000.0001)     ;
(PID.TID 0000.0001) GM_Small_Number =  /* epsilon used in slope calc */
(PID.TID 0000.0001)                 9.999999999999999E-21
(PID.TID 0000.0001)     ;
(PID.TID 0000.0001) GM_slopeSqCutoff = /* Slope^2 cut-off value */
(PID.TID 0000.0001)                 1.000000000000000E+48
(PID.TID 0000.0001)     ;
(PID.TID 0000.0001) GM_taper_scheme =  /* Type of Tapering/Clipping scheme */
(PID.TID 0000.0001)               'ldd97                                   '
(PID.TID 0000.0001)     ;
(PID.TID 0000.0001) GM_maxSlope =  /* Maximum Slope (Tapering/Clipping) */
(PID.TID 0000.0001)                 1.000000000000000E-02
(PID.TID 0000.0001)     ;
(PID.TID 0000.0001) GM_facTrL2dz = /* Minimum Trans.Layer Thick. (factor of dz) */
(PID.TID 0000.0001)                 1.000000000000000E+00
(PID.TID 0000.0001)     ;
(PID.TID 0000.0001) GM_facTrL2ML = /* Max.Trans.Layer Thick. (factor of MxL Depth)*/
(PID.TID 0000.0001)                 5.000000000000000E+00
(PID.TID 0000.0001)     ;
(PID.TID 0000.0001) GM_maxTransLay = /* Maximum Transition Layer Thickness [m] */
(PID.TID 0000.0001)                 5.000000000000000E+02
(PID.TID 0000.0001)     ;
(PID.TID 0000.0001) GM_UseBVP = /* if TRUE => use bvp a la Ferrari et al. (2010) */
(PID.TID 0000.0001)                   F
(PID.TID 0000.0001)     ;
(PID.TID 0000.0001) GM_BVP_ModeNumber = /* Vertical mode number for BVP wave speed */
(PID.TID 0000.0001)                       1
(PID.TID 0000.0001)     ;
(PID.TID 0000.0001) GM_BVP_cMin = /* Minimum wave speed for BVP [m/s] */
(PID.TID 0000.0001)                 1.000000000000000E-01
(PID.TID 0000.0001)     ;
(PID.TID 0000.0001) GM_useSubMeso = /* if TRUE => use Sub-Meso param. (B.Fox-Kemper) */
(PID.TID 0000.0001)                   F
(PID.TID 0000.0001)     ;
(PID.TID 0000.0001) subMeso_Ceff = /* efficiency coeff. of Mixed-Layer Eddies [-] */
(PID.TID 0000.0001)                 7.000000000000001E-02
(PID.TID 0000.0001)     ;
(PID.TID 0000.0001) subMeso_invTau = /* inverse of Sub-Meso mixing time-scale [/s] */
(PID.TID 0000.0001)                 2.000000000000000E-06
(PID.TID 0000.0001)     ;
(PID.TID 0000.0001) subMeso_LfMin = /* minimum length-scale "Lf" [m] */
(PID.TID 0000.0001)                 1.000000000000000E+03
(PID.TID 0000.0001)     ;
(PID.TID 0000.0001) subMeso_Lmax = /* maximum grid-scale length [m] */
(PID.TID 0000.0001)                 1.100000000000000E+05
(PID.TID 0000.0001)     ;
(PID.TID 0000.0001) GM_useLeithQG = /* if TRUE => add QG Leith viscosity to GMRedi tensor */
(PID.TID 0000.0001)                   F
(PID.TID 0000.0001)     ;
(PID.TID 0000.0001) EXF_CHECK: #define ALLOW_EXF
(PID.TID 0000.0001) SEAICE_CHECK: #define ALLOW_SEAICE
(PID.TID 0000.0001) SALT_PLUME_CHECK: #define SALT_PLUME
(PID.TID 0000.0001) GAD_CHECK: #define ALLOW_GENERIC_ADVDIFF
(PID.TID 0000.0001) // =======================================================
(PID.TID 0000.0001) // Check Model config. (CONFIG_CHECK):
(PID.TID 0000.0001) // CONFIG_CHECK : Normal End
(PID.TID 0000.0001) // =======================================================
(PID.TID 0000.0001) 
(PID.TID 0000.0001)  MDS_READ_META: opening file: pickup.0000000001.meta
(PID.TID 0000.0001)  nRecords = 187 ; filePrec =  64 ; fileIter =      8760
(PID.TID 0000.0001)     nDims =   2 , dims:
(PID.TID 0000.0001)    1:  20   1  20
(PID.TID 0000.0001)    2:  16   1  16
(PID.TID 0000.0001)     nFlds =  11 , nFl3D =   8 , fields:
(PID.TID 0000.0001)  >Uvel    < >Vvel    < >Theta   < >Salt    < >GuNm1   < >GvNm1   < >GtNm1   < >GsNm1   < >EtaN    < >dEtaHdt < >EtaH    <
(PID.TID 0000.0001) missingVal=  1.00000000000000E+00 ; nTimRec =   1 , timeList:
(PID.TID 0000.0001)   3.153600000000E+07
(PID.TID 0000.0001) READ_MFLDS_3D_RL: read field: "Uvel    ", #   1 in fldList, rec=   1
(PID.TID 0000.0001)  MDS_READ_FIELD: opening global file: pickup.0000000001.data
(PID.TID 0000.0001) READ_MFLDS_3D_RL: read field: "Vvel    ", #   2 in fldList, rec=   2
(PID.TID 0000.0001)  MDS_READ_FIELD: opening global file: pickup.0000000001.data
(PID.TID 0000.0001) READ_MFLDS_3D_RL: read field: "Theta   ", #   3 in fldList, rec=   3
(PID.TID 0000.0001)  MDS_READ_FIELD: opening global file: pickup.0000000001.data
(PID.TID 0000.0001) READ_MFLDS_3D_RL: read field: "Salt    ", #   4 in fldList, rec=   4
(PID.TID 0000.0001)  MDS_READ_FIELD: opening global file: pickup.0000000001.data
(PID.TID 0000.0001) READ_MFLDS_3D_RL: read field: "GuNm1   ", #   5 in fldList, rec=   5
(PID.TID 0000.0001)  MDS_READ_FIELD: opening global file: pickup.0000000001.data
(PID.TID 0000.0001) READ_MFLDS_3D_RL: read field: "GvNm1   ", #   6 in fldList, rec=   6
(PID.TID 0000.0001)  MDS_READ_FIELD: opening global file: pickup.0000000001.data
(PID.TID 0000.0001) READ_MFLDS_3D_RL: read field: "EtaN    ", #   9 in fldList, rec= 185
(PID.TID 0000.0001)  MDS_READ_FIELD: opening global file: pickup.0000000001.data
(PID.TID 0000.0001) READ_MFLDS_CHECK: - normal end ; reset MFLDS file-name: pickup.0000000001
(PID.TID 0000.0001)  MDS_READ_META: opening file: pickup_seaice.0000000001.meta
(PID.TID 0000.0001)  nRecords =   8 ; filePrec =  64 ; fileIter =      8760
(PID.TID 0000.0001)     nDims =   2 , dims:
(PID.TID 0000.0001)    1:  20   1  20
(PID.TID 0000.0001)    2:  16   1  16
(PID.TID 0000.0001)     nFlds =   8 , nFl3D =   0 , fields:
(PID.TID 0000.0001)  >siTICE  < >siAREA  < >siHEFF  < >siHSNOW < >siHSALT < >siAGE   < >siUICE  < >siVICE  <
(PID.TID 0000.0001) missingVal=  1.00000000000000E+00 ; nTimRec =   1 , timeList:
(PID.TID 0000.0001)   3.153600000000E+07
(PID.TID 0000.0001) READ_MFLDS_3D_RL: field: "siTICES " missing in file: pickup_seaice.0000000001
(PID.TID 0000.0001) READ_MFLDS_LEV_RL: read field: "siTICE  ", #   1 in fldList, rec=   1
(PID.TID 0000.0001)  MDS_READ_FIELD: opening global file: pickup_seaice.0000000001.data
(PID.TID 0000.0001) READ_MFLDS_3D_RL: read field: "siAREA  ", #   2 in fldList, rec=   2
(PID.TID 0000.0001)  MDS_READ_FIELD: opening global file: pickup_seaice.0000000001.data
(PID.TID 0000.0001) READ_MFLDS_3D_RL: read field: "siHEFF  ", #   3 in fldList, rec=   3
(PID.TID 0000.0001)  MDS_READ_FIELD: opening global file: pickup_seaice.0000000001.data
(PID.TID 0000.0001) READ_MFLDS_3D_RL: read field: "siHSNOW ", #   4 in fldList, rec=   4
(PID.TID 0000.0001)  MDS_READ_FIELD: opening global file: pickup_seaice.0000000001.data
(PID.TID 0000.0001) READ_MFLDS_3D_RL: field: "siTrac01" missing in file: pickup_seaice.0000000001
(PID.TID 0000.0001) READ_MFLDS_3D_RL: field: "siTrac02" missing in file: pickup_seaice.0000000001
(PID.TID 0000.0001) READ_MFLDS_3D_RL: read field: "siUICE  ", #   7 in fldList, rec=   7
(PID.TID 0000.0001)  MDS_READ_FIELD: opening global file: pickup_seaice.0000000001.data
(PID.TID 0000.0001) READ_MFLDS_3D_RL: read field: "siVICE  ", #   8 in fldList, rec=   8
(PID.TID 0000.0001)  MDS_READ_FIELD: opening global file: pickup_seaice.0000000001.data
(PID.TID 0000.0001) // =======================================================
(PID.TID 0000.0001) // Model current state
(PID.TID 0000.0001) // =======================================================
(PID.TID 0000.0001) 
(PID.TID 0000.0001) // =======================================================
(PID.TID 0000.0001) // Begin MONITOR dynamic field statistics
(PID.TID 0000.0001) // =======================================================
(PID.TID 0000.0001) %MON time_tsnumber                =                     1
(PID.TID 0000.0001) %MON time_secondsf                =   3.6000000000000E+03
(PID.TID 0000.0001) %MON dynstat_eta_max              =   1.2148896464948E-01
(PID.TID 0000.0001) %MON dynstat_eta_min              =  -1.2294072390931E-01
(PID.TID 0000.0001) %MON dynstat_eta_mean             =   6.4121800016545E-12
(PID.TID 0000.0001) %MON dynstat_eta_sd               =   5.5204338298496E-02
(PID.TID 0000.0001) %MON dynstat_eta_del2             =   2.4451385062930E-03
(PID.TID 0000.0001) %MON dynstat_uvel_max             =   2.9562119253125E-02
(PID.TID 0000.0001) %MON dynstat_uvel_min             =  -3.2116802195889E-02
(PID.TID 0000.0001) %MON dynstat_uvel_mean            =   7.3517212197261E-05
(PID.TID 0000.0001) %MON dynstat_uvel_sd              =   2.8200438095630E-03
(PID.TID 0000.0001) %MON dynstat_uvel_del2            =   1.2033503855943E-04
(PID.TID 0000.0001) %MON dynstat_vvel_max             =   3.0230752565413E-02
(PID.TID 0000.0001) %MON dynstat_vvel_min             =  -7.2915596643288E-02
(PID.TID 0000.0001) %MON dynstat_vvel_mean            =   5.9498925755913E-07
(PID.TID 0000.0001) %MON dynstat_vvel_sd              =   4.3487695604813E-03
(PID.TID 0000.0001) %MON dynstat_vvel_del2            =   1.6238713082459E-04
(PID.TID 0000.0001) %MON dynstat_wvel_max             =   1.0391598315861E-05
(PID.TID 0000.0001) %MON dynstat_wvel_min             =  -1.2985527598723E-05
(PID.TID 0000.0001) %MON dynstat_wvel_mean            =  -4.9430012070227E-23
(PID.TID 0000.0001) %MON dynstat_wvel_sd              =   2.9870952941015E-06
(PID.TID 0000.0001) %MON dynstat_wvel_del2            =   6.2086686091632E-08
(PID.TID 0000.0001) %MON dynstat_theta_max            =   1.2478987018692E+01
(PID.TID 0000.0001) %MON dynstat_theta_min            =  -1.8580784123481E+00
(PID.TID 0000.0001) %MON dynstat_theta_mean           =   3.0791269506833E+00
(PID.TID 0000.0001) %MON dynstat_theta_sd             =   1.4438996331350E+00
(PID.TID 0000.0001) %MON dynstat_theta_del2           =   1.7427392056272E-02
(PID.TID 0000.0001) %MON dynstat_salt_max             =   3.5292899326544E+01
(PID.TID 0000.0001) %MON dynstat_salt_min             =   3.0708011544816E+01
(PID.TID 0000.0001) %MON dynstat_salt_mean            =   3.4757103045081E+01
(PID.TID 0000.0001) %MON dynstat_salt_sd              =   4.3067456945230E-01
(PID.TID 0000.0001) %MON dynstat_salt_del2            =   3.9731514852720E-03
(PID.TID 0000.0001) %MON forcing_qnet_max             =   0.0000000000000E+00
(PID.TID 0000.0001) %MON forcing_qnet_min             =   0.0000000000000E+00
(PID.TID 0000.0001) %MON forcing_qnet_mean            =   0.0000000000000E+00
(PID.TID 0000.0001) %MON forcing_qnet_sd              =   0.0000000000000E+00
(PID.TID 0000.0001) %MON forcing_qnet_del2            =   0.0000000000000E+00
(PID.TID 0000.0001) %MON forcing_qsw_max              =   0.0000000000000E+00
(PID.TID 0000.0001) %MON forcing_qsw_min              =   0.0000000000000E+00
(PID.TID 0000.0001) %MON forcing_qsw_mean             =   0.0000000000000E+00
(PID.TID 0000.0001) %MON forcing_qsw_sd               =   0.0000000000000E+00
(PID.TID 0000.0001) %MON forcing_qsw_del2             =   0.0000000000000E+00
(PID.TID 0000.0001) %MON forcing_empmr_max            =   0.0000000000000E+00
(PID.TID 0000.0001) %MON forcing_empmr_min            =   0.0000000000000E+00
(PID.TID 0000.0001) %MON forcing_empmr_mean           =   0.0000000000000E+00
(PID.TID 0000.0001) %MON forcing_empmr_sd             =   0.0000000000000E+00
(PID.TID 0000.0001) %MON forcing_empmr_del2           =   0.0000000000000E+00
(PID.TID 0000.0001) %MON forcing_fu_max               =   0.0000000000000E+00
(PID.TID 0000.0001) %MON forcing_fu_min               =   0.0000000000000E+00
(PID.TID 0000.0001) %MON forcing_fu_mean              =   0.0000000000000E+00
(PID.TID 0000.0001) %MON forcing_fu_sd                =   0.0000000000000E+00
(PID.TID 0000.0001) %MON forcing_fu_del2              =   0.0000000000000E+00
(PID.TID 0000.0001) %MON forcing_fv_max               =   0.0000000000000E+00
(PID.TID 0000.0001) %MON forcing_fv_min               =   0.0000000000000E+00
(PID.TID 0000.0001) %MON forcing_fv_mean              =   0.0000000000000E+00
(PID.TID 0000.0001) %MON forcing_fv_sd                =   0.0000000000000E+00
(PID.TID 0000.0001) %MON forcing_fv_del2              =   0.0000000000000E+00
(PID.TID 0000.0001) %MON trAdv_CFL_u_max              =   0.0000000000000E+00
(PID.TID 0000.0001) %MON trAdv_CFL_v_max              =   0.0000000000000E+00
(PID.TID 0000.0001) %MON trAdv_CFL_w_max              =   0.0000000000000E+00
(PID.TID 0000.0001) %MON advcfl_uvel_max              =   1.1451781801565E-03
(PID.TID 0000.0001) %MON advcfl_vvel_max              =   1.1803422864558E-03
(PID.TID 0000.0001) %MON advcfl_wvel_max              =   1.0648112566456E-03
(PID.TID 0000.0001) %MON advcfl_W_hf_max              =   1.3310140708071E-03
(PID.TID 0000.0001) %MON pe_b_mean                    =   1.0046603407298E-05
(PID.TID 0000.0001) %MON ke_max                       =   2.6765885487883E-03
(PID.TID 0000.0001) %MON ke_mean                      =   1.0505632580050E-05
(PID.TID 0000.0001) %MON ke_vol                       =   5.3036189546438E+15
(PID.TID 0000.0001) %MON vort_r_min                   =  -6.7404963723140E-07
(PID.TID 0000.0001) %MON vort_r_max                   =   3.0863779134275E-07
(PID.TID 0000.0001) %MON vort_a_mean                  =   1.2067277901800E-04
(PID.TID 0000.0001) %MON vort_a_sd                    =   8.8116977051992E-06
(PID.TID 0000.0001) %MON vort_p_mean                  =   1.7734843609472E-04
(PID.TID 0000.0001) %MON vort_p_sd                    =   1.1688594067034E-04
(PID.TID 0000.0001) %MON surfExpan_theta_mean         =  -2.5436060528397E-09
(PID.TID 0000.0001) %MON surfExpan_salt_mean          =   4.4934430574990E-11
(PID.TID 0000.0001) // =======================================================
(PID.TID 0000.0001) // End MONITOR dynamic field statistics
(PID.TID 0000.0001) // =======================================================
(PID.TID 0000.0001) // =======================================================
(PID.TID 0000.0001) // Begin MONITOR SEAICE statistics
(PID.TID 0000.0001) // =======================================================
(PID.TID 0000.0001) %MON seaice_tsnumber              =                     1
(PID.TID 0000.0001) %MON seaice_time_sec              =   3.6000000000000E+03
(PID.TID 0000.0001) %MON seaice_uice_max              =   1.8146488788999E-01
(PID.TID 0000.0001) %MON seaice_uice_min              =  -1.0756200511604E-01
(PID.TID 0000.0001) %MON seaice_uice_mean             =   7.2254195465956E-02
(PID.TID 0000.0001) %MON seaice_uice_sd               =   6.7733626433475E-02
(PID.TID 0000.0001) %MON seaice_uice_del2             =   2.0695385649766E-03
(PID.TID 0000.0001) %MON seaice_vice_max              =   6.6723729113493E-02
(PID.TID 0000.0001) %MON seaice_vice_min              =  -1.5313531754626E-01
(PID.TID 0000.0001) %MON seaice_vice_mean             =  -3.3004882180409E-02
(PID.TID 0000.0001) %MON seaice_vice_sd               =   5.2865782696856E-02
(PID.TID 0000.0001) %MON seaice_vice_del2             =   2.2948534071077E-03
(PID.TID 0000.0001) %MON seaice_area_max              =   1.0000000000000E+00
(PID.TID 0000.0001) %MON seaice_area_min              =   0.0000000000000E+00
(PID.TID 0000.0001) %MON seaice_area_mean             =   3.2742977481880E-01
(PID.TID 0000.0001) %MON seaice_area_sd               =   4.4550328499500E-01
(PID.TID 0000.0001) %MON seaice_area_del2             =   2.1243385608560E-02
(PID.TID 0000.0001) %MON seaice_heff_max              =   1.6267042800440E+00
(PID.TID 0000.0001) %MON seaice_heff_min              =   0.0000000000000E+00
(PID.TID 0000.0001) %MON seaice_heff_mean             =   1.8628252768726E-01
(PID.TID 0000.0001) %MON seaice_heff_sd               =   3.5903019077317E-01
(PID.TID 0000.0001) %MON seaice_heff_del2             =   9.4579844511247E-03
(PID.TID 0000.0001) %MON seaice_hsnow_max             =   4.0199413529346E-01
(PID.TID 0000.0001) %MON seaice_hsnow_min             =   0.0000000000000E+00
(PID.TID 0000.0001) %MON seaice_hsnow_mean            =   3.4946880014200E-02
(PID.TID 0000.0001) %MON seaice_hsnow_sd              =   7.6457759461665E-02
(PID.TID 0000.0001) %MON seaice_hsnow_del2            =   2.4916394999240E-03
(PID.TID 0000.0001) %MON seaice_sitracer01_max        =   0.0000000000000E+00
(PID.TID 0000.0001) %MON seaice_sitracer01_min        =   0.0000000000000E+00
(PID.TID 0000.0001) %MON seaice_sitracer01_mean       =   0.0000000000000E+00
(PID.TID 0000.0001) %MON seaice_sitracer01_sd         =   0.0000000000000E+00
(PID.TID 0000.0001) %MON seaice_sitracer01_del2       =   0.0000000000000E+00
(PID.TID 0000.0001) %MON seaice_sitracer02_max        =   0.0000000000000E+00
(PID.TID 0000.0001) %MON seaice_sitracer02_min        =   0.0000000000000E+00
(PID.TID 0000.0001) %MON seaice_sitracer02_mean       =   0.0000000000000E+00
(PID.TID 0000.0001) %MON seaice_sitracer02_sd         =   0.0000000000000E+00
(PID.TID 0000.0001) %MON seaice_sitracer02_del2       =   0.0000000000000E+00
(PID.TID 0000.0001) // =======================================================
(PID.TID 0000.0001) // End MONITOR SEAICE statistics
(PID.TID 0000.0001) // =======================================================
(PID.TID 0000.0001)  MDS_READ_FIELD: opening global file: SSS_monthly.labsea1979
(PID.TID 0000.0001)  MDS_READ_FIELD: opening global file: SSS_monthly.labsea1979
(PID.TID 0000.0001)  MDS_READ_FIELD: opening global file: u10m.labsea1979
(PID.TID 0000.0001)  MDS_READ_FIELD: opening global file: u10m.labsea1979
(PID.TID 0000.0001)  MDS_READ_FIELD: opening global file: v10m.labsea1979
(PID.TID 0000.0001)  MDS_READ_FIELD: opening global file: v10m.labsea1979
(PID.TID 0000.0001)  MDS_READ_FIELD: opening global file: tair.labsea1979
(PID.TID 0000.0001)  MDS_READ_FIELD: opening global file: tair.labsea1979
(PID.TID 0000.0001)  MDS_READ_FIELD: opening global file: qa.labsea1979
(PID.TID 0000.0001)  MDS_READ_FIELD: opening global file: qa.labsea1979
(PID.TID 0000.0001)  MDS_READ_FIELD: opening global file: prate.labsea1979
(PID.TID 0000.0001)  MDS_READ_FIELD: opening global file: prate.labsea1979
(PID.TID 0000.0001)  MDS_READ_FIELD: opening global file: fsh.labsea1979
(PID.TID 0000.0001)  MDS_READ_FIELD: opening global file: fsh.labsea1979
(PID.TID 0000.0001)  MDS_READ_FIELD: opening global file: flo.labsea1979
(PID.TID 0000.0001)  MDS_READ_FIELD: opening global file: flo.labsea1979
(PID.TID 0000.0001) // =======================================================
(PID.TID 0000.0001) // Begin MONITOR EXF statistics
(PID.TID 0000.0001) // =======================================================
(PID.TID 0000.0001) %MON exf_tsnumber                 =                     1
(PID.TID 0000.0001) %MON exf_time_sec                 =   3.6000000000000E+03
(PID.TID 0000.0001) %MON exf_ustress_max              =   6.2604573658482E-02
(PID.TID 0000.0001) %MON exf_ustress_min              =  -9.3838135908031E-02
(PID.TID 0000.0001) %MON exf_ustress_mean             =   2.1955853069302E-02
(PID.TID 0000.0001) %MON exf_ustress_sd               =   2.6567270699742E-02
(PID.TID 0000.0001) %MON exf_ustress_del2             =   7.1493084999126E-04
(PID.TID 0000.0001) %MON exf_vstress_max              =   5.3856342580524E-02
(PID.TID 0000.0001) %MON exf_vstress_min              =  -5.9491621696902E-02
(PID.TID 0000.0001) %MON exf_vstress_mean             =  -5.3443301584531E-03
(PID.TID 0000.0001) %MON exf_vstress_sd               =   1.5041303210545E-02
(PID.TID 0000.0001) %MON exf_vstress_del2             =   5.0311210868729E-04
(PID.TID 0000.0001) %MON exf_hflux_max                =   6.3244153275825E+02
(PID.TID 0000.0001) %MON exf_hflux_min                =   8.9568462713760E+01
(PID.TID 0000.0001) %MON exf_hflux_mean               =   2.1892827358971E+02
(PID.TID 0000.0001) %MON exf_hflux_sd                 =   1.3395859134631E+02
(PID.TID 0000.0001) %MON exf_hflux_del2               =   1.3729921000727E+01
(PID.TID 0000.0001) %MON exf_sflux_max                =   4.0715172856145E-08
(PID.TID 0000.0001) %MON exf_sflux_min                =  -8.3161520051950E-08
(PID.TID 0000.0001) %MON exf_sflux_mean               =  -1.5743230075191E-08
(PID.TID 0000.0001) %MON exf_sflux_sd                 =   2.4386840924022E-08
(PID.TID 0000.0001) %MON exf_sflux_del2               =   1.6765052839554E-09
(PID.TID 0000.0001) %MON exf_uwind_max                =   6.4648819946852E+00
(PID.TID 0000.0001) %MON exf_uwind_min                =  -6.8372648550513E+00
(PID.TID 0000.0001) %MON exf_uwind_mean               =   2.7698802859475E+00
(PID.TID 0000.0001) %MON exf_uwind_sd                 =   2.9903162155877E+00
(PID.TID 0000.0001) %MON exf_uwind_del2               =   1.6625700739954E-01
(PID.TID 0000.0001) %MON exf_vwind_max                =   3.9240983933048E+00
(PID.TID 0000.0001) %MON exf_vwind_min                =  -6.0187974783892E+00
(PID.TID 0000.0001) %MON exf_vwind_mean               =  -7.6028090815952E-01
(PID.TID 0000.0001) %MON exf_vwind_sd                 =   1.7294518007626E+00
(PID.TID 0000.0001) %MON exf_vwind_del2               =   1.5097132217143E-01
(PID.TID 0000.0001) %MON exf_wspeed_max               =   7.8833202965791E+00
(PID.TID 0000.0001) %MON exf_wspeed_min               =   4.6010935417159E-01
(PID.TID 0000.0001) %MON exf_wspeed_mean              =   4.1982241536133E+00
(PID.TID 0000.0001) %MON exf_wspeed_sd                =   1.5994287774633E+00
(PID.TID 0000.0001) %MON exf_wspeed_del2              =   2.3646545747982E-01
(PID.TID 0000.0001) %MON exf_atemp_max                =   2.8188110034713E+02
(PID.TID 0000.0001) %MON exf_atemp_min                =   2.3645730413635E+02
(PID.TID 0000.0001) %MON exf_atemp_mean               =   2.6394141375606E+02
(PID.TID 0000.0001) %MON exf_atemp_sd                 =   1.1984878226631E+01
(PID.TID 0000.0001) %MON exf_atemp_del2               =   7.0555651533612E-01
(PID.TID 0000.0001) %MON exf_aqh_max                  =   6.3224764028055E-03
(PID.TID 0000.0001) %MON exf_aqh_min                  =   1.6359864467567E-04
(PID.TID 0000.0001) %MON exf_aqh_mean                 =   2.4798025537840E-03
(PID.TID 0000.0001) %MON exf_aqh_sd                   =   1.4264043737180E-03
(PID.TID 0000.0001) %MON exf_aqh_del2                 =   7.6495489306751E-05
(PID.TID 0000.0001) %MON exf_lwflux_max               =   1.8552399658577E+02
(PID.TID 0000.0001) %MON exf_lwflux_min               =   6.7048865976756E+01
(PID.TID 0000.0001) %MON exf_lwflux_mean              =   9.7802126999166E+01
(PID.TID 0000.0001) %MON exf_lwflux_sd                =   3.0992157612419E+01
(PID.TID 0000.0001) %MON exf_lwflux_del2              =   4.6155550890324E+00
(PID.TID 0000.0001) %MON exf_evap_max                 =   4.7038717969308E-08
(PID.TID 0000.0001) %MON exf_evap_min                 =   5.5285953006985E-09
(PID.TID 0000.0001) %MON exf_evap_mean                =   2.0646839623859E-08
(PID.TID 0000.0001) %MON exf_evap_sd                  =   6.9423663023095E-09
(PID.TID 0000.0001) %MON exf_evap_del2                =   1.0617997982515E-09
(PID.TID 0000.0001) %MON exf_precip_max               =   1.0498904445033E-07
(PID.TID 0000.0001) %MON exf_precip_min               =   2.7346106047101E-10
(PID.TID 0000.0001) %MON exf_precip_mean              =   3.6390069699050E-08
(PID.TID 0000.0001) %MON exf_precip_sd                =   2.0578598603627E-08
(PID.TID 0000.0001) %MON exf_precip_del2              =   1.6837812825023E-09
(PID.TID 0000.0001) %MON exf_swflux_max               =  -8.1206038349965E-02
(PID.TID 0000.0001) %MON exf_swflux_min               =  -6.3991984364244E+01
(PID.TID 0000.0001) %MON exf_swflux_mean              =  -2.6463755238823E+01
(PID.TID 0000.0001) %MON exf_swflux_sd                =   1.9629736696482E+01
(PID.TID 0000.0001) %MON exf_swflux_del2              =   7.7099997232451E-01
(PID.TID 0000.0001) %MON exf_swdown_max               =   7.1102204849160E+01
(PID.TID 0000.0001) %MON exf_swdown_min               =   9.0228931499961E-02
(PID.TID 0000.0001) %MON exf_swdown_mean              =   2.9404172487581E+01
(PID.TID 0000.0001) %MON exf_swdown_sd                =   2.1810818551646E+01
(PID.TID 0000.0001) %MON exf_swdown_del2              =   8.5666663591612E-01
(PID.TID 0000.0001) %MON exf_lwdown_max               =   3.0567089193375E+02
(PID.TID 0000.0001) %MON exf_lwdown_min               =   1.1598258522951E+02
(PID.TID 0000.0001) %MON exf_lwdown_mean              =   2.2593360963007E+02
(PID.TID 0000.0001) %MON exf_lwdown_sd                =   4.6281398610271E+01
(PID.TID 0000.0001) %MON exf_lwdown_del2              =   8.1732435942730E+00
(PID.TID 0000.0001) %MON exf_climsss_max              =   3.5040515633880E+01
(PID.TID 0000.0001) %MON exf_climsss_min              =   3.0667072499385E+01
(PID.TID 0000.0001) %MON exf_climsss_mean             =   3.3459840934468E+01
(PID.TID 0000.0001) %MON exf_climsss_sd               =   1.0318832207269E+00
(PID.TID 0000.0001) %MON exf_climsss_del2             =   2.6974851931992E-02
(PID.TID 0000.0001) // =======================================================
(PID.TID 0000.0001) // End MONITOR EXF statistics
(PID.TID 0000.0001) // =======================================================
 SEAICE_LSR: Residual Initial ipass,Uice,Vice=    1  2.45365435E-03  1.19816547E-03
 SEAICE_LSR: Residual FrDrift U_fd,V_fd=  2.22618608E+01  2.29082817E+00
 SEAICE_LSR (ipass=   1) iters,dU,Resid=   148  9.16516862E-13  1.01524400E-12
 SEAICE_LSR (ipass=   1) iters,dV,Resid=    86  9.10991768E-13  2.60431781E-11
 SEAICE_LSR: Residual Initial ipass,Uice,Vice=    2  8.35871226E-04  5.80784427E-04
 SEAICE_LSR: Residual FrDrift U_fd,V_fd=  2.23327228E+01  2.29290177E+00
 SEAICE_LSR (ipass=   2) iters,dU,Resid=   140  8.79331330E-13  1.31158534E-12
 SEAICE_LSR (ipass=   2) iters,dV,Resid=    90  7.44503417E-13  2.13074098E-11
(PID.TID 0000.0001) SOLVE_FOR_PRESSURE: putPmEinXvector =    F
 cg2d: Sum(rhs),rhsMax =  -1.33045152672651E-09  2.13230392713193E-01
(PID.TID 0000.0001)      cg2d_init_res =   3.53599278955063E+00
(PID.TID 0000.0001)      cg2d_iters(min,last) =      -1      44
(PID.TID 0000.0001)      cg2d_last_res =   9.11288248424409E-13
(PID.TID 0000.0001) // =======================================================
(PID.TID 0000.0001) // Begin MONITOR dynamic field statistics
(PID.TID 0000.0001) // =======================================================
(PID.TID 0000.0001) %MON time_tsnumber                =                     2
(PID.TID 0000.0001) %MON time_secondsf                =   7.2000000000000E+03
(PID.TID 0000.0001) %MON dynstat_eta_max              =   9.5475956470649E-02
(PID.TID 0000.0001) %MON dynstat_eta_min              =  -8.4675331520155E-02
(PID.TID 0000.0001) %MON dynstat_eta_mean             =   6.4129171291999E-12
(PID.TID 0000.0001) %MON dynstat_eta_sd               =   4.5360246296630E-02
(PID.TID 0000.0001) %MON dynstat_eta_del2             =   1.4314228887179E-03
(PID.TID 0000.0001) %MON dynstat_uvel_max             =   3.2164377216436E-02
(PID.TID 0000.0001) %MON dynstat_uvel_min             =  -4.1974328912026E-02
(PID.TID 0000.0001) %MON dynstat_uvel_mean            =  -1.1942602443795E-04
(PID.TID 0000.0001) %MON dynstat_uvel_sd              =   3.0281834385601E-03
(PID.TID 0000.0001) %MON dynstat_uvel_del2            =   1.4205993183214E-04
(PID.TID 0000.0001) %MON dynstat_vvel_max             =   3.7082357430143E-02
(PID.TID 0000.0001) %MON dynstat_vvel_min             =  -7.7887707287195E-02
(PID.TID 0000.0001) %MON dynstat_vvel_mean            =   5.9503212348350E-04
(PID.TID 0000.0001) %MON dynstat_vvel_sd              =   4.7198593905502E-03
(PID.TID 0000.0001) %MON dynstat_vvel_del2            =   1.9676801667742E-04
(PID.TID 0000.0001) %MON dynstat_wvel_max             =   2.4259950604564E-05
(PID.TID 0000.0001) %MON dynstat_wvel_min             =  -3.1937070042516E-05
(PID.TID 0000.0001) %MON dynstat_wvel_mean            =   0.0000000000000E+00
(PID.TID 0000.0001) %MON dynstat_wvel_sd              =   8.1510569731646E-06
(PID.TID 0000.0001) %MON dynstat_wvel_del2            =   2.0280721167052E-07
(PID.TID 0000.0001) %MON dynstat_theta_max            =   1.2478627309364E+01
(PID.TID 0000.0001) %MON dynstat_theta_min            =  -1.8595375518740E+00
(PID.TID 0000.0001) %MON dynstat_theta_mean           =   3.0790793261371E+00
(PID.TID 0000.0001) %MON dynstat_theta_sd             =   1.4438584796791E+00
(PID.TID 0000.0001) %MON dynstat_theta_del2           =   1.7421809595612E-02
(PID.TID 0000.0001) %MON dynstat_salt_max             =   3.5292881315839E+01
(PID.TID 0000.0001) %MON dynstat_salt_min             =   3.0708037152753E+01
(PID.TID 0000.0001) %MON dynstat_salt_mean            =   3.4757103856225E+01
(PID.TID 0000.0001) %MON dynstat_salt_sd              =   4.3069160488751E-01
(PID.TID 0000.0001) %MON dynstat_salt_del2            =   3.9746550946257E-03
(PID.TID 0000.0001) %MON forcing_qnet_max             =   2.6461261819161E+02
(PID.TID 0000.0001) %MON forcing_qnet_min             =   1.6658805855835E+01
(PID.TID 0000.0001) %MON forcing_qnet_mean            =   9.4265365618032E+01
(PID.TID 0000.0001) %MON forcing_qnet_sd              =   5.9369336528574E+01
(PID.TID 0000.0001) %MON forcing_qnet_del2            =   3.8888451615112E+00
(PID.TID 0000.0001) %MON forcing_qsw_max              =   0.0000000000000E+00
(PID.TID 0000.0001) %MON forcing_qsw_min              =  -6.3991984364244E+01
(PID.TID 0000.0001) %MON forcing_qsw_mean             =  -2.4415148147945E+01
(PID.TID 0000.0001) %MON forcing_qsw_sd               =   2.1173196972126E+01
(PID.TID 0000.0001) %MON forcing_qsw_del2             =   3.6617684218880E-01
(PID.TID 0000.0001) %MON forcing_empmr_max            =   4.9656133253839E-04
(PID.TID 0000.0001) %MON forcing_empmr_min            =  -7.6430931520296E-05
(PID.TID 0000.0001) %MON forcing_empmr_mean           =   3.6104297865477E-05
(PID.TID 0000.0001) %MON forcing_empmr_sd             =   1.1764612425519E-04
(PID.TID 0000.0001) %MON forcing_empmr_del2           =   1.4308471226388E-05
(PID.TID 0000.0001) %MON forcing_fu_max               =   6.3366075913761E-02
(PID.TID 0000.0001) %MON forcing_fu_min               =  -2.7008050412507E-02
(PID.TID 0000.0001) %MON forcing_fu_mean              =   2.5266237071933E-02
(PID.TID 0000.0001) %MON forcing_fu_sd                =   2.1466302962308E-02
(PID.TID 0000.0001) %MON forcing_fu_del2              =   7.2632791405345E-04
(PID.TID 0000.0001) %MON forcing_fv_max               =   1.4705854460915E-02
(PID.TID 0000.0001) %MON forcing_fv_min               =  -4.7645414377520E-02
(PID.TID 0000.0001) %MON forcing_fv_mean              =  -7.5113728971636E-03
(PID.TID 0000.0001) %MON forcing_fv_sd                =   1.5701430536184E-02
(PID.TID 0000.0001) %MON forcing_fv_del2              =   7.1236289400982E-04
(PID.TID 0000.0001) %MON trAdv_CFL_u_max              =   1.4967407335990E-03
(PID.TID 0000.0001) %MON trAdv_CFL_v_max              =   1.2973252574607E-03
(PID.TID 0000.0001) %MON trAdv_CFL_w_max              =   4.6247742739817E-03
(PID.TID 0000.0001) %MON advcfl_uvel_max              =   1.4966647458730E-03
(PID.TID 0000.0001) %MON advcfl_vvel_max              =   1.2608297639793E-03
(PID.TID 0000.0001) %MON advcfl_wvel_max              =   8.3524278369654E-03
(PID.TID 0000.0001) %MON advcfl_W_hf_max              =   5.0021622077504E-03
(PID.TID 0000.0001) %MON pe_b_mean                    =   6.7830286197418E-06
(PID.TID 0000.0001) %MON ke_max                       =   3.2395633015006E-03
(PID.TID 0000.0001) %MON ke_mean                      =   1.2437909586865E-05
(PID.TID 0000.0001) %MON ke_vol                       =   5.3036189546438E+15
(PID.TID 0000.0001) %MON vort_r_min                   =  -7.6739487560890E-07
(PID.TID 0000.0001) %MON vort_r_max                   =   3.1252663848292E-07
(PID.TID 0000.0001) %MON vort_a_mean                  =   1.2067277802747E-04
(PID.TID 0000.0001) %MON vort_a_sd                    =   8.8115129418849E-06
(PID.TID 0000.0001) %MON vort_p_mean                  =   1.7734843463898E-04
(PID.TID 0000.0001) %MON vort_p_sd                    =   1.1688317772760E-04
(PID.TID 0000.0001) %MON surfExpan_theta_mean         =  -3.3333296859539E-06
(PID.TID 0000.0001) %MON surfExpan_salt_mean          =   4.9804355861748E-07
(PID.TID 0000.0001) // =======================================================
(PID.TID 0000.0001) // End MONITOR dynamic field statistics
(PID.TID 0000.0001) // =======================================================
(PID.TID 0000.0001) // =======================================================
(PID.TID 0000.0001) // Begin MONITOR SEAICE statistics
(PID.TID 0000.0001) // =======================================================
(PID.TID 0000.0001) %MON seaice_tsnumber              =                     2
(PID.TID 0000.0001) %MON seaice_time_sec              =   7.2000000000000E+03
(PID.TID 0000.0001) %MON seaice_uice_max              =   1.7742102315695E-01
(PID.TID 0000.0001) %MON seaice_uice_min              =  -1.0519701538564E-01
(PID.TID 0000.0001) %MON seaice_uice_mean             =   7.0526474612333E-02
(PID.TID 0000.0001) %MON seaice_uice_sd               =   6.6404836173591E-02
(PID.TID 0000.0001) %MON seaice_uice_del2             =   2.0093625104355E-03
(PID.TID 0000.0001) %MON seaice_vice_max              =   6.4944553155060E-02
(PID.TID 0000.0001) %MON seaice_vice_min              =  -1.5087577428772E-01
(PID.TID 0000.0001) %MON seaice_vice_mean             =  -3.2134497695702E-02
(PID.TID 0000.0001) %MON seaice_vice_sd               =   5.2067623913895E-02
(PID.TID 0000.0001) %MON seaice_vice_del2             =   2.2640859005902E-03
(PID.TID 0000.0001) %MON seaice_area_max              =   9.9992544075972E-01
(PID.TID 0000.0001) %MON seaice_area_min              =   0.0000000000000E+00
(PID.TID 0000.0001) %MON seaice_area_mean             =   3.2751253019680E-01
(PID.TID 0000.0001) %MON seaice_area_sd               =   4.4529645575059E-01
(PID.TID 0000.0001) %MON seaice_area_del2             =   2.1135586816628E-02
(PID.TID 0000.0001) %MON seaice_heff_max              =   1.6268888067060E+00
(PID.TID 0000.0001) %MON seaice_heff_min              =   0.0000000000000E+00
(PID.TID 0000.0001) %MON seaice_heff_mean             =   1.8650332766812E-01
(PID.TID 0000.0001) %MON seaice_heff_sd               =   3.5906197919888E-01
(PID.TID 0000.0001) %MON seaice_heff_del2             =   9.4398857102010E-03
(PID.TID 0000.0001) %MON seaice_hsnow_max             =   4.0208976181749E-01
(PID.TID 0000.0001) %MON seaice_hsnow_min             =   0.0000000000000E+00
(PID.TID 0000.0001) %MON seaice_hsnow_mean            =   3.4997351248944E-02
(PID.TID 0000.0001) %MON seaice_hsnow_sd              =   7.6497127610512E-02
(PID.TID 0000.0001) %MON seaice_hsnow_del2            =   2.4940112896845E-03
(PID.TID 0000.0001) %MON seaice_sitracer01_max        =   3.5229625903961E-06
(PID.TID 0000.0001) %MON seaice_sitracer01_min        =   0.0000000000000E+00
(PID.TID 0000.0001) %MON seaice_sitracer01_mean       =   8.5714854285878E-08
(PID.TID 0000.0001) %MON seaice_sitracer01_sd         =   4.0404607531604E-07
(PID.TID 0000.0001) %MON seaice_sitracer01_del2       =   6.3418756880670E-08
(PID.TID 0000.0001) %MON seaice_sitracer02_max        =   1.0284862591221E+01
(PID.TID 0000.0001) %MON seaice_sitracer02_min        =   0.0000000000000E+00
(PID.TID 0000.0001) %MON seaice_sitracer02_mean       =   1.6236851330381E-01
(PID.TID 0000.0001) %MON seaice_sitracer02_sd         =   1.1703398173427E+00
(PID.TID 0000.0001) %MON seaice_sitracer02_del2       =   2.3387666563171E-01
(PID.TID 0000.0001) // =======================================================
(PID.TID 0000.0001) // End MONITOR SEAICE statistics
(PID.TID 0000.0001) // =======================================================
(PID.TID 0000.0001) // =======================================================
(PID.TID 0000.0001) // Begin MONITOR EXF statistics
(PID.TID 0000.0001) // =======================================================
(PID.TID 0000.0001) %MON exf_tsnumber                 =                     2
(PID.TID 0000.0001) %MON exf_time_sec                 =   7.2000000000000E+03
(PID.TID 0000.0001) %MON exf_ustress_max              =   6.2615568679718E-02
(PID.TID 0000.0001) %MON exf_ustress_min              =  -9.3840040703407E-02
(PID.TID 0000.0001) %MON exf_ustress_mean             =   2.1958379107585E-02
(PID.TID 0000.0001) %MON exf_ustress_sd               =   2.6571352964632E-02
(PID.TID 0000.0001) %MON exf_ustress_del2             =   7.1499535004367E-04
(PID.TID 0000.0001) %MON exf_vstress_max              =   5.3857639059817E-02
(PID.TID 0000.0001) %MON exf_vstress_min              =  -5.9464543707379E-02
(PID.TID 0000.0001) %MON exf_vstress_mean             =  -5.3396154089920E-03
(PID.TID 0000.0001) %MON exf_vstress_sd               =   1.5042339046874E-02
(PID.TID 0000.0001) %MON exf_vstress_del2             =   5.0311179900813E-04
(PID.TID 0000.0001) %MON exf_hflux_max                =   6.3247444018094E+02
(PID.TID 0000.0001) %MON exf_hflux_min                =   8.9563999826761E+01
(PID.TID 0000.0001) %MON exf_hflux_mean               =   2.1894445005062E+02
(PID.TID 0000.0001) %MON exf_hflux_sd                 =   1.3397885310582E+02
(PID.TID 0000.0001) %MON exf_hflux_del2               =   1.3733206445979E+01
(PID.TID 0000.0001) %MON exf_sflux_max                =   4.0712642810017E-08
(PID.TID 0000.0001) %MON exf_sflux_min                =  -8.3230791416937E-08
(PID.TID 0000.0001) %MON exf_sflux_mean               =  -1.5743904999042E-08
(PID.TID 0000.0001) %MON exf_sflux_sd                 =   2.4388839772049E-08
(PID.TID 0000.0001) %MON exf_sflux_del2               =   1.6767587076355E-09
(PID.TID 0000.0001) %MON exf_uwind_max                =   6.4653894471340E+00
(PID.TID 0000.0001) %MON exf_uwind_min                =  -6.8372916367536E+00
(PID.TID 0000.0001) %MON exf_uwind_mean               =   2.7699878382919E+00
(PID.TID 0000.0001) %MON exf_uwind_sd                 =   2.9905922217476E+00
(PID.TID 0000.0001) %MON exf_uwind_del2               =   8.0271529751792E-02
(PID.TID 0000.0001) %MON exf_vwind_max                =   3.9241285741003E+00
(PID.TID 0000.0001) %MON exf_vwind_min                =  -6.0178915685643E+00
(PID.TID 0000.0001) %MON exf_vwind_mean               =  -7.5966313506940E-01
(PID.TID 0000.0001) %MON exf_vwind_sd                 =   1.7295599554900E+00
(PID.TID 0000.0001) %MON exf_vwind_del2               =   4.8609699266683E-02
(PID.TID 0000.0001) %MON exf_wspeed_max               =   7.8833585477315E+00
(PID.TID 0000.0001) %MON exf_wspeed_min               =   4.5986651533145E-01
(PID.TID 0000.0001) %MON exf_wspeed_mean              =   4.1983267266652E+00
(PID.TID 0000.0001) %MON exf_wspeed_sd                =   1.5996852426804E+00
(PID.TID 0000.0001) %MON exf_wspeed_del2              =   2.3646299926724E-01
(PID.TID 0000.0001) %MON exf_atemp_max                =   2.8187938819427E+02
(PID.TID 0000.0001) %MON exf_atemp_min                =   2.3645283916869E+02
(PID.TID 0000.0001) %MON exf_atemp_mean               =   2.6393676967070E+02
(PID.TID 0000.0001) %MON exf_atemp_sd                 =   1.1986339246462E+01
(PID.TID 0000.0001) %MON exf_atemp_del2               =   7.0585416752362E-01
(PID.TID 0000.0001) %MON exf_aqh_max                  =   6.3217798619445E-03
(PID.TID 0000.0001) %MON exf_aqh_min                  =   1.6350454117726E-04
(PID.TID 0000.0001) %MON exf_aqh_mean                 =   2.4792421973794E-03
(PID.TID 0000.0001) %MON exf_aqh_sd                   =   1.4263013062694E-03
(PID.TID 0000.0001) %MON exf_aqh_del2                 =   7.6471629231506E-05
(PID.TID 0000.0001) %MON exf_lwflux_max               =   1.8553073915926E+02
(PID.TID 0000.0001) %MON exf_lwflux_min               =   6.7049468755504E+01
(PID.TID 0000.0001) %MON exf_lwflux_mean              =   9.7807300278435E+01
(PID.TID 0000.0001) %MON exf_lwflux_sd                =   3.0995927276803E+01
(PID.TID 0000.0001) %MON exf_lwflux_del2              =   4.6162719973695E+00
(PID.TID 0000.0001) %MON exf_evap_max                 =   4.7035525212249E-08
(PID.TID 0000.0001) %MON exf_evap_min                 =   5.5236328381400E-09
(PID.TID 0000.0001) %MON exf_evap_mean                =   2.0646153855974E-08
(PID.TID 0000.0001) %MON exf_evap_sd                  =   6.9413570604573E-09
(PID.TID 0000.0001) %MON exf_evap_del2                =   1.0618914937170E-09
(PID.TID 0000.0001) %MON exf_precip_max               =   1.0499042589295E-07
(PID.TID 0000.0001) %MON exf_precip_min               =   2.7332713399833E-10
(PID.TID 0000.0001) %MON exf_precip_mean              =   3.6390058855016E-08
(PID.TID 0000.0001) %MON exf_precip_sd                =   2.0579049691733E-08
(PID.TID 0000.0001) %MON exf_precip_del2              =   1.6840584643800E-09
(PID.TID 0000.0001) %MON exf_swflux_max               =  -8.1206321227746E-02
(PID.TID 0000.0001) %MON exf_swflux_min               =  -6.4010854714816E+01
(PID.TID 0000.0001) %MON exf_swflux_mean              =  -2.6474287454698E+01
(PID.TID 0000.0001) %MON exf_swflux_sd                =   1.9633572905820E+01
(PID.TID 0000.0001) %MON exf_swflux_del2              =   7.7140179220378E-01
(PID.TID 0000.0001) %MON exf_swdown_max               =   7.1123171905351E+01
(PID.TID 0000.0001) %MON exf_swdown_min               =   9.0229245808607E-02
(PID.TID 0000.0001) %MON exf_swdown_mean              =   2.9415874949665E+01
(PID.TID 0000.0001) %MON exf_swdown_sd                =   2.1815081006466E+01
(PID.TID 0000.0001) %MON exf_swdown_del2              =   8.5711310244864E-01
(PID.TID 0000.0001) %MON exf_lwdown_max               =   3.0566206584993E+02
(PID.TID 0000.0001) %MON exf_lwdown_min               =   1.1596747835086E+02
(PID.TID 0000.0001) %MON exf_lwdown_mean              =   2.2591790230100E+02
(PID.TID 0000.0001) %MON exf_lwdown_sd                =   4.6285369157135E+01
(PID.TID 0000.0001) %MON exf_lwdown_del2              =   8.1722892696108E+00
(PID.TID 0000.0001) %MON exf_climsss_max              =   3.5040700380919E+01
(PID.TID 0000.0001) %MON exf_climsss_min              =   3.0667831827383E+01
(PID.TID 0000.0001) %MON exf_climsss_mean             =   3.3460362267948E+01
(PID.TID 0000.0001) %MON exf_climsss_sd               =   1.0318117788237E+00
(PID.TID 0000.0001) %MON exf_climsss_del2             =   2.6973864151273E-02
(PID.TID 0000.0001) // =======================================================
(PID.TID 0000.0001) // End MONITOR EXF statistics
(PID.TID 0000.0001) // =======================================================
 SEAICE_LSR: Residual Initial ipass,Uice,Vice=    1  4.84190772E-03  2.11899092E-03
 SEAICE_LSR: Residual FrDrift U_fd,V_fd=  2.20326876E+01  2.27744793E+00
 SEAICE_LSR (ipass=   1) iters,dU,Resid=   150  8.12183654E-13  7.37261610E-13
 SEAICE_LSR (ipass=   1) iters,dV,Resid=    94  7.79086864E-13  2.22516818E-11
 SEAICE_LSR: Residual Initial ipass,Uice,Vice=    2  1.65354141E-03  1.18870158E-03
 SEAICE_LSR: Residual FrDrift U_fd,V_fd=  2.20347764E+01  2.27721688E+00
 SEAICE_LSR (ipass=   2) iters,dU,Resid=   150  8.89274765E-13  9.46732249E-13
 SEAICE_LSR (ipass=   2) iters,dV,Resid=    84  8.94538783E-13  2.55795442E-11
 cg2d: Sum(rhs),rhsMax =  -7.76079644992933E-10  3.65588535102395E-01
(PID.TID 0000.0001)      cg2d_init_res =   1.73392368705311E+00
(PID.TID 0000.0001)      cg2d_iters(min,last) =      -1      44
(PID.TID 0000.0001)      cg2d_last_res =   6.11992984773936E-13
(PID.TID 0000.0001) // =======================================================
(PID.TID 0000.0001) // Begin MONITOR dynamic field statistics
(PID.TID 0000.0001) // =======================================================
(PID.TID 0000.0001) %MON time_tsnumber                =                     3
(PID.TID 0000.0001) %MON time_secondsf                =   1.0800000000000E+04
(PID.TID 0000.0001) %MON dynstat_eta_max              =   9.5645201191783E-02
(PID.TID 0000.0001) %MON dynstat_eta_min              =  -1.0526911376085E-01
(PID.TID 0000.0001) %MON dynstat_eta_mean             =   6.4125153711304E-12
(PID.TID 0000.0001) %MON dynstat_eta_sd               =   4.6731859009462E-02
(PID.TID 0000.0001) %MON dynstat_eta_del2             =   1.7028824966816E-03
(PID.TID 0000.0001) %MON dynstat_uvel_max             =   3.6239535096733E-02
(PID.TID 0000.0001) %MON dynstat_uvel_min             =  -4.1134316536299E-02
(PID.TID 0000.0001) %MON dynstat_uvel_mean            =   2.7770444785498E-04
(PID.TID 0000.0001) %MON dynstat_uvel_sd              =   3.0093289838133E-03
(PID.TID 0000.0001) %MON dynstat_uvel_del2            =   1.6741289784122E-04
(PID.TID 0000.0001) %MON dynstat_vvel_max             =   3.6559820270108E-02
(PID.TID 0000.0001) %MON dynstat_vvel_min             =  -8.9935493213030E-02
(PID.TID 0000.0001) %MON dynstat_vvel_mean            =   1.7074962396918E-04
(PID.TID 0000.0001) %MON dynstat_vvel_sd              =   4.2914238841742E-03
(PID.TID 0000.0001) %MON dynstat_vvel_del2            =   1.9675236665463E-04
(PID.TID 0000.0001) %MON dynstat_wvel_max             =   2.8309768169516E-05
(PID.TID 0000.0001) %MON dynstat_wvel_min             =  -3.0303038504597E-05
(PID.TID 0000.0001) %MON dynstat_wvel_mean            =  -2.4715006035114E-23
(PID.TID 0000.0001) %MON dynstat_wvel_sd              =   6.7446922136842E-06
(PID.TID 0000.0001) %MON dynstat_wvel_del2            =   2.8153240971323E-07
(PID.TID 0000.0001) %MON dynstat_theta_max            =   1.2478269066725E+01
(PID.TID 0000.0001) %MON dynstat_theta_min            =  -1.8608573672857E+00
(PID.TID 0000.0001) %MON dynstat_theta_mean           =   3.0790206931362E+00
(PID.TID 0000.0001) %MON dynstat_theta_sd             =   1.4437852908020E+00
(PID.TID 0000.0001) %MON dynstat_theta_del2           =   1.7414702224998E-02
(PID.TID 0000.0001) %MON dynstat_salt_max             =   3.5292860570863E+01
(PID.TID 0000.0001) %MON dynstat_salt_min             =   3.0708063139031E+01
(PID.TID 0000.0001) %MON dynstat_salt_mean            =   3.4757105111176E+01
(PID.TID 0000.0001) %MON dynstat_salt_sd              =   4.3070652883003E-01
(PID.TID 0000.0001) %MON dynstat_salt_del2            =   3.9758902526576E-03
(PID.TID 0000.0001) %MON forcing_qnet_max             =   2.6130789716769E+02
(PID.TID 0000.0001) %MON forcing_qnet_min             =   1.6419797457607E+01
(PID.TID 0000.0001) %MON forcing_qnet_mean            =   9.4150696224403E+01
(PID.TID 0000.0001) %MON forcing_qnet_sd              =   5.9418824225701E+01
(PID.TID 0000.0001) %MON forcing_qnet_del2            =   3.8749947535900E+00
(PID.TID 0000.0001) %MON forcing_qsw_max              =  -5.9914039190409E-06
(PID.TID 0000.0001) %MON forcing_qsw_min              =  -6.4010854714816E+01
(PID.TID 0000.0001) %MON forcing_qsw_mean             =  -2.4420842662389E+01
(PID.TID 0000.0001) %MON forcing_qsw_sd               =   2.1178037211412E+01
(PID.TID 0000.0001) %MON forcing_qsw_del2             =   3.6445363564354E-01
(PID.TID 0000.0001) %MON forcing_empmr_max            =   4.9530805139589E-04
(PID.TID 0000.0001) %MON forcing_empmr_min            =  -7.3607871234005E-05
(PID.TID 0000.0001) %MON forcing_empmr_mean           =   3.6355926518651E-05
(PID.TID 0000.0001) %MON forcing_empmr_sd             =   1.1753566403577E-04
(PID.TID 0000.0001) %MON forcing_empmr_del2           =   1.4202102464454E-05
(PID.TID 0000.0001) %MON forcing_fu_max               =   6.3167117341443E-02
(PID.TID 0000.0001) %MON forcing_fu_min               =  -2.6849499041390E-02
(PID.TID 0000.0001) %MON forcing_fu_mean              =   2.5343143700227E-02
(PID.TID 0000.0001) %MON forcing_fu_sd                =   2.1483243379293E-02
(PID.TID 0000.0001) %MON forcing_fu_del2              =   7.5542172816355E-04
(PID.TID 0000.0001) %MON forcing_fv_max               =   1.4709566158737E-02
(PID.TID 0000.0001) %MON forcing_fv_min               =  -4.7708809454852E-02
(PID.TID 0000.0001) %MON forcing_fv_mean              =  -7.4816433016459E-03
(PID.TID 0000.0001) %MON forcing_fv_sd                =   1.5648663710965E-02
(PID.TID 0000.0001) %MON forcing_fv_del2              =   6.7643170607577E-04
(PID.TID 0000.0001) %MON trAdv_CFL_u_max              =   1.4127294934367E-03
(PID.TID 0000.0001) %MON trAdv_CFL_v_max              =   1.4979974498059E-03
(PID.TID 0000.0001) %MON trAdv_CFL_w_max              =   3.4375223594529E-03
(PID.TID 0000.0001) %MON advcfl_uvel_max              =   1.4126577708603E-03
(PID.TID 0000.0001) %MON advcfl_vvel_max              =   1.4558567793378E-03
(PID.TID 0000.0001) %MON advcfl_wvel_max              =   7.3193048813802E-03
(PID.TID 0000.0001) %MON advcfl_W_hf_max              =   3.4375223594529E-03
(PID.TID 0000.0001) %MON pe_b_mean                    =   7.1994439835734E-06
(PID.TID 0000.0001) %MON ke_max                       =   3.8866144686239E-03
(PID.TID 0000.0001) %MON ke_mean                      =   1.0788037456080E-05
(PID.TID 0000.0001) %MON ke_vol                       =   5.3036189546438E+15
(PID.TID 0000.0001) %MON vort_r_min                   =  -8.9932128755408E-07
(PID.TID 0000.0001) %MON vort_r_max                   =   4.0829229245612E-07
(PID.TID 0000.0001) %MON vort_a_mean                  =   1.2067277965697E-04
(PID.TID 0000.0001) %MON vort_a_sd                    =   8.8119267368860E-06
(PID.TID 0000.0001) %MON vort_p_mean                  =   1.7734843703380E-04
(PID.TID 0000.0001) %MON vort_p_sd                    =   1.1688437907255E-04
(PID.TID 0000.0001) %MON surfExpan_theta_mean         =   1.2477048424079E-06
(PID.TID 0000.0001) %MON surfExpan_salt_mean          =   3.2937863315805E-07
(PID.TID 0000.0001) // =======================================================
(PID.TID 0000.0001) // End MONITOR dynamic field statistics
(PID.TID 0000.0001) // =======================================================
(PID.TID 0000.0001) // =======================================================
(PID.TID 0000.0001) // Begin MONITOR SEAICE statistics
(PID.TID 0000.0001) // =======================================================
(PID.TID 0000.0001) %MON seaice_tsnumber              =                     3
(PID.TID 0000.0001) %MON seaice_time_sec              =   1.0800000000000E+04
(PID.TID 0000.0001) %MON seaice_uice_max              =   1.8095617029599E-01
(PID.TID 0000.0001) %MON seaice_uice_min              =  -1.1197180312675E-01
(PID.TID 0000.0001) %MON seaice_uice_mean             =   6.9065212008744E-02
(PID.TID 0000.0001) %MON seaice_uice_sd               =   6.6216217725814E-02
(PID.TID 0000.0001) %MON seaice_uice_del2             =   1.9593430288330E-03
(PID.TID 0000.0001) %MON seaice_vice_max              =   6.8020229849040E-02
(PID.TID 0000.0001) %MON seaice_vice_min              =  -1.5817855926473E-01
(PID.TID 0000.0001) %MON seaice_vice_mean             =  -3.2313881288464E-02
(PID.TID 0000.0001) %MON seaice_vice_sd               =   5.2372288970721E-02
(PID.TID 0000.0001) %MON seaice_vice_del2             =   2.3485153640659E-03
(PID.TID 0000.0001) %MON seaice_area_max              =   9.9985387993487E-01
(PID.TID 0000.0001) %MON seaice_area_min              =   0.0000000000000E+00
(PID.TID 0000.0001) %MON seaice_area_mean             =   3.2760591143935E-01
(PID.TID 0000.0001) %MON seaice_area_sd               =   4.4510442180312E-01
(PID.TID 0000.0001) %MON seaice_area_del2             =   2.1032924727750E-02
(PID.TID 0000.0001) %MON seaice_heff_max              =   1.6270773050562E+00
(PID.TID 0000.0001) %MON seaice_heff_min              =   0.0000000000000E+00
(PID.TID 0000.0001) %MON seaice_heff_mean             =   1.8672495352222E-01
(PID.TID 0000.0001) %MON seaice_heff_sd               =   3.5909723819938E-01
(PID.TID 0000.0001) %MON seaice_heff_del2             =   9.4228690986277E-03
(PID.TID 0000.0001) %MON seaice_hsnow_max             =   4.0218536873341E-01
(PID.TID 0000.0001) %MON seaice_hsnow_min             =   0.0000000000000E+00
(PID.TID 0000.0001) %MON seaice_hsnow_mean            =   3.5048329844059E-02
(PID.TID 0000.0001) %MON seaice_hsnow_sd              =   7.6536564739448E-02
(PID.TID 0000.0001) %MON seaice_hsnow_del2            =   2.4964008164117E-03
(PID.TID 0000.0001) %MON seaice_sitracer01_max        =   3.5226437703568E-06
(PID.TID 0000.0001) %MON seaice_sitracer01_min        =   0.0000000000000E+00
(PID.TID 0000.0001) %MON seaice_sitracer01_mean       =   8.5713008274822E-08
(PID.TID 0000.0001) %MON seaice_sitracer01_sd         =   4.0402737822378E-07
(PID.TID 0000.0001) %MON seaice_sitracer01_del2       =   6.3412732424104E-08
(PID.TID 0000.0001) %MON seaice_sitracer02_max        =   1.0284099052026E+01
(PID.TID 0000.0001) %MON seaice_sitracer02_min        =   0.0000000000000E+00
(PID.TID 0000.0001) %MON seaice_sitracer02_mean       =   1.8924640876518E-01
(PID.TID 0000.0001) %MON seaice_sitracer02_sd         =   1.1581157093327E+00
(PID.TID 0000.0001) %MON seaice_sitracer02_del2       =   2.2254014206377E-01
(PID.TID 0000.0001) // =======================================================
(PID.TID 0000.0001) // End MONITOR SEAICE statistics
(PID.TID 0000.0001) // =======================================================
(PID.TID 0000.0001) // =======================================================
(PID.TID 0000.0001) // Begin MONITOR EXF statistics
(PID.TID 0000.0001) // =======================================================
(PID.TID 0000.0001) %MON exf_tsnumber                 =                     3
(PID.TID 0000.0001) %MON exf_time_sec                 =   1.0800000000000E+04
(PID.TID 0000.0001) %MON exf_ustress_max              =   6.2626596423002E-02
(PID.TID 0000.0001) %MON exf_ustress_min              =  -9.3842007768554E-02
(PID.TID 0000.0001) %MON exf_ustress_mean             =   2.1960849179169E-02
(PID.TID 0000.0001) %MON exf_ustress_sd               =   2.6575371798665E-02
(PID.TID 0000.0001) %MON exf_ustress_del2             =   7.1504951768815E-04
(PID.TID 0000.0001) %MON exf_vstress_max              =   5.3858971284410E-02
(PID.TID 0000.0001) %MON exf_vstress_min              =  -5.9435694177173E-02
(PID.TID 0000.0001) %MON exf_vstress_mean             =  -5.3348369424298E-03
(PID.TID 0000.0001) %MON exf_vstress_sd               =   1.5043235192717E-02
(PID.TID 0000.0001) %MON exf_vstress_del2             =   5.0309877918972E-04
(PID.TID 0000.0001) %MON exf_hflux_max                =   6.3251132451410E+02
(PID.TID 0000.0001) %MON exf_hflux_min                =   8.9559380469906E+01
(PID.TID 0000.0001) %MON exf_hflux_mean               =   2.1895602126484E+02
(PID.TID 0000.0001) %MON exf_hflux_sd                 =   1.3399823247494E+02
(PID.TID 0000.0001) %MON exf_hflux_del2               =   1.3735981347670E+01
(PID.TID 0000.0001) %MON exf_sflux_max                =   4.0710636110170E-08
(PID.TID 0000.0001) %MON exf_sflux_min                =  -8.3310690472306E-08
(PID.TID 0000.0001) %MON exf_sflux_mean               =  -1.5745163637666E-08
(PID.TID 0000.0001) %MON exf_sflux_sd                 =   2.4390833542148E-08
(PID.TID 0000.0001) %MON exf_sflux_del2               =   1.6770203536256E-09
(PID.TID 0000.0001) %MON exf_uwind_max                =   6.4658968995829E+00
(PID.TID 0000.0001) %MON exf_uwind_min                =  -6.8373184184559E+00
(PID.TID 0000.0001) %MON exf_uwind_mean               =   2.7700953906363E+00
(PID.TID 0000.0001) %MON exf_uwind_sd                 =   2.9908682681638E+00
(PID.TID 0000.0001) %MON exf_uwind_del2               =   8.0271336255764E-02
(PID.TID 0000.0001) %MON exf_vwind_max                =   3.9241587548959E+00
(PID.TID 0000.0001) %MON exf_vwind_min                =  -6.0169856587394E+00
(PID.TID 0000.0001) %MON exf_vwind_mean               =  -7.5904536197929E-01
(PID.TID 0000.0001) %MON exf_vwind_sd                 =   1.7296682234552E+00
(PID.TID 0000.0001) %MON exf_vwind_del2               =   4.8609550037542E-02
(PID.TID 0000.0001) %MON exf_wspeed_max               =   7.8833967989048E+00
(PID.TID 0000.0001) %MON exf_wspeed_min               =   4.5962367887737E-01
(PID.TID 0000.0001) %MON exf_wspeed_mean              =   4.1984294286706E+00
(PID.TID 0000.0001) %MON exf_wspeed_sd                =   1.5999418201857E+00
(PID.TID 0000.0001) %MON exf_wspeed_del2              =   2.3646054790944E-01
(PID.TID 0000.0001) %MON exf_atemp_max                =   2.8187767604140E+02
(PID.TID 0000.0001) %MON exf_atemp_min                =   2.3644837420104E+02
(PID.TID 0000.0001) %MON exf_atemp_mean               =   2.6393212558534E+02
(PID.TID 0000.0001) %MON exf_atemp_sd                 =   1.1987800753926E+01
(PID.TID 0000.0001) %MON exf_atemp_del2               =   7.0615187686393E-01
(PID.TID 0000.0001) %MON exf_aqh_max                  =   6.3210833210834E-03
(PID.TID 0000.0001) %MON exf_aqh_min                  =   1.6341043767886E-04
(PID.TID 0000.0001) %MON exf_aqh_mean                 =   2.4786818409748E-03
(PID.TID 0000.0001) %MON exf_aqh_sd                   =   1.4261982746893E-03
(PID.TID 0000.0001) %MON exf_aqh_del2                 =   7.6447772192714E-05
(PID.TID 0000.0001) %MON exf_lwflux_max               =   1.8553765465168E+02
(PID.TID 0000.0001) %MON exf_lwflux_min               =   6.7050543717517E+01
(PID.TID 0000.0001) %MON exf_lwflux_mean              =   9.7811607324696E+01
(PID.TID 0000.0001) %MON exf_lwflux_sd                =   3.0999768484317E+01
(PID.TID 0000.0001) %MON exf_lwflux_del2              =   4.6168861195275E+00
(PID.TID 0000.0001) %MON exf_evap_max                 =   4.7032855801472E-08
(PID.TID 0000.0001) %MON exf_evap_min                 =   5.5188966390618E-09
(PID.TID 0000.0001) %MON exf_evap_mean                =   2.0644884373316E-08
(PID.TID 0000.0001) %MON exf_evap_sd                  =   6.9403480651048E-09
(PID.TID 0000.0001) %MON exf_evap_del2                =   1.0619122276246E-09
(PID.TID 0000.0001) %MON exf_precip_max               =   1.0499180733557E-07
(PID.TID 0000.0001) %MON exf_precip_min               =   2.7319320752566E-10
(PID.TID 0000.0001) %MON exf_precip_mean              =   3.6390048010982E-08
(PID.TID 0000.0001) %MON exf_precip_sd                =   2.0579501435483E-08
(PID.TID 0000.0001) %MON exf_precip_del2              =   1.6843356913630E-09
(PID.TID 0000.0001) %MON exf_swflux_max               =  -8.1206604105527E-02
(PID.TID 0000.0001) %MON exf_swflux_min               =  -6.4029725065388E+01
(PID.TID 0000.0001) %MON exf_swflux_mean              =  -2.6484819670573E+01
(PID.TID 0000.0001) %MON exf_swflux_sd                =   1.9637409707136E+01
(PID.TID 0000.0001) %MON exf_swflux_del2              =   7.7180369708849E-01
(PID.TID 0000.0001) %MON exf_swdown_max               =   7.1144138961542E+01
(PID.TID 0000.0001) %MON exf_swdown_min               =   9.0229560117253E-02
(PID.TID 0000.0001) %MON exf_swdown_mean              =   2.9427577411748E+01
(PID.TID 0000.0001) %MON exf_swdown_sd                =   2.1819344119040E+01
(PID.TID 0000.0001) %MON exf_swdown_del2              =   8.5755966343166E-01
(PID.TID 0000.0001) %MON exf_lwdown_max               =   3.0565323976611E+02
(PID.TID 0000.0001) %MON exf_lwdown_min               =   1.1595237147222E+02
(PID.TID 0000.0001) %MON exf_lwdown_mean              =   2.2590219497194E+02
(PID.TID 0000.0001) %MON exf_lwdown_sd                =   4.6289340871590E+01
(PID.TID 0000.0001) %MON exf_lwdown_del2              =   8.1713349858933E+00
(PID.TID 0000.0001) %MON exf_climsss_max              =   3.5040885127959E+01
(PID.TID 0000.0001) %MON exf_climsss_min              =   3.0668591155380E+01
(PID.TID 0000.0001) %MON exf_climsss_mean             =   3.3460883601427E+01
(PID.TID 0000.0001) %MON exf_climsss_sd               =   1.0317405668875E+00
(PID.TID 0000.0001) %MON exf_climsss_del2             =   2.6972899555616E-02
(PID.TID 0000.0001) // =======================================================
(PID.TID 0000.0001) // End MONITOR EXF statistics
(PID.TID 0000.0001) // =======================================================
 SEAICE_LSR: Residual Initial ipass,Uice,Vice=    1  2.14488713E-03  2.00197295E-03
 SEAICE_LSR: Residual FrDrift U_fd,V_fd=  2.19658407E+01  2.29732133E+00
 SEAICE_LSR (ipass=   1) iters,dU,Resid=   140  8.36764685E-13  1.05942506E-12
 SEAICE_LSR (ipass=   1) iters,dV,Resid=    94  9.56906429E-13  2.73017913E-11
 SEAICE_LSR: Residual Initial ipass,Uice,Vice=    2  7.89176160E-04  9.69463563E-04
 SEAICE_LSR: Residual FrDrift U_fd,V_fd=  2.19751880E+01  2.29742464E+00
 SEAICE_LSR (ipass=   2) iters,dU,Resid=   124  7.91165744E-13  1.28170637E-12
 SEAICE_LSR (ipass=   2) iters,dV,Resid=    90  9.64052622E-13  2.75634088E-11
 cg2d: Sum(rhs),rhsMax =  -7.46023937070461E-10  3.80291841340254E-01
(PID.TID 0000.0001)      cg2d_init_res =   2.95934314422385E-01
(PID.TID 0000.0001)      cg2d_iters(min,last) =      -1      42
(PID.TID 0000.0001)      cg2d_last_res =   8.42245976097852E-13
(PID.TID 0000.0001) // =======================================================
(PID.TID 0000.0001) // Begin MONITOR dynamic field statistics
(PID.TID 0000.0001) // =======================================================
(PID.TID 0000.0001) %MON time_tsnumber                =                     4
(PID.TID 0000.0001) %MON time_secondsf                =   1.4400000000000E+04
(PID.TID 0000.0001) %MON dynstat_eta_max              =   9.6183057853547E-02
(PID.TID 0000.0001) %MON dynstat_eta_min              =  -1.1630987558396E-01
(PID.TID 0000.0001) %MON dynstat_eta_mean             =   6.4126203079396E-12
(PID.TID 0000.0001) %MON dynstat_eta_sd               =   4.9643726978635E-02
(PID.TID 0000.0001) %MON dynstat_eta_del2             =   1.8790369045141E-03
(PID.TID 0000.0001) %MON dynstat_uvel_max             =   3.6095311116834E-02
(PID.TID 0000.0001) %MON dynstat_uvel_min             =  -4.0174454163927E-02
(PID.TID 0000.0001) %MON dynstat_uvel_mean            =   2.2535191813716E-04
(PID.TID 0000.0001) %MON dynstat_uvel_sd              =   3.1676392332237E-03
(PID.TID 0000.0001) %MON dynstat_uvel_del2            =   1.9912234048094E-04
(PID.TID 0000.0001) %MON dynstat_vvel_max             =   3.8646778651657E-02
(PID.TID 0000.0001) %MON dynstat_vvel_min             =  -1.0390943565833E-01
(PID.TID 0000.0001) %MON dynstat_vvel_mean            =  -2.6197825558285E-04
(PID.TID 0000.0001) %MON dynstat_vvel_sd              =   4.1299414250605E-03
(PID.TID 0000.0001) %MON dynstat_vvel_del2            =   2.2382835336862E-04
(PID.TID 0000.0001) %MON dynstat_wvel_max             =   5.1297640155724E-05
(PID.TID 0000.0001) %MON dynstat_wvel_min             =  -4.8851789744825E-05
(PID.TID 0000.0001) %MON dynstat_wvel_mean            =   1.9772004828091E-22
(PID.TID 0000.0001) %MON dynstat_wvel_sd              =   1.0650619446203E-05
(PID.TID 0000.0001) %MON dynstat_wvel_del2            =   4.3661206043071E-07
(PID.TID 0000.0001) %MON dynstat_theta_max            =   1.2477887724109E+01
(PID.TID 0000.0001) %MON dynstat_theta_min            =  -1.8621741331672E+00
(PID.TID 0000.0001) %MON dynstat_theta_mean           =   3.0789600666148E+00
(PID.TID 0000.0001) %MON dynstat_theta_sd             =   1.4437134687937E+00
(PID.TID 0000.0001) %MON dynstat_theta_del2           =   1.7409562811294E-02
(PID.TID 0000.0001) %MON dynstat_salt_max             =   3.5292839467911E+01
(PID.TID 0000.0001) %MON dynstat_salt_min             =   3.0708091511629E+01
(PID.TID 0000.0001) %MON dynstat_salt_mean            =   3.4757107177470E+01
(PID.TID 0000.0001) %MON dynstat_salt_sd              =   4.3071982066841E-01
(PID.TID 0000.0001) %MON dynstat_salt_del2            =   3.9781863159288E-03
(PID.TID 0000.0001) %MON forcing_qnet_max             =   2.5745873236831E+02
(PID.TID 0000.0001) %MON forcing_qnet_min             =   1.6203602231652E+01
(PID.TID 0000.0001) %MON forcing_qnet_mean            =   9.4014923173824E+01
(PID.TID 0000.0001) %MON forcing_qnet_sd              =   5.9502565935399E+01
(PID.TID 0000.0001) %MON forcing_qnet_del2            =   3.8785130534683E+00
(PID.TID 0000.0001) %MON forcing_qsw_max              =  -1.1837684036963E-05
(PID.TID 0000.0001) %MON forcing_qsw_min              =  -6.4029725065388E+01
(PID.TID 0000.0001) %MON forcing_qsw_mean             =  -2.4426368428646E+01
(PID.TID 0000.0001) %MON forcing_qsw_sd               =   2.1182930021638E+01
(PID.TID 0000.0001) %MON forcing_qsw_del2             =   3.6250753619127E-01
(PID.TID 0000.0001) %MON forcing_empmr_max            =   4.9424075769157E-04
(PID.TID 0000.0001) %MON forcing_empmr_min            =  -7.7246110715298E-05
(PID.TID 0000.0001) %MON forcing_empmr_mean           =   3.6657659731869E-05
(PID.TID 0000.0001) %MON forcing_empmr_sd             =   1.1760732043931E-04
(PID.TID 0000.0001) %MON forcing_empmr_del2           =   1.4142686934671E-05
(PID.TID 0000.0001) %MON forcing_fu_max               =   6.3033841270717E-02
(PID.TID 0000.0001) %MON forcing_fu_min               =  -2.6813667713002E-02
(PID.TID 0000.0001) %MON forcing_fu_mean              =   2.5295176284439E-02
(PID.TID 0000.0001) %MON forcing_fu_sd                =   2.1476506415073E-02
(PID.TID 0000.0001) %MON forcing_fu_del2              =   7.3449872586272E-04
(PID.TID 0000.0001) %MON forcing_fv_max               =   1.4713268908858E-02
(PID.TID 0000.0001) %MON forcing_fv_min               =  -4.7997167559159E-02
(PID.TID 0000.0001) %MON forcing_fv_mean              =  -7.4790393454903E-03
(PID.TID 0000.0001) %MON forcing_fv_sd                =   1.5598283400896E-02
(PID.TID 0000.0001) %MON forcing_fv_del2              =   6.5978729685463E-04
(PID.TID 0000.0001) %MON trAdv_CFL_u_max              =   1.3414927730640E-03
(PID.TID 0000.0001) %MON trAdv_CFL_v_max              =   1.7307523878059E-03
(PID.TID 0000.0001) %MON trAdv_CFL_w_max              =   3.1124829093446E-03
(PID.TID 0000.0001) %MON advcfl_uvel_max              =   1.3414246670901E-03
(PID.TID 0000.0001) %MON advcfl_vvel_max              =   1.6820640098345E-03
(PID.TID 0000.0001) %MON advcfl_wvel_max              =   6.2525383735965E-03
(PID.TID 0000.0001) %MON advcfl_W_hf_max              =   3.1124829093446E-03
(PID.TID 0000.0001) %MON pe_b_mean                    =   8.1245927036298E-06
(PID.TID 0000.0001) %MON ke_max                       =   4.7892981628618E-03
(PID.TID 0000.0001) %MON ke_mean                      =   1.0649606823605E-05
(PID.TID 0000.0001) %MON ke_vol                       =   5.3036189546438E+15
(PID.TID 0000.0001) %MON vort_r_min                   =  -1.0073897339221E-06
(PID.TID 0000.0001) %MON vort_r_max                   =   5.0999823768965E-07
(PID.TID 0000.0001) %MON vort_a_mean                  =   1.2067277933638E-04
(PID.TID 0000.0001) %MON vort_a_sd                    =   8.8118731323475E-06
(PID.TID 0000.0001) %MON vort_p_mean                  =   1.7734843656263E-04
(PID.TID 0000.0001) %MON vort_p_sd                    =   1.1688563050006E-04
(PID.TID 0000.0001) %MON surfExpan_theta_mean         =   2.1047653692674E-06
(PID.TID 0000.0001) %MON surfExpan_salt_mean          =   9.4320455291158E-09
(PID.TID 0000.0001) // =======================================================
(PID.TID 0000.0001) // End MONITOR dynamic field statistics
(PID.TID 0000.0001) // =======================================================
(PID.TID 0000.0001) // =======================================================
(PID.TID 0000.0001) // Begin MONITOR SEAICE statistics
(PID.TID 0000.0001) // =======================================================
(PID.TID 0000.0001) %MON seaice_tsnumber              =                     4
(PID.TID 0000.0001) %MON seaice_time_sec              =   1.4400000000000E+04
(PID.TID 0000.0001) %MON seaice_uice_max              =   1.8443933156828E-01
(PID.TID 0000.0001) %MON seaice_uice_min              =  -1.1484357568455E-01
(PID.TID 0000.0001) %MON seaice_uice_mean             =   6.9803496912660E-02
(PID.TID 0000.0001) %MON seaice_uice_sd               =   6.6394669537260E-02
(PID.TID 0000.0001) %MON seaice_uice_del2             =   2.0008411126371E-03
(PID.TID 0000.0001) %MON seaice_vice_max              =   7.2586122040414E-02
(PID.TID 0000.0001) %MON seaice_vice_min              =  -1.6969012471049E-01
(PID.TID 0000.0001) %MON seaice_vice_mean             =  -3.1731220638160E-02
(PID.TID 0000.0001) %MON seaice_vice_sd               =   5.2206338921032E-02
(PID.TID 0000.0001) %MON seaice_vice_del2             =   2.3702021234657E-03
(PID.TID 0000.0001) %MON seaice_area_max              =   9.9978437944087E-01
(PID.TID 0000.0001) %MON seaice_area_min              =   0.0000000000000E+00
(PID.TID 0000.0001) %MON seaice_area_mean             =   3.2770354352893E-01
(PID.TID 0000.0001) %MON seaice_area_sd               =   4.4491681972588E-01
(PID.TID 0000.0001) %MON seaice_area_del2             =   2.0934120055822E-02
(PID.TID 0000.0001) %MON seaice_heff_max              =   1.6272697516579E+00
(PID.TID 0000.0001) %MON seaice_heff_min              =   0.0000000000000E+00
(PID.TID 0000.0001) %MON seaice_heff_mean             =   1.8694777356763E-01
(PID.TID 0000.0001) %MON seaice_heff_sd               =   3.5913437703940E-01
(PID.TID 0000.0001) %MON seaice_heff_del2             =   9.4063163918628E-03
(PID.TID 0000.0001) %MON seaice_hsnow_max             =   4.0228097404741E-01
(PID.TID 0000.0001) %MON seaice_hsnow_min             =   0.0000000000000E+00
(PID.TID 0000.0001) %MON seaice_hsnow_mean            =   3.5099352763813E-02
(PID.TID 0000.0001) %MON seaice_hsnow_sd              =   7.6576065667839E-02
(PID.TID 0000.0001) %MON seaice_hsnow_del2            =   2.4988318354051E-03
(PID.TID 0000.0001) %MON seaice_sitracer01_max        =   3.5224063403509E-06
(PID.TID 0000.0001) %MON seaice_sitracer01_min        =   0.0000000000000E+00
(PID.TID 0000.0001) %MON seaice_sitracer01_mean       =   8.5711337274990E-08
(PID.TID 0000.0001) %MON seaice_sitracer01_sd         =   4.0401199382162E-07
(PID.TID 0000.0001) %MON seaice_sitracer01_del2       =   6.3408137217595E-08
(PID.TID 0000.0001) %MON seaice_sitracer02_max        =   1.0283032412837E+01
(PID.TID 0000.0001) %MON seaice_sitracer02_min        =   0.0000000000000E+00
(PID.TID 0000.0001) %MON seaice_sitracer02_mean       =   2.1561285279779E-01
(PID.TID 0000.0001) %MON seaice_sitracer02_sd         =   1.1624952215707E+00
(PID.TID 0000.0001) %MON seaice_sitracer02_del2       =   2.1772204457752E-01
(PID.TID 0000.0001) // =======================================================
(PID.TID 0000.0001) // End MONITOR SEAICE statistics
(PID.TID 0000.0001) // =======================================================
(PID.TID 0000.0001) // =======================================================
(PID.TID 0000.0001) // Begin MONITOR EXF statistics
(PID.TID 0000.0001) // =======================================================
(PID.TID 0000.0001) %MON exf_tsnumber                 =                     4
(PID.TID 0000.0001) %MON exf_time_sec                 =   1.4400000000000E+04
(PID.TID 0000.0001) %MON exf_ustress_max              =   6.2637662918303E-02
(PID.TID 0000.0001) %MON exf_ustress_min              =  -9.3844012196354E-02
(PID.TID 0000.0001) %MON exf_ustress_mean             =   2.1963305650272E-02
(PID.TID 0000.0001) %MON exf_ustress_sd               =   2.6579384395229E-02
(PID.TID 0000.0001) %MON exf_ustress_del2             =   7.1510363244049E-04
(PID.TID 0000.0001) %MON exf_vstress_max              =   5.3860324959652E-02
(PID.TID 0000.0001) %MON exf_vstress_min              =  -5.9408377467975E-02
(PID.TID 0000.0001) %MON exf_vstress_mean             =  -5.3300618008745E-03
(PID.TID 0000.0001) %MON exf_vstress_sd               =   1.5044160246036E-02
(PID.TID 0000.0001) %MON exf_vstress_del2             =   5.0308736334012E-04
(PID.TID 0000.0001) %MON exf_hflux_max                =   6.3255059622568E+02
(PID.TID 0000.0001) %MON exf_hflux_min                =   8.9555675542291E+01
(PID.TID 0000.0001) %MON exf_hflux_mean               =   2.1896728971863E+02
(PID.TID 0000.0001) %MON exf_hflux_sd                 =   1.3401834534275E+02
(PID.TID 0000.0001) %MON exf_hflux_del2               =   1.3738792921857E+01
(PID.TID 0000.0001) %MON exf_sflux_max                =   4.0708943585236E-08
(PID.TID 0000.0001) %MON exf_sflux_min                =  -8.3381132526522E-08
(PID.TID 0000.0001) %MON exf_sflux_mean               =  -1.5746468470274E-08
(PID.TID 0000.0001) %MON exf_sflux_sd                 =   2.4392705569090E-08
(PID.TID 0000.0001) %MON exf_sflux_del2               =   1.6772941782343E-09
(PID.TID 0000.0001) %MON exf_uwind_max                =   6.4664043520318E+00
(PID.TID 0000.0001) %MON exf_uwind_min                =  -6.8373452001582E+00
(PID.TID 0000.0001) %MON exf_uwind_mean               =   2.7702029429808E+00
(PID.TID 0000.0001) %MON exf_uwind_sd                 =   2.9911443548250E+00
(PID.TID 0000.0001) %MON exf_uwind_del2               =   8.0271146151667E-02
(PID.TID 0000.0001) %MON exf_vwind_max                =   3.9241889356915E+00
(PID.TID 0000.0001) %MON exf_vwind_min                =  -6.0160797489145E+00
(PID.TID 0000.0001) %MON exf_vwind_mean               =  -7.5842758888917E-01
(PID.TID 0000.0001) %MON exf_vwind_sd                 =   1.7297766046368E+00
(PID.TID 0000.0001) %MON exf_vwind_del2               =   4.8609407634246E-02
(PID.TID 0000.0001) %MON exf_wspeed_max               =   7.8834350500991E+00
(PID.TID 0000.0001) %MON exf_wspeed_min               =   4.5938084481311E-01
(PID.TID 0000.0001) %MON exf_wspeed_mean              =   4.1985322596174E+00
(PID.TID 0000.0001) %MON exf_wspeed_sd                =   1.6001985099325E+00
(PID.TID 0000.0001) %MON exf_wspeed_del2              =   2.3645810341537E-01
(PID.TID 0000.0001) %MON exf_atemp_max                =   2.8187596388853E+02
(PID.TID 0000.0001) %MON exf_atemp_min                =   2.3644390923339E+02
(PID.TID 0000.0001) %MON exf_atemp_mean               =   2.6392748149999E+02
(PID.TID 0000.0001) %MON exf_atemp_sd                 =   1.1989262748844E+01
(PID.TID 0000.0001) %MON exf_atemp_del2               =   7.0644964328481E-01
(PID.TID 0000.0001) %MON exf_aqh_max                  =   6.3203867802223E-03
(PID.TID 0000.0001) %MON exf_aqh_min                  =   1.6331633418045E-04
(PID.TID 0000.0001) %MON exf_aqh_mean                 =   2.4781214845702E-03
(PID.TID 0000.0001) %MON exf_aqh_sd                   =   1.4260952789855E-03
(PID.TID 0000.0001) %MON exf_aqh_del2                 =   7.6423918193220E-05
(PID.TID 0000.0001) %MON exf_lwflux_max               =   1.8554465196725E+02
(PID.TID 0000.0001) %MON exf_lwflux_min               =   6.7051811484901E+01
(PID.TID 0000.0001) %MON exf_lwflux_mean              =   9.7815824385534E+01
(PID.TID 0000.0001) %MON exf_lwflux_sd                =   3.1003762842042E+01
(PID.TID 0000.0001) %MON exf_lwflux_del2              =   4.6175047447250E+00
(PID.TID 0000.0001) %MON exf_evap_max                 =   4.7030500565607E-08
(PID.TID 0000.0001) %MON exf_evap_min                 =   5.5138765592124E-09
(PID.TID 0000.0001) %MON exf_evap_mean                =   2.0643568696673E-08
(PID.TID 0000.0001) %MON exf_evap_sd                  =   6.9393883857729E-09
(PID.TID 0000.0001) %MON exf_evap_del2                =   1.0619360154092E-09
(PID.TID 0000.0001) %MON exf_precip_max               =   1.0499318877820E-07
(PID.TID 0000.0001) %MON exf_precip_min               =   2.7305928105298E-10
(PID.TID 0000.0001) %MON exf_precip_mean              =   3.6390037166947E-08
(PID.TID 0000.0001) %MON exf_precip_sd                =   2.0579953834835E-08
(PID.TID 0000.0001) %MON exf_precip_del2              =   1.6846129634290E-09
(PID.TID 0000.0001) %MON exf_swflux_max               =  -8.1206886983309E-02
(PID.TID 0000.0001) %MON exf_swflux_min               =  -6.4048595415960E+01
(PID.TID 0000.0001) %MON exf_swflux_mean              =  -2.6495351886448E+01
(PID.TID 0000.0001) %MON exf_swflux_sd                =   1.9641247100083E+01
(PID.TID 0000.0001) %MON exf_swflux_del2              =   7.7220568684593E-01
(PID.TID 0000.0001) %MON exf_swdown_max               =   7.1165106017733E+01
(PID.TID 0000.0001) %MON exf_swdown_min               =   9.0229874425898E-02
(PID.TID 0000.0001) %MON exf_swdown_mean              =   2.9439279873831E+01
(PID.TID 0000.0001) %MON exf_swdown_sd                =   2.1823607888981E+01
(PID.TID 0000.0001) %MON exf_swdown_del2              =   8.5800631871770E-01
(PID.TID 0000.0001) %MON exf_lwdown_max               =   3.0564441368228E+02
(PID.TID 0000.0001) %MON exf_lwdown_min               =   1.1593726459357E+02
(PID.TID 0000.0001) %MON exf_lwdown_mean              =   2.2588648764287E+02
(PID.TID 0000.0001) %MON exf_lwdown_sd                =   4.6293313753333E+01
(PID.TID 0000.0001) %MON exf_lwdown_del2              =   8.1703807431350E+00
(PID.TID 0000.0001) %MON exf_climsss_max              =   3.5041069874998E+01
(PID.TID 0000.0001) %MON exf_climsss_min              =   3.0669350483378E+01
(PID.TID 0000.0001) %MON exf_climsss_mean             =   3.3461404934907E+01
(PID.TID 0000.0001) %MON exf_climsss_sd               =   1.0316695849659E+00
(PID.TID 0000.0001) %MON exf_climsss_del2             =   2.6971958147510E-02
(PID.TID 0000.0001) // =======================================================
(PID.TID 0000.0001) // End MONITOR EXF statistics
(PID.TID 0000.0001) // =======================================================
 SEAICE_LSR: Residual Initial ipass,Uice,Vice=    1  2.35632560E-03  1.83946377E-03
 SEAICE_LSR: Residual FrDrift U_fd,V_fd=  2.18418836E+01  2.30904303E+00
 SEAICE_LSR (ipass=   1) iters,dU,Resid=   168  9.84989867E-13  1.32248653E-12
 SEAICE_LSR (ipass=   1) iters,dV,Resid=    90  9.25502296E-13  2.64548916E-11
 SEAICE_LSR: Residual Initial ipass,Uice,Vice=    2  7.95360815E-04  9.08417813E-04
 SEAICE_LSR: Residual FrDrift U_fd,V_fd=  2.18625269E+01  2.30961508E+00
 SEAICE_LSR (ipass=   2) iters,dU,Resid=   144  9.84604759E-13  1.31409936E-12
 SEAICE_LSR (ipass=   2) iters,dV,Resid=    92  7.90439762E-13  2.26392096E-11
 cg2d: Sum(rhs),rhsMax =  -7.61694762818621E-10  3.72475327759004E-01
(PID.TID 0000.0001)      cg2d_init_res =   1.45478882761482E-01
(PID.TID 0000.0001)      cg2d_iters(min,last) =      -1      42
(PID.TID 0000.0001)      cg2d_last_res =   5.29657268475873E-13
(PID.TID 0000.0001) // =======================================================
(PID.TID 0000.0001) // Begin MONITOR dynamic field statistics
(PID.TID 0000.0001) // =======================================================
(PID.TID 0000.0001) %MON time_tsnumber                =                     5
(PID.TID 0000.0001) %MON time_secondsf                =   1.8000000000000E+04
(PID.TID 0000.0001) %MON dynstat_eta_max              =   9.5862795490336E-02
(PID.TID 0000.0001) %MON dynstat_eta_min              =  -1.1762975684595E-01
(PID.TID 0000.0001) %MON dynstat_eta_mean             =   6.4129214123349E-12
(PID.TID 0000.0001) %MON dynstat_eta_sd               =   5.1555910904450E-02
(PID.TID 0000.0001) %MON dynstat_eta_del2             =   1.8754087362524E-03
(PID.TID 0000.0001) %MON dynstat_uvel_max             =   3.6412625126794E-02
(PID.TID 0000.0001) %MON dynstat_uvel_min             =  -4.1844194362150E-02
(PID.TID 0000.0001) %MON dynstat_uvel_mean            =   1.1941561918848E-04
(PID.TID 0000.0001) %MON dynstat_uvel_sd              =   3.6137360921703E-03
(PID.TID 0000.0001) %MON dynstat_uvel_del2            =   2.4040841546826E-04
(PID.TID 0000.0001) %MON dynstat_vvel_max             =   4.1417706095325E-02
(PID.TID 0000.0001) %MON dynstat_vvel_min             =  -1.1532043766594E-01
(PID.TID 0000.0001) %MON dynstat_vvel_mean            =  -2.8435909108700E-04
(PID.TID 0000.0001) %MON dynstat_vvel_sd              =   4.3330293937942E-03
(PID.TID 0000.0001) %MON dynstat_vvel_del2            =   2.6801945268716E-04
(PID.TID 0000.0001) %MON dynstat_wvel_max             =   7.4604111906474E-05
(PID.TID 0000.0001) %MON dynstat_wvel_min             =  -6.2751760084056E-05
(PID.TID 0000.0001) %MON dynstat_wvel_mean            =   1.4829003621068E-22
(PID.TID 0000.0001) %MON dynstat_wvel_sd              =   1.4781283498847E-05
(PID.TID 0000.0001) %MON dynstat_wvel_del2            =   5.9177337438900E-07
(PID.TID 0000.0001) %MON dynstat_theta_max            =   1.2477547005130E+01
(PID.TID 0000.0001) %MON dynstat_theta_min            =  -1.8635062058600E+00
(PID.TID 0000.0001) %MON dynstat_theta_mean           =   3.0789011868377E+00
(PID.TID 0000.0001) %MON dynstat_theta_sd             =   1.4436474292526E+00
(PID.TID 0000.0001) %MON dynstat_theta_del2           =   1.7403737266176E-02
(PID.TID 0000.0001) %MON dynstat_salt_max             =   3.5292819016240E+01
(PID.TID 0000.0001) %MON dynstat_salt_min             =   3.0708125778897E+01
(PID.TID 0000.0001) %MON dynstat_salt_mean            =   3.4757109603984E+01
(PID.TID 0000.0001) %MON dynstat_salt_sd              =   4.3073248046616E-01
(PID.TID 0000.0001) %MON dynstat_salt_del2            =   3.9813016264503E-03
(PID.TID 0000.0001) %MON forcing_qnet_max             =   2.5403423811369E+02
(PID.TID 0000.0001) %MON forcing_qnet_min             =   1.5987907412243E+01
(PID.TID 0000.0001) %MON forcing_qnet_mean            =   9.3880922875815E+01
(PID.TID 0000.0001) %MON forcing_qnet_sd              =   5.9595427289178E+01
(PID.TID 0000.0001) %MON forcing_qnet_del2            =   3.8843714518725E+00
(PID.TID 0000.0001) %MON forcing_qsw_max              =  -1.7528534350399E-05
(PID.TID 0000.0001) %MON forcing_qsw_min              =  -6.4048595415960E+01
(PID.TID 0000.0001) %MON forcing_qsw_mean             =  -2.4431840254664E+01
(PID.TID 0000.0001) %MON forcing_qsw_sd               =   2.1187886102623E+01
(PID.TID 0000.0001) %MON forcing_qsw_del2             =   3.6057958827726E-01
(PID.TID 0000.0001) %MON forcing_empmr_max            =   4.9312397000416E-04
(PID.TID 0000.0001) %MON forcing_empmr_min            =  -8.0258622924840E-05
(PID.TID 0000.0001) %MON forcing_empmr_mean           =   3.6952386926214E-05
(PID.TID 0000.0001) %MON forcing_empmr_sd             =   1.1769078827114E-04
(PID.TID 0000.0001) %MON forcing_empmr_del2           =   1.4085967024140E-05
(PID.TID 0000.0001) %MON forcing_fu_max               =   6.3108487399895E-02
(PID.TID 0000.0001) %MON forcing_fu_min               =  -2.6804306469859E-02
(PID.TID 0000.0001) %MON forcing_fu_mean              =   2.5284936020089E-02
(PID.TID 0000.0001) %MON forcing_fu_sd                =   2.1500267058135E-02
(PID.TID 0000.0001) %MON forcing_fu_del2              =   7.1872881983060E-04
(PID.TID 0000.0001) %MON forcing_fv_max               =   1.4716956972865E-02
(PID.TID 0000.0001) %MON forcing_fv_min               =  -4.7002876388753E-02
(PID.TID 0000.0001) %MON forcing_fv_mean              =  -7.4871123012566E-03
(PID.TID 0000.0001) %MON forcing_fv_sd                =   1.5574309463590E-02
(PID.TID 0000.0001) %MON forcing_fv_del2              =   6.4693650917614E-04
(PID.TID 0000.0001) %MON trAdv_CFL_u_max              =   1.3972482140631E-03
(PID.TID 0000.0001) %MON trAdv_CFL_v_max              =   1.9208180815209E-03
(PID.TID 0000.0001) %MON trAdv_CFL_w_max              =   3.2065648511648E-03
(PID.TID 0000.0001) %MON advcfl_uvel_max              =   1.3971772774526E-03
(PID.TID 0000.0001) %MON advcfl_vvel_max              =   1.8667829015458E-03
(PID.TID 0000.0001) %MON advcfl_wvel_max              =   3.7548060680274E-03
(PID.TID 0000.0001) %MON advcfl_W_hf_max              =   3.2065648511648E-03
(PID.TID 0000.0001) %MON pe_b_mean                    =   8.7625350964936E-06
(PID.TID 0000.0001) %MON ke_max                       =   5.6525425700190E-03
(PID.TID 0000.0001) %MON ke_mean                      =   1.2503572289528E-05
(PID.TID 0000.0001) %MON ke_vol                       =   5.3036189546438E+15
(PID.TID 0000.0001) %MON vort_r_min                   =  -1.0682461689477E-06
(PID.TID 0000.0001) %MON vort_r_max                   =   5.9479073023658E-07
(PID.TID 0000.0001) %MON vort_a_mean                  =   1.2067277941782E-04
(PID.TID 0000.0001) %MON vort_a_sd                    =   8.8117729009299E-06
(PID.TID 0000.0001) %MON vort_p_mean                  =   1.7734843668232E-04
(PID.TID 0000.0001) %MON vort_p_sd                    =   1.1688582859943E-04
(PID.TID 0000.0001) %MON surfExpan_theta_mean         =   1.4150674561996E-06
(PID.TID 0000.0001) %MON surfExpan_salt_mean          =  -1.2531223218156E-07
(PID.TID 0000.0001) // =======================================================
(PID.TID 0000.0001) // End MONITOR dynamic field statistics
(PID.TID 0000.0001) // =======================================================
(PID.TID 0000.0001) // =======================================================
(PID.TID 0000.0001) // Begin MONITOR SEAICE statistics
(PID.TID 0000.0001) // =======================================================
(PID.TID 0000.0001) %MON seaice_tsnumber              =                     5
(PID.TID 0000.0001) %MON seaice_time_sec              =   1.8000000000000E+04
(PID.TID 0000.0001) %MON seaice_uice_max              =   1.8810214985412E-01
(PID.TID 0000.0001) %MON seaice_uice_min              =  -1.1714000733056E-01
(PID.TID 0000.0001) %MON seaice_uice_mean             =   7.0597860814253E-02
(PID.TID 0000.0001) %MON seaice_uice_sd               =   6.7022142820982E-02
(PID.TID 0000.0001) %MON seaice_uice_del2             =   2.0555026175122E-03
(PID.TID 0000.0001) %MON seaice_vice_max              =   7.6878368390592E-02
(PID.TID 0000.0001) %MON seaice_vice_min              =  -1.8226406606883E-01
(PID.TID 0000.0001) %MON seaice_vice_mean             =  -3.1942223959996E-02
(PID.TID 0000.0001) %MON seaice_vice_sd               =   5.3257092858045E-02
(PID.TID 0000.0001) %MON seaice_vice_del2             =   2.4922369811088E-03
(PID.TID 0000.0001) %MON seaice_area_max              =   9.9971688783852E-01
(PID.TID 0000.0001) %MON seaice_area_min              =   0.0000000000000E+00
(PID.TID 0000.0001) %MON seaice_area_mean             =   3.2780558108436E-01
(PID.TID 0000.0001) %MON seaice_area_sd               =   4.4473147595754E-01
(PID.TID 0000.0001) %MON seaice_area_del2             =   2.0836847301564E-02
(PID.TID 0000.0001) %MON seaice_heff_max              =   1.6274660752433E+00
(PID.TID 0000.0001) %MON seaice_heff_min              =   0.0000000000000E+00
(PID.TID 0000.0001) %MON seaice_heff_mean             =   1.8717176270204E-01
(PID.TID 0000.0001) %MON seaice_heff_sd               =   3.5917306037389E-01
(PID.TID 0000.0001) %MON seaice_heff_del2             =   9.3900976426169E-03
(PID.TID 0000.0001) %MON seaice_hsnow_max             =   4.0237658130815E-01
(PID.TID 0000.0001) %MON seaice_hsnow_min             =   0.0000000000000E+00
(PID.TID 0000.0001) %MON seaice_hsnow_mean            =   3.5150413868852E-02
(PID.TID 0000.0001) %MON seaice_hsnow_sd              =   7.6615579719361E-02
(PID.TID 0000.0001) %MON seaice_hsnow_del2            =   2.5012693568182E-03
(PID.TID 0000.0001) %MON seaice_sitracer01_max        =   3.5221850565896E-06
(PID.TID 0000.0001) %MON seaice_sitracer01_min        =   0.0000000000000E+00
(PID.TID 0000.0001) %MON seaice_sitracer01_mean       =   8.5709835635730E-08
(PID.TID 0000.0001) %MON seaice_sitracer01_sd         =   4.0399757696812E-07
(PID.TID 0000.0001) %MON seaice_sitracer01_del2       =   6.3403685472382E-08
(PID.TID 0000.0001) %MON seaice_sitracer02_max        =   1.0281803832336E+01
(PID.TID 0000.0001) %MON seaice_sitracer02_min        =   0.0000000000000E+00
(PID.TID 0000.0001) %MON seaice_sitracer02_mean       =   2.4201360184438E-01
(PID.TID 0000.0001) %MON seaice_sitracer02_sd         =   1.1749639910644E+00
(PID.TID 0000.0001) %MON seaice_sitracer02_del2       =   2.1604941211699E-01
(PID.TID 0000.0001) // =======================================================
(PID.TID 0000.0001) // End MONITOR SEAICE statistics
(PID.TID 0000.0001) // =======================================================
(PID.TID 0000.0001) // =======================================================
(PID.TID 0000.0001) // Begin MONITOR EXF statistics
(PID.TID 0000.0001) // =======================================================
(PID.TID 0000.0001) %MON exf_tsnumber                 =                     5
(PID.TID 0000.0001) %MON exf_time_sec                 =   1.8000000000000E+04
(PID.TID 0000.0001) %MON exf_ustress_max              =   6.2648770005388E-02
(PID.TID 0000.0001) %MON exf_ustress_min              =  -9.3846033716002E-02
(PID.TID 0000.0001) %MON exf_ustress_mean             =   2.1965754070288E-02
(PID.TID 0000.0001) %MON exf_ustress_sd               =   2.6583393373192E-02
(PID.TID 0000.0001) %MON exf_ustress_del2             =   7.1515793301656E-04
(PID.TID 0000.0001) %MON exf_vstress_max              =   5.3861688451624E-02
(PID.TID 0000.0001) %MON exf_vstress_min              =  -5.9381887471641E-02
(PID.TID 0000.0001) %MON exf_vstress_mean             =  -5.3252891821655E-03
(PID.TID 0000.0001) %MON exf_vstress_sd               =   1.5045104231509E-02
(PID.TID 0000.0001) %MON exf_vstress_del2             =   5.0307743576251E-04
(PID.TID 0000.0001) %MON exf_hflux_max                =   6.3259096159524E+02
(PID.TID 0000.0001) %MON exf_hflux_min                =   8.9552205968979E+01
(PID.TID 0000.0001) %MON exf_hflux_mean               =   2.1897841998648E+02
(PID.TID 0000.0001) %MON exf_hflux_sd                 =   1.3403900594960E+02
(PID.TID 0000.0001) %MON exf_hflux_del2               =   1.3741645517403E+01
(PID.TID 0000.0001) %MON exf_sflux_max                =   4.0707395023428E-08
(PID.TID 0000.0001) %MON exf_sflux_min                =  -8.3446449946568E-08
(PID.TID 0000.0001) %MON exf_sflux_mean               =  -1.5747800304623E-08
(PID.TID 0000.0001) %MON exf_sflux_sd                 =   2.4394539552237E-08
(PID.TID 0000.0001) %MON exf_sflux_del2               =   1.6775755914161E-09
(PID.TID 0000.0001) %MON exf_uwind_max                =   6.4669118044806E+00
(PID.TID 0000.0001) %MON exf_uwind_min                =  -6.8373719818605E+00
(PID.TID 0000.0001) %MON exf_uwind_mean               =   2.7703104953252E+00
(PID.TID 0000.0001) %MON exf_uwind_sd                 =   2.9914204817202E+00
(PID.TID 0000.0001) %MON exf_uwind_del2               =   8.0270959439526E-02
(PID.TID 0000.0001) %MON exf_vwind_max                =   3.9242191164871E+00
(PID.TID 0000.0001) %MON exf_vwind_min                =  -6.0151738390896E+00
(PID.TID 0000.0001) %MON exf_vwind_mean               =  -7.5780981579906E-01
(PID.TID 0000.0001) %MON exf_vwind_sd                 =   1.7298850990135E+00
(PID.TID 0000.0001) %MON exf_vwind_del2               =   4.8609272056854E-02
(PID.TID 0000.0001) %MON exf_wspeed_max               =   7.8834733013142E+00
(PID.TID 0000.0001) %MON exf_wspeed_min               =   4.5913801314248E-01
(PID.TID 0000.0001) %MON exf_wspeed_mean              =   4.1986352194932E+00
(PID.TID 0000.0001) %MON exf_wspeed_sd                =   1.6004553118739E+00
(PID.TID 0000.0001) %MON exf_wspeed_del2              =   2.3645566579393E-01
(PID.TID 0000.0001) %MON exf_atemp_max                =   2.8187425173567E+02
(PID.TID 0000.0001) %MON exf_atemp_min                =   2.3643944426573E+02
(PID.TID 0000.0001) %MON exf_atemp_mean               =   2.6392283741463E+02
(PID.TID 0000.0001) %MON exf_atemp_sd                 =   1.1990725231039E+01
(PID.TID 0000.0001) %MON exf_atemp_del2               =   7.0674746671411E-01
(PID.TID 0000.0001) %MON exf_aqh_max                  =   6.3196902393613E-03
(PID.TID 0000.0001) %MON exf_aqh_min                  =   1.6322223068205E-04
(PID.TID 0000.0001) %MON exf_aqh_mean                 =   2.4775611281656E-03
(PID.TID 0000.0001) %MON exf_aqh_sd                   =   1.4259923191659E-03
(PID.TID 0000.0001) %MON exf_aqh_del2                 =   7.6400067235870E-05
(PID.TID 0000.0001) %MON exf_lwflux_max               =   1.8555175741080E+02
(PID.TID 0000.0001) %MON exf_lwflux_min               =   6.7053261326911E+01
(PID.TID 0000.0001) %MON exf_lwflux_mean              =   9.7819992378112E+01
(PID.TID 0000.0001) %MON exf_lwflux_sd                =   3.1007865296396E+01
(PID.TID 0000.0001) %MON exf_lwflux_del2              =   4.6181275638133E+00
(PID.TID 0000.0001) %MON exf_evap_max                 =   4.7028289292869E-08
(PID.TID 0000.0001) %MON exf_evap_min                 =   5.5085785545862E-09
(PID.TID 0000.0001) %MON exf_evap_mean                =   2.0642226018291E-08
(PID.TID 0000.0001) %MON exf_evap_sd                  =   6.9384547949832E-09
(PID.TID 0000.0001) %MON exf_evap_del2                =   1.0619642143120E-09
(PID.TID 0000.0001) %MON exf_precip_max               =   1.0499457022082E-07
(PID.TID 0000.0001) %MON exf_precip_min               =   2.7292535458031E-10
(PID.TID 0000.0001) %MON exf_precip_mean              =   3.6390026322913E-08
(PID.TID 0000.0001) %MON exf_precip_sd                =   2.0580406889746E-08
(PID.TID 0000.0001) %MON exf_precip_del2              =   1.6848902805558E-09
(PID.TID 0000.0001) %MON exf_swflux_max               =  -8.1207169861090E-02
(PID.TID 0000.0001) %MON exf_swflux_min               =  -6.4067465766532E+01
(PID.TID 0000.0001) %MON exf_swflux_mean              =  -2.6505884102323E+01
(PID.TID 0000.0001) %MON exf_swflux_sd                =   1.9645085084315E+01
(PID.TID 0000.0001) %MON exf_swflux_del2              =   7.7260776134360E-01
(PID.TID 0000.0001) %MON exf_swdown_max               =   7.1186073073924E+01
(PID.TID 0000.0001) %MON exf_swdown_min               =   9.0230188734544E-02
(PID.TID 0000.0001) %MON exf_swdown_mean              =   2.9450982335914E+01
(PID.TID 0000.0001) %MON exf_swdown_sd                =   2.1827872315905E+01
(PID.TID 0000.0001) %MON exf_swdown_del2              =   8.5845306815956E-01
(PID.TID 0000.0001) %MON exf_lwdown_max               =   3.0563558759846E+02
(PID.TID 0000.0001) %MON exf_lwdown_min               =   1.1592215771493E+02
(PID.TID 0000.0001) %MON exf_lwdown_mean              =   2.2587078031381E+02
(PID.TID 0000.0001) %MON exf_lwdown_sd                =   4.6297287802066E+01
(PID.TID 0000.0001) %MON exf_lwdown_del2              =   8.1694265413502E+00
(PID.TID 0000.0001) %MON exf_climsss_max              =   3.5041254622037E+01
(PID.TID 0000.0001) %MON exf_climsss_min              =   3.0670109811376E+01
(PID.TID 0000.0001) %MON exf_climsss_mean             =   3.3461926268386E+01
(PID.TID 0000.0001) %MON exf_climsss_sd               =   1.0315988331065E+00
(PID.TID 0000.0001) %MON exf_climsss_del2             =   2.6971039929381E-02
(PID.TID 0000.0001) // =======================================================
(PID.TID 0000.0001) // End MONITOR EXF statistics
(PID.TID 0000.0001) // =======================================================
 SEAICE_LSR: Residual Initial ipass,Uice,Vice=    1  2.29247618E-03  1.72002475E-03
 SEAICE_LSR: Residual FrDrift U_fd,V_fd=  2.17819402E+01  2.31077058E+00
 SEAICE_LSR (ipass=   1) iters,dU,Resid=   154  8.66629685E-13  1.16693481E-12
 SEAICE_LSR (ipass=   1) iters,dV,Resid=    76  8.10269820E-13  2.32118452E-11
 SEAICE_LSR: Residual Initial ipass,Uice,Vice=    2  7.81522112E-04  8.46722791E-04
 SEAICE_LSR: Residual FrDrift U_fd,V_fd=  2.18028443E+01  2.31134025E+00
 SEAICE_LSR (ipass=   2) iters,dU,Resid=   158  9.75289294E-13  1.25465843E-12
 SEAICE_LSR (ipass=   2) iters,dV,Resid=    88  8.96669024E-13  2.57282606E-11
 cg2d: Sum(rhs),rhsMax =  -7.64915408790756E-10  3.70924377140587E-01
(PID.TID 0000.0001)      cg2d_init_res =   6.25881015838038E-02
(PID.TID 0000.0001)      cg2d_iters(min,last) =      -1      41
(PID.TID 0000.0001)      cg2d_last_res =   4.29260114222472E-13
(PID.TID 0000.0001) // =======================================================
(PID.TID 0000.0001) // Begin MONITOR dynamic field statistics
(PID.TID 0000.0001) // =======================================================
(PID.TID 0000.0001) %MON time_tsnumber                =                     6
(PID.TID 0000.0001) %MON time_secondsf                =   2.1600000000000E+04
(PID.TID 0000.0001) %MON dynstat_eta_max              =   9.4850140490641E-02
(PID.TID 0000.0001) %MON dynstat_eta_min              =  -1.1840159213229E-01
(PID.TID 0000.0001) %MON dynstat_eta_mean             =   6.4137570519869E-12
(PID.TID 0000.0001) %MON dynstat_eta_sd               =   5.2816873529010E-02
(PID.TID 0000.0001) %MON dynstat_eta_del2             =   1.8532061909971E-03
(PID.TID 0000.0001) %MON dynstat_uvel_max             =   3.9050697698126E-02
(PID.TID 0000.0001) %MON dynstat_uvel_min             =  -4.5702667084162E-02
(PID.TID 0000.0001) %MON dynstat_uvel_mean            =   7.8658614113846E-05
(PID.TID 0000.0001) %MON dynstat_uvel_sd              =   4.2410996836468E-03
(PID.TID 0000.0001) %MON dynstat_uvel_del2            =   2.8562714980060E-04
(PID.TID 0000.0001) %MON dynstat_vvel_max             =   4.4803474218943E-02
(PID.TID 0000.0001) %MON dynstat_vvel_min             =  -1.2380949897984E-01
(PID.TID 0000.0001) %MON dynstat_vvel_mean            =  -1.5803704478115E-04
(PID.TID 0000.0001) %MON dynstat_vvel_sd              =   4.7359972783190E-03
(PID.TID 0000.0001) %MON dynstat_vvel_del2            =   3.1635056119083E-04
(PID.TID 0000.0001) %MON dynstat_wvel_max             =   9.5210719943519E-05
(PID.TID 0000.0001) %MON dynstat_wvel_min             =  -7.5136087021653E-05
(PID.TID 0000.0001) %MON dynstat_wvel_mean            =  -9.8860024140455E-23
(PID.TID 0000.0001) %MON dynstat_wvel_sd              =   1.8700796161744E-05
(PID.TID 0000.0001) %MON dynstat_wvel_del2            =   7.3133417860341E-07
(PID.TID 0000.0001) %MON dynstat_theta_max            =   1.2477193313487E+01
(PID.TID 0000.0001) %MON dynstat_theta_min            =  -1.8648339254779E+00
(PID.TID 0000.0001) %MON dynstat_theta_mean           =   3.0788439033175E+00
(PID.TID 0000.0001) %MON dynstat_theta_sd             =   1.4435833092077E+00
(PID.TID 0000.0001) %MON dynstat_theta_del2           =   1.7398144663105E-02
(PID.TID 0000.0001) %MON dynstat_salt_max             =   3.5292798931731E+01
(PID.TID 0000.0001) %MON dynstat_salt_min             =   3.0708165654840E+01
(PID.TID 0000.0001) %MON dynstat_salt_mean            =   3.4757112040548E+01
(PID.TID 0000.0001) %MON dynstat_salt_sd              =   4.3074532819057E-01
(PID.TID 0000.0001) %MON dynstat_salt_del2            =   3.9851120248196E-03
(PID.TID 0000.0001) %MON forcing_qnet_max             =   2.5085955472907E+02
(PID.TID 0000.0001) %MON forcing_qnet_min             =   1.5769708847259E+01
(PID.TID 0000.0001) %MON forcing_qnet_mean            =   9.3748968417581E+01
(PID.TID 0000.0001) %MON forcing_qnet_sd              =   5.9691453902152E+01
(PID.TID 0000.0001) %MON forcing_qnet_del2            =   3.8911598814337E+00
(PID.TID 0000.0001) %MON forcing_qsw_max              =  -2.3068102274613E-05
(PID.TID 0000.0001) %MON forcing_qsw_min              =  -6.4067465766532E+01
(PID.TID 0000.0001) %MON forcing_qsw_mean             =  -2.4437246090269E+01
(PID.TID 0000.0001) %MON forcing_qsw_sd               =   2.1192944763423E+01
(PID.TID 0000.0001) %MON forcing_qsw_del2             =   3.5871256250729E-01
(PID.TID 0000.0001) %MON forcing_empmr_max            =   4.9216356135477E-04
(PID.TID 0000.0001) %MON forcing_empmr_min            =  -8.3051959738783E-05
(PID.TID 0000.0001) %MON forcing_empmr_mean           =   3.7238558206523E-05
(PID.TID 0000.0001) %MON forcing_empmr_sd             =   1.1777284079616E-04
(PID.TID 0000.0001) %MON forcing_empmr_del2           =   1.4030660915071E-05
(PID.TID 0000.0001) %MON forcing_fu_max               =   6.3166801153768E-02
(PID.TID 0000.0001) %MON forcing_fu_min               =  -2.6806937554947E-02
(PID.TID 0000.0001) %MON forcing_fu_mean              =   2.5284296222947E-02
(PID.TID 0000.0001) %MON forcing_fu_sd                =   2.1550413993518E-02
(PID.TID 0000.0001) %MON forcing_fu_del2              =   7.1762119989301E-04
(PID.TID 0000.0001) %MON forcing_fv_max               =   1.4720628114240E-02
(PID.TID 0000.0001) %MON forcing_fv_min               =  -4.6263772600838E-02
(PID.TID 0000.0001) %MON forcing_fv_mean              =  -7.4949119982579E-03
(PID.TID 0000.0001) %MON forcing_fv_sd                =   1.5591508872177E-02
(PID.TID 0000.0001) %MON forcing_fv_del2              =   6.4438960690442E-04
(PID.TID 0000.0001) %MON trAdv_CFL_u_max              =   1.5260891250192E-03
(PID.TID 0000.0001) %MON trAdv_CFL_v_max              =   2.0622148954499E-03
(PID.TID 0000.0001) %MON trAdv_CFL_w_max              =   3.4396708075310E-03
(PID.TID 0000.0001) %MON advcfl_uvel_max              =   1.5260116473106E-03
(PID.TID 0000.0001) %MON advcfl_vvel_max              =   2.0042020341098E-03
(PID.TID 0000.0001) %MON advcfl_wvel_max              =   3.3959732611760E-03
(PID.TID 0000.0001) %MON advcfl_W_hf_max              =   3.9266214073269E-03
(PID.TID 0000.0001) %MON pe_b_mean                    =   9.1964077972310E-06
(PID.TID 0000.0001) %MON ke_max                       =   6.3677782319674E-03
(PID.TID 0000.0001) %MON ke_mean                      =   1.5847215370100E-05
(PID.TID 0000.0001) %MON ke_vol                       =   5.3036189546438E+15
(PID.TID 0000.0001) %MON vort_r_min                   =  -1.0927793129116E-06
(PID.TID 0000.0001) %MON vort_r_max                   =   6.5558009115642E-07
(PID.TID 0000.0001) %MON vort_a_mean                  =   1.2067277989297E-04
(PID.TID 0000.0001) %MON vort_a_sd                    =   8.8117475882758E-06
(PID.TID 0000.0001) %MON vort_p_mean                  =   1.7734843738064E-04
(PID.TID 0000.0001) %MON vort_p_sd                    =   1.1688583975242E-04
(PID.TID 0000.0001) %MON surfExpan_theta_mean         =   7.8747783600045E-07
(PID.TID 0000.0001) %MON surfExpan_salt_mean          =  -1.1622746287061E-07
(PID.TID 0000.0001) // =======================================================
(PID.TID 0000.0001) // End MONITOR dynamic field statistics
(PID.TID 0000.0001) // =======================================================
(PID.TID 0000.0001) // =======================================================
(PID.TID 0000.0001) // Begin MONITOR SEAICE statistics
(PID.TID 0000.0001) // =======================================================
(PID.TID 0000.0001) %MON seaice_tsnumber              =                     6
(PID.TID 0000.0001) %MON seaice_time_sec              =   2.1600000000000E+04
(PID.TID 0000.0001) %MON seaice_uice_max              =   1.9159349499235E-01
(PID.TID 0000.0001) %MON seaice_uice_min              =  -1.1966013008593E-01
(PID.TID 0000.0001) %MON seaice_uice_mean             =   7.0982723675761E-02
(PID.TID 0000.0001) %MON seaice_uice_sd               =   6.7896497793706E-02
(PID.TID 0000.0001) %MON seaice_uice_del2             =   2.1407963885070E-03
(PID.TID 0000.0001) %MON seaice_vice_max              =   7.9701333449972E-02
(PID.TID 0000.0001) %MON seaice_vice_min              =  -1.9272283054787E-01
(PID.TID 0000.0001) %MON seaice_vice_mean             =  -3.2244019496657E-02
(PID.TID 0000.0001) %MON seaice_vice_sd               =   5.4898475196614E-02
(PID.TID 0000.0001) %MON seaice_vice_del2             =   2.6642489309719E-03
(PID.TID 0000.0001) %MON seaice_area_max              =   9.9965133476262E-01
(PID.TID 0000.0001) %MON seaice_area_min              =   0.0000000000000E+00
(PID.TID 0000.0001) %MON seaice_area_mean             =   3.2791231693787E-01
(PID.TID 0000.0001) %MON seaice_area_sd               =   4.4455125673187E-01
(PID.TID 0000.0001) %MON seaice_area_del2             =   2.0742611039012E-02
(PID.TID 0000.0001) %MON seaice_heff_max              =   1.6276661677350E+00
(PID.TID 0000.0001) %MON seaice_heff_min              =   0.0000000000000E+00
(PID.TID 0000.0001) %MON seaice_heff_mean             =   1.8739688779635E-01
(PID.TID 0000.0001) %MON seaice_heff_sd               =   3.5921346641082E-01
(PID.TID 0000.0001) %MON seaice_heff_del2             =   9.3742476323062E-03
(PID.TID 0000.0001) %MON seaice_hsnow_max             =   4.0247218899280E-01
(PID.TID 0000.0001) %MON seaice_hsnow_min             =   0.0000000000000E+00
(PID.TID 0000.0001) %MON seaice_hsnow_mean            =   3.5201512433001E-02
(PID.TID 0000.0001) %MON seaice_hsnow_sd              =   7.6655139108995E-02
(PID.TID 0000.0001) %MON seaice_hsnow_del2            =   2.5037279985495E-03
(PID.TID 0000.0001) %MON seaice_sitracer01_max        =   3.5219794843900E-06
(PID.TID 0000.0001) %MON seaice_sitracer01_min        =   0.0000000000000E+00
(PID.TID 0000.0001) %MON seaice_sitracer01_mean       =   8.5708502687675E-08
(PID.TID 0000.0001) %MON seaice_sitracer01_sd         =   4.0398411721974E-07
(PID.TID 0000.0001) %MON seaice_sitracer01_del2       =   6.3399379950097E-08
(PID.TID 0000.0001) %MON seaice_sitracer02_max        =   1.0280406799284E+01
(PID.TID 0000.0001) %MON seaice_sitracer02_min        =   0.0000000000000E+00
(PID.TID 0000.0001) %MON seaice_sitracer02_mean       =   2.6703353437781E-01
(PID.TID 0000.0001) %MON seaice_sitracer02_sd         =   1.1925418295131E+00
(PID.TID 0000.0001) %MON seaice_sitracer02_del2       =   2.1638167125358E-01
(PID.TID 0000.0001) // =======================================================
(PID.TID 0000.0001) // End MONITOR SEAICE statistics
(PID.TID 0000.0001) // =======================================================
(PID.TID 0000.0001) // =======================================================
(PID.TID 0000.0001) // Begin MONITOR EXF statistics
(PID.TID 0000.0001) // =======================================================
(PID.TID 0000.0001) %MON exf_tsnumber                 =                     6
(PID.TID 0000.0001) %MON exf_time_sec                 =   2.1600000000000E+04
(PID.TID 0000.0001) %MON exf_ustress_max              =   6.2659906741221E-02
(PID.TID 0000.0001) %MON exf_ustress_min              =  -9.3848055965876E-02
(PID.TID 0000.0001) %MON exf_ustress_mean             =   2.1968200611283E-02
(PID.TID 0000.0001) %MON exf_ustress_sd               =   2.6587403820903E-02
(PID.TID 0000.0001) %MON exf_ustress_del2             =   7.1521323465292E-04
(PID.TID 0000.0001) %MON exf_vstress_max              =   5.3863052369866E-02
(PID.TID 0000.0001) %MON exf_vstress_min              =  -5.9355782047929E-02
(PID.TID 0000.0001) %MON exf_vstress_mean             =  -5.3205174179138E-03
(PID.TID 0000.0001) %MON exf_vstress_sd               =   1.5046059665535E-02
(PID.TID 0000.0001) %MON exf_vstress_del2             =   5.0306844517927E-04
(PID.TID 0000.0001) %MON exf_hflux_max                =   6.3263137629947E+02
(PID.TID 0000.0001) %MON exf_hflux_min                =   8.9548604127941E+01
(PID.TID 0000.0001) %MON exf_hflux_mean               =   2.1898982135425E+02
(PID.TID 0000.0001) %MON exf_hflux_sd                 =   1.3405991400493E+02
(PID.TID 0000.0001) %MON exf_hflux_del2               =   1.3744543871135E+01
(PID.TID 0000.0001) %MON exf_sflux_max                =   4.0705853052954E-08
(PID.TID 0000.0001) %MON exf_sflux_min                =  -8.3509341049830E-08
(PID.TID 0000.0001) %MON exf_sflux_mean               =  -1.5749094227561E-08
(PID.TID 0000.0001) %MON exf_sflux_sd                 =   2.4396318369047E-08
(PID.TID 0000.0001) %MON exf_sflux_del2               =   1.6778605454407E-09
(PID.TID 0000.0001) %MON exf_uwind_max                =   6.4674192569295E+00
(PID.TID 0000.0001) %MON exf_uwind_min                =  -6.8373987635628E+00
(PID.TID 0000.0001) %MON exf_uwind_mean               =   2.7704180476696E+00
(PID.TID 0000.0001) %MON exf_uwind_sd                 =   2.9916966488382E+00
(PID.TID 0000.0001) %MON exf_uwind_del2               =   8.0270776119363E-02
(PID.TID 0000.0001) %MON exf_vwind_max                =   3.9242492972827E+00
(PID.TID 0000.0001) %MON exf_vwind_min                =  -6.0142679292648E+00
(PID.TID 0000.0001) %MON exf_vwind_mean               =  -7.5719204270894E-01
(PID.TID 0000.0001) %MON exf_vwind_sd                 =   1.7299937065642E+00
(PID.TID 0000.0001) %MON exf_vwind_del2               =   4.8609143305425E-02
(PID.TID 0000.0001) %MON exf_wspeed_max               =   7.8835115525503E+00
(PID.TID 0000.0001) %MON exf_wspeed_min               =   4.5889518386928E-01
(PID.TID 0000.0001) %MON exf_wspeed_mean              =   4.1987383082859E+00
(PID.TID 0000.0001) %MON exf_wspeed_sd                =   1.6007122259633E+00
(PID.TID 0000.0001) %MON exf_wspeed_del2              =   2.3645323505408E-01
(PID.TID 0000.0001) %MON exf_atemp_max                =   2.8187253958280E+02
(PID.TID 0000.0001) %MON exf_atemp_min                =   2.3643497929808E+02
(PID.TID 0000.0001) %MON exf_atemp_mean               =   2.6391819332927E+02
(PID.TID 0000.0001) %MON exf_atemp_sd                 =   1.1992188200331E+01
(PID.TID 0000.0001) %MON exf_atemp_del2               =   7.0704534707978E-01
(PID.TID 0000.0001) %MON exf_aqh_max                  =   6.3189936985002E-03
(PID.TID 0000.0001) %MON exf_aqh_min                  =   1.6312812718364E-04
(PID.TID 0000.0001) %MON exf_aqh_mean                 =   2.4770007717611E-03
(PID.TID 0000.0001) %MON exf_aqh_sd                   =   1.4258893952382E-03
(PID.TID 0000.0001) %MON exf_aqh_del2                 =   7.6376219323514E-05
(PID.TID 0000.0001) %MON exf_lwflux_max               =   1.8555897234131E+02
(PID.TID 0000.0001) %MON exf_lwflux_min               =   6.7054977593460E+01
(PID.TID 0000.0001) %MON exf_lwflux_mean              =   9.7824219747175E+01
(PID.TID 0000.0001) %MON exf_lwflux_sd                =   3.1012032325285E+01
(PID.TID 0000.0001) %MON exf_lwflux_del2              =   4.6187590483102E+00
(PID.TID 0000.0001) %MON exf_evap_max                 =   4.7026084611465E-08
(PID.TID 0000.0001) %MON exf_evap_min                 =   5.5033284165517E-09
(PID.TID 0000.0001) %MON exf_evap_mean                =   2.0640921251318E-08
(PID.TID 0000.0001) %MON exf_evap_sd                  =   6.9375288500307E-09
(PID.TID 0000.0001) %MON exf_evap_del2                =   1.0619991428608E-09
(PID.TID 0000.0001) %MON exf_precip_max               =   1.0499595166344E-07
(PID.TID 0000.0001) %MON exf_precip_min               =   2.7279142810763E-10
(PID.TID 0000.0001) %MON exf_precip_mean              =   3.6390015478879E-08
(PID.TID 0000.0001) %MON exf_precip_sd                =   2.0580860600171E-08
(PID.TID 0000.0001) %MON exf_precip_del2              =   1.6851676427211E-09
(PID.TID 0000.0001) %MON exf_swflux_max               =  -8.1207452738871E-02
(PID.TID 0000.0001) %MON exf_swflux_min               =  -6.4086336117103E+01
(PID.TID 0000.0001) %MON exf_swflux_mean              =  -2.6516416318198E+01
(PID.TID 0000.0001) %MON exf_swflux_sd                =   1.9648923659484E+01
(PID.TID 0000.0001) %MON exf_swflux_del2              =   7.7300992044929E-01
(PID.TID 0000.0001) %MON exf_swdown_max               =   7.1207040130115E+01
(PID.TID 0000.0001) %MON exf_swdown_min               =   9.0230503043190E-02
(PID.TID 0000.0001) %MON exf_swdown_mean              =   2.9462684797997E+01
(PID.TID 0000.0001) %MON exf_swdown_sd                =   2.1832137399427E+01
(PID.TID 0000.0001) %MON exf_swdown_del2              =   8.5889991161032E-01
(PID.TID 0000.0001) %MON exf_lwdown_max               =   3.0562676151463E+02
(PID.TID 0000.0001) %MON exf_lwdown_min               =   1.1590705083628E+02
(PID.TID 0000.0001) %MON exf_lwdown_mean              =   2.2585507298474E+02
(PID.TID 0000.0001) %MON exf_lwdown_sd                =   4.6301263017486E+01
(PID.TID 0000.0001) %MON exf_lwdown_del2              =   8.1684723805533E+00
(PID.TID 0000.0001) %MON exf_climsss_max              =   3.5041439369077E+01
(PID.TID 0000.0001) %MON exf_climsss_min              =   3.0670869139374E+01
(PID.TID 0000.0001) %MON exf_climsss_mean             =   3.3462447601866E+01
(PID.TID 0000.0001) %MON exf_climsss_sd               =   1.0315283113566E+00
(PID.TID 0000.0001) %MON exf_climsss_del2             =   2.6970144903599E-02
(PID.TID 0000.0001) // =======================================================
(PID.TID 0000.0001) // End MONITOR EXF statistics
(PID.TID 0000.0001) // =======================================================
 SEAICE_LSR: Residual Initial ipass,Uice,Vice=    1  2.26613736E-03  1.48984292E-03
 SEAICE_LSR: Residual FrDrift U_fd,V_fd=  2.17658083E+01  2.30862333E+00
 SEAICE_LSR (ipass=   1) iters,dU,Resid=   160  8.21082785E-13  9.98412296E-13
 SEAICE_LSR (ipass=   1) iters,dV,Resid=    88  8.95577015E-13  2.56931968E-11
 SEAICE_LSR: Residual Initial ipass,Uice,Vice=    2  7.45036669E-04  8.05265077E-04
 SEAICE_LSR: Residual FrDrift U_fd,V_fd=  2.17786740E+01  2.30889816E+00
 SEAICE_LSR (ipass=   2) iters,dU,Resid=   148  8.73294492E-13  1.00853808E-12
 SEAICE_LSR (ipass=   2) iters,dV,Resid=    78  8.88973357E-13  2.55339558E-11
 cg2d: Sum(rhs),rhsMax =  -7.64295182698049E-10  3.71272887291441E-01
(PID.TID 0000.0001)      cg2d_init_res =   5.52911772637398E-02
(PID.TID 0000.0001)      cg2d_iters(min,last) =      -1      41
(PID.TID 0000.0001)      cg2d_last_res =   7.20375909905602E-13
(PID.TID 0000.0001) // =======================================================
(PID.TID 0000.0001) // Begin MONITOR dynamic field statistics
(PID.TID 0000.0001) // =======================================================
(PID.TID 0000.0001) %MON time_tsnumber                =                     7
(PID.TID 0000.0001) %MON time_secondsf                =   2.5200000000000E+04
(PID.TID 0000.0001) %MON dynstat_eta_max              =   9.4140448580388E-02
(PID.TID 0000.0001) %MON dynstat_eta_min              =  -1.1907671878840E-01
(PID.TID 0000.0001) %MON dynstat_eta_mean             =   6.4141986432126E-12
(PID.TID 0000.0001) %MON dynstat_eta_sd               =   5.3498292557654E-02
(PID.TID 0000.0001) %MON dynstat_eta_del2             =   1.8271299707119E-03
(PID.TID 0000.0001) %MON dynstat_uvel_max             =   4.2651645608123E-02
(PID.TID 0000.0001) %MON dynstat_uvel_min             =  -5.0340177563409E-02
(PID.TID 0000.0001) %MON dynstat_uvel_mean            =   5.6243906184214E-05
(PID.TID 0000.0001) %MON dynstat_uvel_sd              =   4.9018352265233E-03
(PID.TID 0000.0001) %MON dynstat_uvel_del2            =   3.2969838686722E-04
(PID.TID 0000.0001) %MON dynstat_vvel_max             =   5.0104044281492E-02
(PID.TID 0000.0001) %MON dynstat_vvel_min             =  -1.2959890781323E-01
(PID.TID 0000.0001) %MON dynstat_vvel_mean            =  -4.5592095065215E-05
(PID.TID 0000.0001) %MON dynstat_vvel_sd              =   5.2649005236961E-03
(PID.TID 0000.0001) %MON dynstat_vvel_del2            =   3.6335507903454E-04
(PID.TID 0000.0001) %MON dynstat_wvel_max             =   1.1085111692697E-04
(PID.TID 0000.0001) %MON dynstat_wvel_min             =  -8.7662223595084E-05
(PID.TID 0000.0001) %MON dynstat_wvel_mean            =   6.9202016898318E-22
(PID.TID 0000.0001) %MON dynstat_wvel_sd              =   2.1995166138935E-05
(PID.TID 0000.0001) %MON dynstat_wvel_del2            =   8.5136430195204E-07
(PID.TID 0000.0001) %MON dynstat_theta_max            =   1.2476838194677E+01
(PID.TID 0000.0001) %MON dynstat_theta_min            =  -1.8661507147838E+00
(PID.TID 0000.0001) %MON dynstat_theta_mean           =   3.0787879431850E+00
(PID.TID 0000.0001) %MON dynstat_theta_sd             =   1.4435188669493E+00
(PID.TID 0000.0001) %MON dynstat_theta_del2           =   1.7392091058275E-02
(PID.TID 0000.0001) %MON dynstat_salt_max             =   3.5292779029829E+01
(PID.TID 0000.0001) %MON dynstat_salt_min             =   3.0708210588232E+01
(PID.TID 0000.0001) %MON dynstat_salt_mean            =   3.4757114432410E+01
(PID.TID 0000.0001) %MON dynstat_salt_sd              =   4.3075870958854E-01
(PID.TID 0000.0001) %MON dynstat_salt_del2            =   3.9895285073363E-03
(PID.TID 0000.0001) %MON forcing_qnet_max             =   2.4784739821050E+02
(PID.TID 0000.0001) %MON forcing_qnet_min             =   1.5552225266276E+01
(PID.TID 0000.0001) %MON forcing_qnet_mean            =   9.3619306779050E+01
(PID.TID 0000.0001) %MON forcing_qnet_sd              =   5.9788979829551E+01
(PID.TID 0000.0001) %MON forcing_qnet_del2            =   3.8992939459157E+00
(PID.TID 0000.0001) %MON forcing_qsw_max              =  -2.8460097464620E-05
(PID.TID 0000.0001) %MON forcing_qsw_min              =  -6.4086336117103E+01
(PID.TID 0000.0001) %MON forcing_qsw_mean             =  -2.4442581963944E+01
(PID.TID 0000.0001) %MON forcing_qsw_sd               =   2.1198129384484E+01
(PID.TID 0000.0001) %MON forcing_qsw_del2             =   3.5692627170740E-01
(PID.TID 0000.0001) %MON forcing_empmr_max            =   4.9167635570960E-04
(PID.TID 0000.0001) %MON forcing_empmr_min            =  -8.5640766208142E-05
(PID.TID 0000.0001) %MON forcing_empmr_mean           =   3.7515656187618E-05
(PID.TID 0000.0001) %MON forcing_empmr_sd             =   1.1785425708154E-04
(PID.TID 0000.0001) %MON forcing_empmr_del2           =   1.3979686351439E-05
(PID.TID 0000.0001) %MON forcing_fu_max               =   6.3209459985431E-02
(PID.TID 0000.0001) %MON forcing_fu_min               =  -2.6809359714659E-02
(PID.TID 0000.0001) %MON forcing_fu_mean              =   2.5286494622259E-02
(PID.TID 0000.0001) %MON forcing_fu_sd                =   2.1604321260683E-02
(PID.TID 0000.0001) %MON forcing_fu_del2              =   7.2309282866868E-04
(PID.TID 0000.0001) %MON forcing_fv_max               =   1.4724307423503E-02
(PID.TID 0000.0001) %MON forcing_fv_min               =  -4.6935283109440E-02
(PID.TID 0000.0001) %MON forcing_fv_mean              =  -7.4900699484506E-03
(PID.TID 0000.0001) %MON forcing_fv_sd                =   1.5625513388102E-02
(PID.TID 0000.0001) %MON forcing_fv_del2              =   6.4841062582678E-04
(PID.TID 0000.0001) %MON trAdv_CFL_u_max              =   1.6809434204262E-03
(PID.TID 0000.0001) %MON trAdv_CFL_v_max              =   2.1586453408555E-03
(PID.TID 0000.0001) %MON trAdv_CFL_w_max              =   3.6127089574419E-03
(PID.TID 0000.0001) %MON advcfl_uvel_max              =   1.6808580809514E-03
(PID.TID 0000.0001) %MON advcfl_vvel_max              =   2.0979197621983E-03
(PID.TID 0000.0001) %MON advcfl_wvel_max              =   4.0141210638243E-03
(PID.TID 0000.0001) %MON advcfl_W_hf_max              =   4.6135544655558E-03
(PID.TID 0000.0001) %MON pe_b_mean                    =   9.4352341907781E-06
(PID.TID 0000.0001) %MON ke_max                       =   6.8859369081525E-03
(PID.TID 0000.0001) %MON ke_mean                      =   2.0281830673877E-05
(PID.TID 0000.0001) %MON ke_vol                       =   5.3036189546438E+15
(PID.TID 0000.0001) %MON vort_r_min                   =  -1.0946068718225E-06
(PID.TID 0000.0001) %MON vort_r_max                   =   6.8686437482446E-07
(PID.TID 0000.0001) %MON vort_a_mean                  =   1.2067278029987E-04
(PID.TID 0000.0001) %MON vort_a_sd                    =   8.8117495970944E-06
(PID.TID 0000.0001) %MON vort_p_mean                  =   1.7734843797864E-04
(PID.TID 0000.0001) %MON vort_p_sd                    =   1.1688586534646E-04
(PID.TID 0000.0001) %MON surfExpan_theta_mean         =   2.7211888652023E-07
(PID.TID 0000.0001) %MON surfExpan_salt_mean          =  -8.5123260933375E-08
(PID.TID 0000.0001) // =======================================================
(PID.TID 0000.0001) // End MONITOR dynamic field statistics
(PID.TID 0000.0001) // =======================================================
(PID.TID 0000.0001) // =======================================================
(PID.TID 0000.0001) // Begin MONITOR SEAICE statistics
(PID.TID 0000.0001) // =======================================================
(PID.TID 0000.0001) %MON seaice_tsnumber              =                     7
(PID.TID 0000.0001) %MON seaice_time_sec              =   2.5200000000000E+04
(PID.TID 0000.0001) %MON seaice_uice_max              =   1.9470794394756E-01
(PID.TID 0000.0001) %MON seaice_uice_min              =  -1.2188861595483E-01
(PID.TID 0000.0001) %MON seaice_uice_mean             =   7.1148551508775E-02
(PID.TID 0000.0001) %MON seaice_uice_sd               =   6.8998381009293E-02
(PID.TID 0000.0001) %MON seaice_uice_del2             =   2.2616171181507E-03
(PID.TID 0000.0001) %MON seaice_vice_max              =   8.2096118081575E-02
(PID.TID 0000.0001) %MON seaice_vice_min              =  -2.0050383987896E-01
(PID.TID 0000.0001) %MON seaice_vice_mean             =  -3.2352716659466E-02
(PID.TID 0000.0001) %MON seaice_vice_sd               =   5.6564129850106E-02
(PID.TID 0000.0001) %MON seaice_vice_del2             =   2.8441685489466E-03
(PID.TID 0000.0001) %MON seaice_area_max              =   9.9958766587590E-01
(PID.TID 0000.0001) %MON seaice_area_min              =   0.0000000000000E+00
(PID.TID 0000.0001) %MON seaice_area_mean             =   3.2802401792971E-01
(PID.TID 0000.0001) %MON seaice_area_sd               =   4.4437903449767E-01
(PID.TID 0000.0001) %MON seaice_area_del2             =   2.0652531160026E-02
(PID.TID 0000.0001) %MON seaice_heff_max              =   1.6278699464365E+00
(PID.TID 0000.0001) %MON seaice_heff_min              =   0.0000000000000E+00
(PID.TID 0000.0001) %MON seaice_heff_mean             =   1.8762311400390E-01
(PID.TID 0000.0001) %MON seaice_heff_sd               =   3.5925585575957E-01
(PID.TID 0000.0001) %MON seaice_heff_del2             =   9.3588264638077E-03
(PID.TID 0000.0001) %MON seaice_hsnow_max             =   4.0256779345845E-01
(PID.TID 0000.0001) %MON seaice_hsnow_min             =   0.0000000000000E+00
(PID.TID 0000.0001) %MON seaice_hsnow_mean            =   3.5252646400609E-02
(PID.TID 0000.0001) %MON seaice_hsnow_sd              =   7.6694794705712E-02
(PID.TID 0000.0001) %MON seaice_hsnow_del2            =   2.5062299779417E-03
(PID.TID 0000.0001) %MON seaice_sitracer01_max        =   3.5217892674678E-06
(PID.TID 0000.0001) %MON seaice_sitracer01_min        =   0.0000000000000E+00
(PID.TID 0000.0001) %MON seaice_sitracer01_mean       =   8.5707336868496E-08
(PID.TID 0000.0001) %MON seaice_sitracer01_sd         =   4.0397160154359E-07
(PID.TID 0000.0001) %MON seaice_sitracer01_del2       =   6.3395218316222E-08
(PID.TID 0000.0001) %MON seaice_sitracer02_max        =   1.0278845016441E+01
(PID.TID 0000.0001) %MON seaice_sitracer02_min        =   0.0000000000000E+00
(PID.TID 0000.0001) %MON seaice_sitracer02_mean       =   2.9080555016641E-01
(PID.TID 0000.0001) %MON seaice_sitracer02_sd         =   1.2132488363795E+00
(PID.TID 0000.0001) %MON seaice_sitracer02_del2       =   2.1795797573759E-01
(PID.TID 0000.0001) // =======================================================
(PID.TID 0000.0001) // End MONITOR SEAICE statistics
(PID.TID 0000.0001) // =======================================================
(PID.TID 0000.0001) // =======================================================
(PID.TID 0000.0001) // Begin MONITOR EXF statistics
(PID.TID 0000.0001) // =======================================================
(PID.TID 0000.0001) %MON exf_tsnumber                 =                     7
(PID.TID 0000.0001) %MON exf_time_sec                 =   2.5200000000000E+04
(PID.TID 0000.0001) %MON exf_ustress_max              =   6.2671066792644E-02
(PID.TID 0000.0001) %MON exf_ustress_min              =  -9.3850072737383E-02
(PID.TID 0000.0001) %MON exf_ustress_mean             =   2.1970644999196E-02
(PID.TID 0000.0001) %MON exf_ustress_sd               =   2.6591413798445E-02
(PID.TID 0000.0001) %MON exf_ustress_del2             =   7.1527018215503E-04
(PID.TID 0000.0001) %MON exf_vstress_max              =   5.3864413151016E-02
(PID.TID 0000.0001) %MON exf_vstress_min              =  -5.9329451438292E-02
(PID.TID 0000.0001) %MON exf_vstress_mean             =  -5.3157437021496E-03
(PID.TID 0000.0001) %MON exf_vstress_sd               =   1.5047014919292E-02
(PID.TID 0000.0001) %MON exf_vstress_del2             =   5.0305946377325E-04
(PID.TID 0000.0001) %MON exf_hflux_max                =   6.3267144401479E+02
(PID.TID 0000.0001) %MON exf_hflux_min                =   8.9544981998103E+01
(PID.TID 0000.0001) %MON exf_hflux_mean               =   2.1900148405587E+02
(PID.TID 0000.0001) %MON exf_hflux_sd                 =   1.3408100479322E+02
(PID.TID 0000.0001) %MON exf_hflux_del2               =   1.3747489640425E+01
(PID.TID 0000.0001) %MON exf_sflux_max                =   4.0704265552007E-08
(PID.TID 0000.0001) %MON exf_sflux_min                =  -8.3573488323481E-08
(PID.TID 0000.0001) %MON exf_sflux_mean               =  -1.5750351327700E-08
(PID.TID 0000.0001) %MON exf_sflux_sd                 =   2.4398107213987E-08
(PID.TID 0000.0001) %MON exf_sflux_del2               =   1.6781466811321E-09
(PID.TID 0000.0001) %MON exf_uwind_max                =   6.4679267093784E+00
(PID.TID 0000.0001) %MON exf_uwind_min                =  -6.8374255452651E+00
(PID.TID 0000.0001) %MON exf_uwind_mean               =   2.7705256000140E+00
(PID.TID 0000.0001) %MON exf_uwind_sd                 =   2.9919728561678E+00
(PID.TID 0000.0001) %MON exf_uwind_del2               =   8.0270596191202E-02
(PID.TID 0000.0001) %MON exf_vwind_max                =   3.9242794780783E+00
(PID.TID 0000.0001) %MON exf_vwind_min                =  -6.0133620194399E+00
(PID.TID 0000.0001) %MON exf_vwind_mean               =  -7.5657426961883E-01
(PID.TID 0000.0001) %MON exf_vwind_sd                 =   1.7301024272674E+00
(PID.TID 0000.0001) %MON exf_vwind_del2               =   4.8609021380011E-02
(PID.TID 0000.0001) %MON exf_wspeed_max               =   7.8835498038073E+00
(PID.TID 0000.0001) %MON exf_wspeed_min               =   4.5865235699732E-01
(PID.TID 0000.0001) %MON exf_wspeed_mean              =   4.1988415259832E+00
(PID.TID 0000.0001) %MON exf_wspeed_sd                =   1.6009692521540E+00
(PID.TID 0000.0001) %MON exf_wspeed_del2              =   2.3645081120476E-01
(PID.TID 0000.0001) %MON exf_atemp_max                =   2.8187082742993E+02
(PID.TID 0000.0001) %MON exf_atemp_min                =   2.3643051433042E+02
(PID.TID 0000.0001) %MON exf_atemp_mean               =   2.6391354924392E+02
(PID.TID 0000.0001) %MON exf_atemp_sd                 =   1.1993651656543E+01
(PID.TID 0000.0001) %MON exf_atemp_del2               =   7.0734328430989E-01
(PID.TID 0000.0001) %MON exf_aqh_max                  =   6.3182971576392E-03
(PID.TID 0000.0001) %MON exf_aqh_min                  =   1.6303402368524E-04
(PID.TID 0000.0001) %MON exf_aqh_mean                 =   2.4764404153565E-03
(PID.TID 0000.0001) %MON exf_aqh_sd                   =   1.4257865072101E-03
(PID.TID 0000.0001) %MON exf_aqh_del2                 =   7.6352374459005E-05
(PID.TID 0000.0001) %MON exf_lwflux_max               =   1.8556629598866E+02
(PID.TID 0000.0001) %MON exf_lwflux_min               =   6.7056901777119E+01
(PID.TID 0000.0001) %MON exf_lwflux_mean              =   9.7828515609623E+01
(PID.TID 0000.0001) %MON exf_lwflux_sd                =   3.1016256065723E+01
(PID.TID 0000.0001) %MON exf_lwflux_del2              =   4.6194015304391E+00
(PID.TID 0000.0001) %MON exf_evap_max                 =   4.7023834399587E-08
(PID.TID 0000.0001) %MON exf_evap_min                 =   5.4982362110992E-09
(PID.TID 0000.0001) %MON exf_evap_mean                =   2.0639653307144E-08
(PID.TID 0000.0001) %MON exf_evap_sd                  =   6.9366119767111E-09
(PID.TID 0000.0001) %MON exf_evap_del2                =   1.0620427719450E-09
(PID.TID 0000.0001) %MON exf_precip_max               =   1.0499733310606E-07
(PID.TID 0000.0001) %MON exf_precip_min               =   2.7265750163496E-10
(PID.TID 0000.0001) %MON exf_precip_mean              =   3.6390004634845E-08
(PID.TID 0000.0001) %MON exf_precip_sd                =   2.0581314966068E-08
(PID.TID 0000.0001) %MON exf_precip_del2              =   1.6854450499027E-09
(PID.TID 0000.0001) %MON exf_swflux_max               =  -8.1207735616653E-02
(PID.TID 0000.0001) %MON exf_swflux_min               =  -6.4105206467675E+01
(PID.TID 0000.0001) %MON exf_swflux_mean              =  -2.6526948534072E+01
(PID.TID 0000.0001) %MON exf_swflux_sd                =   1.9652762825246E+01
(PID.TID 0000.0001) %MON exf_swflux_del2              =   7.7341216403100E-01
(PID.TID 0000.0001) %MON exf_swdown_max               =   7.1228007186306E+01
(PID.TID 0000.0001) %MON exf_swdown_min               =   9.0230817351836E-02
(PID.TID 0000.0001) %MON exf_swdown_mean              =   2.9474387260081E+01
(PID.TID 0000.0001) %MON exf_swdown_sd                =   2.1836403139162E+01
(PID.TID 0000.0001) %MON exf_swdown_del2              =   8.5934684892333E-01
(PID.TID 0000.0001) %MON exf_lwdown_max               =   3.0561793543081E+02
(PID.TID 0000.0001) %MON exf_lwdown_min               =   1.1589194395764E+02
(PID.TID 0000.0001) %MON exf_lwdown_mean              =   2.2583936565568E+02
(PID.TID 0000.0001) %MON exf_lwdown_sd                =   4.6305239399294E+01
(PID.TID 0000.0001) %MON exf_lwdown_del2              =   8.1675182607586E+00
(PID.TID 0000.0001) %MON exf_climsss_max              =   3.5041624116116E+01
(PID.TID 0000.0001) %MON exf_climsss_min              =   3.0671628467372E+01
(PID.TID 0000.0001) %MON exf_climsss_mean             =   3.3462968935345E+01
(PID.TID 0000.0001) %MON exf_climsss_sd               =   1.0314580197633E+00
(PID.TID 0000.0001) %MON exf_climsss_del2             =   2.6969273072472E-02
(PID.TID 0000.0001) // =======================================================
(PID.TID 0000.0001) // End MONITOR EXF statistics
(PID.TID 0000.0001) // =======================================================
 SEAICE_LSR: Residual Initial ipass,Uice,Vice=    1  2.29579018E-03  1.32456469E-03
 SEAICE_LSR: Residual FrDrift U_fd,V_fd=  2.17186632E+01  2.30552581E+00
 SEAICE_LSR (ipass=   1) iters,dU,Resid=   146  7.96151339E-13  8.58335308E-13
 SEAICE_LSR (ipass=   1) iters,dV,Resid=    90  7.58810115E-13  2.17782903E-11
 SEAICE_LSR: Residual Initial ipass,Uice,Vice=    2  7.10166689E-04  7.42891983E-04
 SEAICE_LSR: Residual FrDrift U_fd,V_fd=  2.17216902E+01  2.30544718E+00
 SEAICE_LSR (ipass=   2) iters,dU,Resid=   134  8.53529053E-13  9.05622786E-13
 SEAICE_LSR (ipass=   2) iters,dV,Resid=    82  9.99117889E-13  2.87024935E-11
 cg2d: Sum(rhs),rhsMax =  -7.64764751526315E-10  3.71069137949737E-01
(PID.TID 0000.0001)      cg2d_init_res =   4.67735804382790E-02
(PID.TID 0000.0001)      cg2d_iters(min,last) =      -1      41
(PID.TID 0000.0001)      cg2d_last_res =   7.02556343416503E-13
(PID.TID 0000.0001) // =======================================================
(PID.TID 0000.0001) // Begin MONITOR dynamic field statistics
(PID.TID 0000.0001) // =======================================================
(PID.TID 0000.0001) %MON time_tsnumber                =                     8
(PID.TID 0000.0001) %MON time_secondsf                =   2.8800000000000E+04
(PID.TID 0000.0001) %MON dynstat_eta_max              =   9.4707413689312E-02
(PID.TID 0000.0001) %MON dynstat_eta_min              =  -1.1944478774315E-01
(PID.TID 0000.0001) %MON dynstat_eta_mean             =   6.4141566684889E-12
(PID.TID 0000.0001) %MON dynstat_eta_sd               =   5.3776290730781E-02
(PID.TID 0000.0001) %MON dynstat_eta_del2             =   1.8052373978046E-03
(PID.TID 0000.0001) %MON dynstat_uvel_max             =   4.5850543316192E-02
(PID.TID 0000.0001) %MON dynstat_uvel_min             =  -5.4591772827992E-02
(PID.TID 0000.0001) %MON dynstat_uvel_mean            =   3.7870665168813E-05
(PID.TID 0000.0001) %MON dynstat_uvel_sd              =   5.4874989925621E-03
(PID.TID 0000.0001) %MON dynstat_uvel_del2            =   3.6939670633525E-04
(PID.TID 0000.0001) %MON dynstat_vvel_max             =   5.5786754803205E-02
(PID.TID 0000.0001) %MON dynstat_vvel_min             =  -1.3282813580378E-01
(PID.TID 0000.0001) %MON dynstat_vvel_mean            =   2.8796316968133E-05
(PID.TID 0000.0001) %MON dynstat_vvel_sd              =   5.8823597143203E-03
(PID.TID 0000.0001) %MON dynstat_vvel_del2            =   4.0838200173193E-04
(PID.TID 0000.0001) %MON dynstat_wvel_max             =   1.2164795991943E-04
(PID.TID 0000.0001) %MON dynstat_wvel_min             =  -1.0016430812268E-04
(PID.TID 0000.0001) %MON dynstat_wvel_mean            =   6.9202016898318E-22
(PID.TID 0000.0001) %MON dynstat_wvel_sd              =   2.4538716818970E-05
(PID.TID 0000.0001) %MON dynstat_wvel_del2            =   9.5258309083511E-07
(PID.TID 0000.0001) %MON dynstat_theta_max            =   1.2476480193830E+01
(PID.TID 0000.0001) %MON dynstat_theta_min            =  -1.8674538174391E+00
(PID.TID 0000.0001) %MON dynstat_theta_mean           =   3.0787330441904E+00
(PID.TID 0000.0001) %MON dynstat_theta_sd             =   1.4434531129040E+00
(PID.TID 0000.0001) %MON dynstat_theta_del2           =   1.7385221127412E-02
(PID.TID 0000.0001) %MON dynstat_salt_max             =   3.5292759205564E+01
(PID.TID 0000.0001) %MON dynstat_salt_min             =   3.0708259920919E+01
(PID.TID 0000.0001) %MON dynstat_salt_mean            =   3.4757116814404E+01
(PID.TID 0000.0001) %MON dynstat_salt_sd              =   4.3077251999923E-01
(PID.TID 0000.0001) %MON dynstat_salt_del2            =   3.9944908270994E-03
(PID.TID 0000.0001) %MON forcing_qnet_max             =   2.4487380157516E+02
(PID.TID 0000.0001) %MON forcing_qnet_min             =   1.5336531802232E+01
(PID.TID 0000.0001) %MON forcing_qnet_mean            =   9.3493264409682E+01
(PID.TID 0000.0001) %MON forcing_qnet_sd              =   5.9884773887506E+01
(PID.TID 0000.0001) %MON forcing_qnet_del2            =   3.9097523403241E+00
(PID.TID 0000.0001) %MON forcing_qsw_max              =  -3.3707488532889E-05
(PID.TID 0000.0001) %MON forcing_qsw_min              =  -6.4105206467675E+01
(PID.TID 0000.0001) %MON forcing_qsw_mean             =  -2.4447851941034E+01
(PID.TID 0000.0001) %MON forcing_qsw_sd               =   2.1203444389351E+01
(PID.TID 0000.0001) %MON forcing_qsw_del2             =   3.5521587093129E-01
(PID.TID 0000.0001) %MON forcing_empmr_max            =   4.9104439836073E-04
(PID.TID 0000.0001) %MON forcing_empmr_min            =  -8.7887227878811E-05
(PID.TID 0000.0001) %MON forcing_empmr_mean           =   3.7778806096273E-05
(PID.TID 0000.0001) %MON forcing_empmr_sd             =   1.1793557445124E-04
(PID.TID 0000.0001) %MON forcing_empmr_del2           =   1.3937107809832E-05
(PID.TID 0000.0001) %MON forcing_fu_max               =   6.3249324544011E-02
(PID.TID 0000.0001) %MON forcing_fu_min               =  -2.6812489223206E-02
(PID.TID 0000.0001) %MON forcing_fu_mean              =   2.5295048843327E-02
(PID.TID 0000.0001) %MON forcing_fu_sd                =   2.1648154834774E-02
(PID.TID 0000.0001) %MON forcing_fu_del2              =   7.3071279169538E-04
(PID.TID 0000.0001) %MON forcing_fv_max               =   1.4727982879875E-02
(PID.TID 0000.0001) %MON forcing_fv_min               =  -4.7549280501652E-02
(PID.TID 0000.0001) %MON forcing_fv_mean              =  -7.4776266799286E-03
(PID.TID 0000.0001) %MON forcing_fv_sd                =   1.5664759258693E-02
(PID.TID 0000.0001) %MON forcing_fv_del2              =   6.5401931303520E-04
(PID.TID 0000.0001) %MON trAdv_CFL_u_max              =   1.8229113560243E-03
(PID.TID 0000.0001) %MON trAdv_CFL_v_max              =   2.2124325067660E-03
(PID.TID 0000.0001) %MON trAdv_CFL_w_max              =   3.9335945061096E-03
(PID.TID 0000.0001) %MON advcfl_uvel_max              =   1.8228188090082E-03
(PID.TID 0000.0001) %MON advcfl_vvel_max              =   2.1501938232405E-03
(PID.TID 0000.0001) %MON advcfl_wvel_max              =   4.3706605623440E-03
(PID.TID 0000.0001) %MON advcfl_W_hf_max              =   5.0164062959330E-03
(PID.TID 0000.0001) %MON pe_b_mean                    =   9.5335473426471E-06
(PID.TID 0000.0001) %MON ke_max                       =   7.1717954327648E-03
(PID.TID 0000.0001) %MON ke_mean                      =   2.5363038203053E-05
(PID.TID 0000.0001) %MON ke_vol                       =   5.3036189546438E+15
(PID.TID 0000.0001) %MON vort_r_min                   =  -1.0834598233721E-06
(PID.TID 0000.0001) %MON vort_r_max                   =   6.8827903530054E-07
(PID.TID 0000.0001) %MON vort_a_mean                  =   1.2067278069165E-04
(PID.TID 0000.0001) %MON vort_a_sd                    =   8.8117619843541E-06
(PID.TID 0000.0001) %MON vort_p_mean                  =   1.7734843855442E-04
(PID.TID 0000.0001) %MON vort_p_sd                    =   1.1688589126835E-04
(PID.TID 0000.0001) %MON surfExpan_theta_mean         =  -1.3588453153784E-07
(PID.TID 0000.0001) %MON surfExpan_salt_mean          =  -6.9194106060303E-08
(PID.TID 0000.0001) // =======================================================
(PID.TID 0000.0001) // End MONITOR dynamic field statistics
(PID.TID 0000.0001) // =======================================================
(PID.TID 0000.0001) // =======================================================
(PID.TID 0000.0001) // Begin MONITOR SEAICE statistics
(PID.TID 0000.0001) // =======================================================
(PID.TID 0000.0001) %MON seaice_tsnumber              =                     8
(PID.TID 0000.0001) %MON seaice_time_sec              =   2.8800000000000E+04
(PID.TID 0000.0001) %MON seaice_uice_max              =   1.9746125874137E-01
(PID.TID 0000.0001) %MON seaice_uice_min              =  -1.2336984614207E-01
(PID.TID 0000.0001) %MON seaice_uice_mean             =   7.1285668724624E-02
(PID.TID 0000.0001) %MON seaice_uice_sd               =   7.0274782492112E-02
(PID.TID 0000.0001) %MON seaice_uice_del2             =   2.4010961977855E-03
(PID.TID 0000.0001) %MON seaice_vice_max              =   8.5003635332042E-02
(PID.TID 0000.0001) %MON seaice_vice_min              =  -2.0575484774221E-01
(PID.TID 0000.0001) %MON seaice_vice_mean             =  -3.2287178516695E-02
(PID.TID 0000.0001) %MON seaice_vice_sd               =   5.7990012771600E-02
(PID.TID 0000.0001) %MON seaice_vice_del2             =   3.0115381052309E-03
(PID.TID 0000.0001) %MON seaice_area_max              =   9.9952584371937E-01
(PID.TID 0000.0001) %MON seaice_area_min              =   0.0000000000000E+00
(PID.TID 0000.0001) %MON seaice_area_mean             =   3.2814094219892E-01
(PID.TID 0000.0001) %MON seaice_area_sd               =   4.4421632584725E-01
(PID.TID 0000.0001) %MON seaice_area_del2             =   2.0566684559822E-02
(PID.TID 0000.0001) %MON seaice_heff_max              =   1.6280773558208E+00
(PID.TID 0000.0001) %MON seaice_heff_min              =   0.0000000000000E+00
(PID.TID 0000.0001) %MON seaice_heff_mean             =   1.8785041447572E-01
(PID.TID 0000.0001) %MON seaice_heff_sd               =   3.5930045551744E-01
(PID.TID 0000.0001) %MON seaice_heff_del2             =   9.3438880676697E-03
(PID.TID 0000.0001) %MON seaice_hsnow_max             =   4.0266339211484E-01
(PID.TID 0000.0001) %MON seaice_hsnow_min             =   0.0000000000000E+00
(PID.TID 0000.0001) %MON seaice_hsnow_mean            =   3.5303738735870E-02
(PID.TID 0000.0001) %MON seaice_hsnow_sd              =   7.6734599909764E-02
(PID.TID 0000.0001) %MON seaice_hsnow_del2            =   2.5087688473506E-03
(PID.TID 0000.0001) %MON seaice_sitracer01_max        =   3.5216021977999E-06
(PID.TID 0000.0001) %MON seaice_sitracer01_min        =   0.0000000000000E+00
(PID.TID 0000.0001) %MON seaice_sitracer01_mean       =   8.5706288446388E-08
(PID.TID 0000.0001) %MON seaice_sitracer01_sd         =   4.0395964274825E-07
(PID.TID 0000.0001) %MON seaice_sitracer01_del2       =   6.3391102846970E-08
(PID.TID 0000.0001) %MON seaice_sitracer02_max        =   1.0277115447637E+01
(PID.TID 0000.0001) %MON seaice_sitracer02_min        =   0.0000000000000E+00
(PID.TID 0000.0001) %MON seaice_sitracer02_mean       =   3.1339034584067E-01
(PID.TID 0000.0001) %MON seaice_sitracer02_sd         =   1.2356590063839E+00
(PID.TID 0000.0001) %MON seaice_sitracer02_del2       =   2.2025530508613E-01
(PID.TID 0000.0001) // =======================================================
(PID.TID 0000.0001) // End MONITOR SEAICE statistics
(PID.TID 0000.0001) // =======================================================
(PID.TID 0000.0001) // =======================================================
(PID.TID 0000.0001) // Begin MONITOR EXF statistics
(PID.TID 0000.0001) // =======================================================
(PID.TID 0000.0001) %MON exf_tsnumber                 =                     8
(PID.TID 0000.0001) %MON exf_time_sec                 =   2.8800000000000E+04
(PID.TID 0000.0001) %MON exf_ustress_max              =   6.2682238625887E-02
(PID.TID 0000.0001) %MON exf_ustress_min              =  -9.3852089813651E-02
(PID.TID 0000.0001) %MON exf_ustress_mean             =   2.1973082677469E-02
(PID.TID 0000.0001) %MON exf_ustress_sd               =   2.6595419178710E-02
(PID.TID 0000.0001) %MON exf_ustress_del2             =   7.1532786264657E-04
(PID.TID 0000.0001) %MON exf_vstress_max              =   5.3865774114226E-02
(PID.TID 0000.0001) %MON exf_vstress_min              =  -5.9302754035921E-02
(PID.TID 0000.0001) %MON exf_vstress_mean             =  -5.3109705161245E-03
(PID.TID 0000.0001) %MON exf_vstress_sd               =   1.5047967482956E-02
(PID.TID 0000.0001) %MON exf_vstress_del2             =   5.0305019983189E-04
(PID.TID 0000.0001) %MON exf_hflux_max                =   6.3271153388868E+02
(PID.TID 0000.0001) %MON exf_hflux_min                =   8.9541330203787E+01
(PID.TID 0000.0001) %MON exf_hflux_mean               =   2.1901323069417E+02
(PID.TID 0000.0001) %MON exf_hflux_sd                 =   1.3410234543972E+02
(PID.TID 0000.0001) %MON exf_hflux_del2               =   1.3750479563934E+01
(PID.TID 0000.0001) %MON exf_sflux_max                =   4.0702681072436E-08
(PID.TID 0000.0001) %MON exf_sflux_min                =  -8.3639732780531E-08
(PID.TID 0000.0001) %MON exf_sflux_mean               =  -1.5751607059284E-08
(PID.TID 0000.0001) %MON exf_sflux_sd                 =   2.4399941594900E-08
(PID.TID 0000.0001) %MON exf_sflux_del2               =   1.6784324501887E-09
(PID.TID 0000.0001) %MON exf_uwind_max                =   6.4684341618272E+00
(PID.TID 0000.0001) %MON exf_uwind_min                =  -6.8374523269674E+00
(PID.TID 0000.0001) %MON exf_uwind_mean               =   2.7706331523584E+00
(PID.TID 0000.0001) %MON exf_uwind_sd                 =   2.9922491036980E+00
(PID.TID 0000.0001) %MON exf_uwind_del2               =   8.0270419655066E-02
(PID.TID 0000.0001) %MON exf_vwind_max                =   3.9243096588739E+00
(PID.TID 0000.0001) %MON exf_vwind_min                =  -6.0124561096150E+00
(PID.TID 0000.0001) %MON exf_vwind_mean               =  -7.5595649652871E-01
(PID.TID 0000.0001) %MON exf_vwind_sd                 =   1.7302112611018E+00
(PID.TID 0000.0001) %MON exf_vwind_del2               =   4.8608906280664E-02
(PID.TID 0000.0001) %MON exf_wspeed_max               =   7.8835880550853E+00
(PID.TID 0000.0001) %MON exf_wspeed_min               =   4.5840953253040E-01
(PID.TID 0000.0001) %MON exf_wspeed_mean              =   4.1989448725728E+00
(PID.TID 0000.0001) %MON exf_wspeed_sd                =   1.6012263903992E+00
(PID.TID 0000.0001) %MON exf_wspeed_del2              =   2.3644839425491E-01
(PID.TID 0000.0001) %MON exf_atemp_max                =   2.8186911527707E+02
(PID.TID 0000.0001) %MON exf_atemp_min                =   2.3642604936277E+02
(PID.TID 0000.0001) %MON exf_atemp_mean               =   2.6390890515856E+02
(PID.TID 0000.0001) %MON exf_atemp_sd                 =   1.1995115599497E+01
(PID.TID 0000.0001) %MON exf_atemp_del2               =   7.0764127833262E-01
(PID.TID 0000.0001) %MON exf_aqh_max                  =   6.3176006167781E-03
(PID.TID 0000.0001) %MON exf_aqh_min                  =   1.6293992018683E-04
(PID.TID 0000.0001) %MON exf_aqh_mean                 =   2.4758800589519E-03
(PID.TID 0000.0001) %MON exf_aqh_sd                   =   1.4256836550895E-03
(PID.TID 0000.0001) %MON exf_aqh_del2                 =   7.6328532645201E-05
(PID.TID 0000.0001) %MON exf_lwflux_max               =   1.8557372771591E+02
(PID.TID 0000.0001) %MON exf_lwflux_min               =   6.7058934875773E+01
(PID.TID 0000.0001) %MON exf_lwflux_mean              =   9.7832850938419E+01
(PID.TID 0000.0001) %MON exf_lwflux_sd                =   3.1020546748585E+01
(PID.TID 0000.0001) %MON exf_lwflux_del2              =   4.6200536231620E+00
(PID.TID 0000.0001) %MON exf_evap_max                 =   4.7021587209086E-08
(PID.TID 0000.0001) %MON exf_evap_min                 =   5.4932469888885E-09
(PID.TID 0000.0001) %MON exf_evap_mean                =   2.0638386731526E-08
(PID.TID 0000.0001) %MON exf_evap_sd                  =   6.9356629420989E-09
(PID.TID 0000.0001) %MON exf_evap_del2                =   1.0620931385068E-09
(PID.TID 0000.0001) %MON exf_precip_max               =   1.0499871454869E-07
(PID.TID 0000.0001) %MON exf_precip_min               =   2.7252357516229E-10
(PID.TID 0000.0001) %MON exf_precip_mean              =   3.6389993790810E-08
(PID.TID 0000.0001) %MON exf_precip_sd                =   2.0581769987393E-08
(PID.TID 0000.0001) %MON exf_precip_del2              =   1.6857225020784E-09
(PID.TID 0000.0001) %MON exf_swflux_max               =  -8.1208018494434E-02
(PID.TID 0000.0001) %MON exf_swflux_min               =  -6.4124076818247E+01
(PID.TID 0000.0001) %MON exf_swflux_mean              =  -2.6537480749947E+01
(PID.TID 0000.0001) %MON exf_swflux_sd                =   1.9656602581253E+01
(PID.TID 0000.0001) %MON exf_swflux_del2              =   7.7381449195700E-01
(PID.TID 0000.0001) %MON exf_swdown_max               =   7.1248974242497E+01
(PID.TID 0000.0001) %MON exf_swdown_min               =   9.0231131660482E-02
(PID.TID 0000.0001) %MON exf_swdown_mean              =   2.9486089722164E+01
(PID.TID 0000.0001) %MON exf_swdown_sd                =   2.1840669534725E+01
(PID.TID 0000.0001) %MON exf_swdown_del2              =   8.5979387995222E-01
(PID.TID 0000.0001) %MON exf_lwdown_max               =   3.0560910934698E+02
(PID.TID 0000.0001) %MON exf_lwdown_min               =   1.1587683707899E+02
(PID.TID 0000.0001) %MON exf_lwdown_mean              =   2.2582365832661E+02
(PID.TID 0000.0001) %MON exf_lwdown_sd                =   4.6309216947189E+01
(PID.TID 0000.0001) %MON exf_lwdown_del2              =   8.1665641819805E+00
(PID.TID 0000.0001) %MON exf_climsss_max              =   3.5041808863155E+01
(PID.TID 0000.0001) %MON exf_climsss_min              =   3.0672387795370E+01
(PID.TID 0000.0001) %MON exf_climsss_mean             =   3.3463490268825E+01
(PID.TID 0000.0001) %MON exf_climsss_sd               =   1.0313879583737E+00
(PID.TID 0000.0001) %MON exf_climsss_del2             =   2.6968424438251E-02
(PID.TID 0000.0001) // =======================================================
(PID.TID 0000.0001) // End MONITOR EXF statistics
(PID.TID 0000.0001) // =======================================================
 SEAICE_LSR: Residual Initial ipass,Uice,Vice=    1  2.25442282E-03  1.32130790E-03
 SEAICE_LSR: Residual FrDrift U_fd,V_fd=  2.16312250E+01  2.30226243E+00
 SEAICE_LSR (ipass=   1) iters,dU,Resid=   132  9.64721358E-13  1.01774354E-12
 SEAICE_LSR (ipass=   1) iters,dV,Resid=    88  8.14912807E-13  2.33815005E-11
 SEAICE_LSR: Residual Initial ipass,Uice,Vice=    2  6.60810351E-04  7.00932113E-04
 SEAICE_LSR: Residual FrDrift U_fd,V_fd=  2.16266676E+01  2.30191499E+00
 SEAICE_LSR (ipass=   2) iters,dU,Resid=   122  9.77405656E-13  1.03022965E-12
 SEAICE_LSR (ipass=   2) iters,dV,Resid=    86  8.60199498E-13  2.47043351E-11
 cg2d: Sum(rhs),rhsMax =  -7.65318031170636E-10  3.70801571157890E-01
(PID.TID 0000.0001)      cg2d_init_res =   4.24077475962476E-02
(PID.TID 0000.0001)      cg2d_iters(min,last) =      -1      41
(PID.TID 0000.0001)      cg2d_last_res =   4.93745615186681E-13
(PID.TID 0000.0001) // =======================================================
(PID.TID 0000.0001) // Begin MONITOR dynamic field statistics
(PID.TID 0000.0001) // =======================================================
(PID.TID 0000.0001) %MON time_tsnumber                =                     9
(PID.TID 0000.0001) %MON time_secondsf                =   3.2400000000000E+04
(PID.TID 0000.0001) %MON dynstat_eta_max              =   1.0172644187040E-01
(PID.TID 0000.0001) %MON dynstat_eta_min              =  -1.1982514095804E-01
(PID.TID 0000.0001) %MON dynstat_eta_mean             =   6.4141502437863E-12
(PID.TID 0000.0001) %MON dynstat_eta_sd               =   5.3878634137379E-02
(PID.TID 0000.0001) %MON dynstat_eta_del2             =   1.7948070794805E-03
(PID.TID 0000.0001) %MON dynstat_uvel_max             =   4.8585689356917E-02
(PID.TID 0000.0001) %MON dynstat_uvel_min             =  -5.7544661105452E-02
(PID.TID 0000.0001) %MON dynstat_uvel_mean            =   2.8091100566761E-05
(PID.TID 0000.0001) %MON dynstat_uvel_sd              =   5.9451753863074E-03
(PID.TID 0000.0001) %MON dynstat_uvel_del2            =   4.0290139182326E-04
(PID.TID 0000.0001) %MON dynstat_vvel_max             =   6.1307937607653E-02
(PID.TID 0000.0001) %MON dynstat_vvel_min             =  -1.3361190054775E-01
(PID.TID 0000.0001) %MON dynstat_vvel_mean            =   6.9768039870539E-05
(PID.TID 0000.0001) %MON dynstat_vvel_sd              =   6.5349724974262E-03
(PID.TID 0000.0001) %MON dynstat_vvel_del2            =   4.5249546524030E-04
(PID.TID 0000.0001) %MON dynstat_wvel_max             =   1.2831443977421E-04
(PID.TID 0000.0001) %MON dynstat_wvel_min             =  -1.1211608390743E-04
(PID.TID 0000.0001) %MON dynstat_wvel_mean            =  -7.9088019312364E-22
(PID.TID 0000.0001) %MON dynstat_wvel_sd              =   2.6432290021169E-05
(PID.TID 0000.0001) %MON dynstat_wvel_del2            =   1.0378963554014E-06
(PID.TID 0000.0001) %MON dynstat_theta_max            =   1.2476118747653E+01
(PID.TID 0000.0001) %MON dynstat_theta_min            =  -1.8687418109342E+00
(PID.TID 0000.0001) %MON dynstat_theta_mean           =   3.0786788523743E+00
(PID.TID 0000.0001) %MON dynstat_theta_sd             =   1.4433856517442E+00
(PID.TID 0000.0001) %MON dynstat_theta_del2           =   1.7378317121964E-02
(PID.TID 0000.0001) %MON dynstat_salt_max             =   3.5292739431647E+01
(PID.TID 0000.0001) %MON dynstat_salt_min             =   3.0708312896312E+01
(PID.TID 0000.0001) %MON dynstat_salt_mean            =   3.4757119224755E+01
(PID.TID 0000.0001) %MON dynstat_salt_sd              =   4.3078662500225E-01
(PID.TID 0000.0001) %MON dynstat_salt_del2            =   3.9998447360739E-03
(PID.TID 0000.0001) %MON forcing_qnet_max             =   2.4195967960294E+02
(PID.TID 0000.0001) %MON forcing_qnet_min             =   1.5123078037655E+01
(PID.TID 0000.0001) %MON forcing_qnet_mean            =   9.3363044127763E+01
(PID.TID 0000.0001) %MON forcing_qnet_sd              =   5.9973617585313E+01
(PID.TID 0000.0001) %MON forcing_qnet_del2            =   3.9148680021344E+00
(PID.TID 0000.0001) %MON forcing_qsw_max              =  -3.8812833100385E-05
(PID.TID 0000.0001) %MON forcing_qsw_min              =  -6.4124076818247E+01
(PID.TID 0000.0001) %MON forcing_qsw_mean             =  -2.4453063701935E+01
(PID.TID 0000.0001) %MON forcing_qsw_sd               =   2.1208882255620E+01
(PID.TID 0000.0001) %MON forcing_qsw_del2             =   3.5356873822047E-01
(PID.TID 0000.0001) %MON forcing_empmr_max            =   4.9027758348483E-04
(PID.TID 0000.0001) %MON forcing_empmr_min            =  -8.8838799687798E-05
(PID.TID 0000.0001) %MON forcing_empmr_mean           =   3.8050364487724E-05
(PID.TID 0000.0001) %MON forcing_empmr_sd             =   1.1799277286771E-04
(PID.TID 0000.0001) %MON forcing_empmr_del2           =   1.3883056284394E-05
(PID.TID 0000.0001) %MON forcing_fu_max               =   6.3292096166176E-02
(PID.TID 0000.0001) %MON forcing_fu_min               =  -2.6816210526500E-02
(PID.TID 0000.0001) %MON forcing_fu_mean              =   2.5306927867143E-02
(PID.TID 0000.0001) %MON forcing_fu_sd                =   2.1678753830214E-02
(PID.TID 0000.0001) %MON forcing_fu_del2              =   7.3935649754594E-04
(PID.TID 0000.0001) %MON forcing_fv_max               =   1.4731654104006E-02
(PID.TID 0000.0001) %MON forcing_fv_min               =  -4.8071948183789E-02
(PID.TID 0000.0001) %MON forcing_fv_mean              =  -7.4640444176127E-03
(PID.TID 0000.0001) %MON forcing_fv_sd                =   1.5702243053610E-02
(PID.TID 0000.0001) %MON forcing_fv_del2              =   6.5963080325076E-04
(PID.TID 0000.0001) %MON trAdv_CFL_u_max              =   1.9215132752368E-03
(PID.TID 0000.0001) %MON trAdv_CFL_v_max              =   2.2254871701226E-03
(PID.TID 0000.0001) %MON trAdv_CFL_w_max              =   4.0914261704648E-03
(PID.TID 0000.0001) %MON advcfl_uvel_max              =   1.9214157223200E-03
(PID.TID 0000.0001) %MON advcfl_vvel_max              =   2.1628812414682E-03
(PID.TID 0000.0001) %MON advcfl_wvel_max              =   4.5460290782942E-03
(PID.TID 0000.0001) %MON advcfl_W_hf_max              =   5.2133731254966E-03
(PID.TID 0000.0001) %MON pe_b_mean                    =   9.5698690798980E-06
(PID.TID 0000.0001) %MON ke_max                       =   7.2095679632140E-03
(PID.TID 0000.0001) %MON ke_mean                      =   3.0585572029507E-05
(PID.TID 0000.0001) %MON ke_vol                       =   5.3036189546438E+15
(PID.TID 0000.0001) %MON vort_r_min                   =  -1.0637667510161E-06
(PID.TID 0000.0001) %MON vort_r_max                   =   6.6310956750106E-07
(PID.TID 0000.0001) %MON vort_a_mean                  =   1.2067278118843E-04
(PID.TID 0000.0001) %MON vort_a_sd                    =   8.8117853499093E-06
(PID.TID 0000.0001) %MON vort_p_mean                  =   1.7734843928453E-04
(PID.TID 0000.0001) %MON vort_p_sd                    =   1.1688588970047E-04
(PID.TID 0000.0001) %MON surfExpan_theta_mean         =  -3.9660634317981E-07
(PID.TID 0000.0001) %MON surfExpan_salt_mean          =  -6.8922752668950E-08
(PID.TID 0000.0001) // =======================================================
(PID.TID 0000.0001) // End MONITOR dynamic field statistics
(PID.TID 0000.0001) // =======================================================
(PID.TID 0000.0001) // =======================================================
(PID.TID 0000.0001) // Begin MONITOR SEAICE statistics
(PID.TID 0000.0001) // =======================================================
(PID.TID 0000.0001) %MON seaice_tsnumber              =                     9
(PID.TID 0000.0001) %MON seaice_time_sec              =   3.2400000000000E+04
(PID.TID 0000.0001) %MON seaice_uice_max              =   1.9981928303367E-01
(PID.TID 0000.0001) %MON seaice_uice_min              =  -1.2428591295589E-01
(PID.TID 0000.0001) %MON seaice_uice_mean             =   7.1446513365654E-02
(PID.TID 0000.0001) %MON seaice_uice_sd               =   7.1536949854489E-02
(PID.TID 0000.0001) %MON seaice_uice_del2             =   2.5375485001600E-03
(PID.TID 0000.0001) %MON seaice_vice_max              =   8.8410722536426E-02
(PID.TID 0000.0001) %MON seaice_vice_min              =  -2.0865640913287E-01
(PID.TID 0000.0001) %MON seaice_vice_mean             =  -3.2119525135555E-02
(PID.TID 0000.0001) %MON seaice_vice_sd               =   5.9061374256472E-02
(PID.TID 0000.0001) %MON seaice_vice_del2             =   3.1625484612465E-03
(PID.TID 0000.0001) %MON seaice_area_max              =   9.9946583709865E-01
(PID.TID 0000.0001) %MON seaice_area_min              =   0.0000000000000E+00
(PID.TID 0000.0001) %MON seaice_area_mean             =   3.2826844201864E-01
(PID.TID 0000.0001) %MON seaice_area_sd               =   4.4405963439082E-01
(PID.TID 0000.0001) %MON seaice_area_del2             =   2.0484293180689E-02
(PID.TID 0000.0001) %MON seaice_heff_max              =   1.6282883501143E+00
(PID.TID 0000.0001) %MON seaice_heff_min              =   0.0000000000000E+00
(PID.TID 0000.0001) %MON seaice_heff_mean             =   1.8807879460335E-01
(PID.TID 0000.0001) %MON seaice_heff_sd               =   3.5934737821985E-01
(PID.TID 0000.0001) %MON seaice_heff_del2             =   9.3294759938847E-03
(PID.TID 0000.0001) %MON seaice_hsnow_max             =   4.0275898406298E-01
(PID.TID 0000.0001) %MON seaice_hsnow_min             =   0.0000000000000E+00
(PID.TID 0000.0001) %MON seaice_hsnow_mean            =   3.5354867920478E-02
(PID.TID 0000.0001) %MON seaice_hsnow_sd              =   7.6774570982133E-02
(PID.TID 0000.0001) %MON seaice_hsnow_del2            =   2.5113920511694E-03
(PID.TID 0000.0001) %MON seaice_sitracer01_max        =   3.5214154843958E-06
(PID.TID 0000.0001) %MON seaice_sitracer01_min        =   0.0000000000000E+00
(PID.TID 0000.0001) %MON seaice_sitracer01_mean       =   8.5705346494456E-08
(PID.TID 0000.0001) %MON seaice_sitracer01_sd         =   4.0394814876070E-07
(PID.TID 0000.0001) %MON seaice_sitracer01_del2       =   6.3387008713944E-08
(PID.TID 0000.0001) %MON seaice_sitracer02_max        =   1.0275223544893E+01
(PID.TID 0000.0001) %MON seaice_sitracer02_min        =   0.0000000000000E+00
(PID.TID 0000.0001) %MON seaice_sitracer02_mean       =   3.9187067545729E-01
(PID.TID 0000.0001) %MON seaice_sitracer02_sd         =   1.4994478657016E+00
(PID.TID 0000.0001) %MON seaice_sitracer02_del2       =   2.5827975116369E-01
(PID.TID 0000.0001) // =======================================================
(PID.TID 0000.0001) // End MONITOR SEAICE statistics
(PID.TID 0000.0001) // =======================================================
(PID.TID 0000.0001) // =======================================================
(PID.TID 0000.0001) // Begin MONITOR EXF statistics
(PID.TID 0000.0001) // =======================================================
(PID.TID 0000.0001) %MON exf_tsnumber                 =                     9
(PID.TID 0000.0001) %MON exf_time_sec                 =   3.2400000000000E+04
(PID.TID 0000.0001) %MON exf_ustress_max              =   6.2693413745795E-02
(PID.TID 0000.0001) %MON exf_ustress_min              =  -9.3854110408114E-02
(PID.TID 0000.0001) %MON exf_ustress_mean             =   2.1975510319452E-02
(PID.TID 0000.0001) %MON exf_ustress_sd               =   2.6599419856464E-02
(PID.TID 0000.0001) %MON exf_ustress_del2             =   7.1538607129834E-04
(PID.TID 0000.0001) %MON exf_vstress_max              =   5.3867137103833E-02
(PID.TID 0000.0001) %MON exf_vstress_min              =  -5.9275905056433E-02
(PID.TID 0000.0001) %MON exf_vstress_mean             =  -5.3062008899784E-03
(PID.TID 0000.0001) %MON exf_vstress_sd               =   1.5048923641137E-02
(PID.TID 0000.0001) %MON exf_vstress_del2             =   5.0304095817784E-04
(PID.TID 0000.0001) %MON exf_hflux_max                =   6.3275185106494E+02
(PID.TID 0000.0001) %MON exf_hflux_min                =   8.9536333180368E+01
(PID.TID 0000.0001) %MON exf_hflux_mean               =   2.1902505551477E+02
(PID.TID 0000.0001) %MON exf_hflux_sd                 =   1.3412404153134E+02
(PID.TID 0000.0001) %MON exf_hflux_del2               =   1.3753513467817E+01
(PID.TID 0000.0001) %MON exf_sflux_max                =   4.0701126589298E-08
(PID.TID 0000.0001) %MON exf_sflux_min                =  -8.3706771024280E-08
(PID.TID 0000.0001) %MON exf_sflux_mean               =  -1.5752867320401E-08
(PID.TID 0000.0001) %MON exf_sflux_sd                 =   2.4401817649988E-08
(PID.TID 0000.0001) %MON exf_sflux_del2               =   1.6787149079566E-09
(PID.TID 0000.0001) %MON exf_uwind_max                =   6.4689416142761E+00
(PID.TID 0000.0001) %MON exf_uwind_min                =  -6.8374791086697E+00
(PID.TID 0000.0001) %MON exf_uwind_mean               =   2.7707407047028E+00
(PID.TID 0000.0001) %MON exf_uwind_sd                 =   2.9925253914175E+00
(PID.TID 0000.0001) %MON exf_uwind_del2               =   8.0270246510978E-02
(PID.TID 0000.0001) %MON exf_vwind_max                =   3.9243398396695E+00
(PID.TID 0000.0001) %MON exf_vwind_min                =  -6.0115501997901E+00
(PID.TID 0000.0001) %MON exf_vwind_mean               =  -7.5533872343860E-01
(PID.TID 0000.0001) %MON exf_vwind_sd                 =   1.7303202080462E+00
(PID.TID 0000.0001) %MON exf_vwind_del2               =   4.8608798007434E-02
(PID.TID 0000.0001) %MON exf_wspeed_max               =   7.8836263063842E+00
(PID.TID 0000.0001) %MON exf_wspeed_min               =   4.5816671047235E-01
(PID.TID 0000.0001) %MON exf_wspeed_mean              =   4.1990483480424E+00
(PID.TID 0000.0001) %MON exf_wspeed_sd                =   1.6014836406520E+00
(PID.TID 0000.0001) %MON exf_wspeed_del2              =   2.3644598421351E-01
(PID.TID 0000.0001) %MON exf_atemp_max                =   2.8186740312420E+02
(PID.TID 0000.0001) %MON exf_atemp_min                =   2.3642158439511E+02
(PID.TID 0000.0001) %MON exf_atemp_mean               =   2.6390426107320E+02
(PID.TID 0000.0001) %MON exf_atemp_sd                 =   1.1996580029013E+01
(PID.TID 0000.0001) %MON exf_atemp_del2               =   7.0793932907625E-01
(PID.TID 0000.0001) %MON exf_aqh_max                  =   6.3169040759170E-03
(PID.TID 0000.0001) %MON exf_aqh_min                  =   1.6284581668843E-04
(PID.TID 0000.0001) %MON exf_aqh_mean                 =   2.4753197025473E-03
(PID.TID 0000.0001) %MON exf_aqh_sd                   =   1.4255808388841E-03
(PID.TID 0000.0001) %MON exf_aqh_del2                 =   7.6304693884960E-05
(PID.TID 0000.0001) %MON exf_lwflux_max               =   1.8558126635035E+02
(PID.TID 0000.0001) %MON exf_lwflux_min               =   6.7060866210377E+01
(PID.TID 0000.0001) %MON exf_lwflux_mean              =   9.7837222097359E+01
(PID.TID 0000.0001) %MON exf_lwflux_sd                =   3.1024919798889E+01
(PID.TID 0000.0001) %MON exf_lwflux_del2              =   4.6207168033148E+00
(PID.TID 0000.0001) %MON exf_evap_max                 =   4.7019370015017E-08
(PID.TID 0000.0001) %MON exf_evap_min                 =   5.4884301086877E-09
(PID.TID 0000.0001) %MON exf_evap_mean                =   2.0637115626375E-08
(PID.TID 0000.0001) %MON exf_evap_sd                  =   6.9346845279414E-09
(PID.TID 0000.0001) %MON exf_evap_del2                =   1.0621496322110E-09
(PID.TID 0000.0001) %MON exf_precip_max               =   1.0500009599131E-07
(PID.TID 0000.0001) %MON exf_precip_min               =   2.7238964868961E-10
(PID.TID 0000.0001) %MON exf_precip_mean              =   3.6389982946776E-08
(PID.TID 0000.0001) %MON exf_precip_sd                =   2.0582225664103E-08
(PID.TID 0000.0001) %MON exf_precip_del2              =   1.6859999992260E-09
(PID.TID 0000.0001) %MON exf_swflux_max               =  -8.1208301372215E-02
(PID.TID 0000.0001) %MON exf_swflux_min               =  -6.4142947168819E+01
(PID.TID 0000.0001) %MON exf_swflux_mean              =  -2.6548012965822E+01
(PID.TID 0000.0001) %MON exf_swflux_sd                =   1.9660442927159E+01
(PID.TID 0000.0001) %MON exf_swflux_del2              =   7.7421690409580E-01
(PID.TID 0000.0001) %MON exf_swdown_max               =   7.1269941298688E+01
(PID.TID 0000.0001) %MON exf_swdown_min               =   9.0231445969128E-02
(PID.TID 0000.0001) %MON exf_swdown_mean              =   2.9497792184247E+01
(PID.TID 0000.0001) %MON exf_swdown_sd                =   2.1844936585733E+01
(PID.TID 0000.0001) %MON exf_swdown_del2              =   8.6024100455089E-01
(PID.TID 0000.0001) %MON exf_lwdown_max               =   3.0560028326316E+02
(PID.TID 0000.0001) %MON exf_lwdown_min               =   1.1586173020035E+02
(PID.TID 0000.0001) %MON exf_lwdown_mean              =   2.2580795099755E+02
(PID.TID 0000.0001) %MON exf_lwdown_sd                =   4.6313195660870E+01
(PID.TID 0000.0001) %MON exf_lwdown_del2              =   8.1656101442334E+00
(PID.TID 0000.0001) %MON exf_climsss_max              =   3.5041993610194E+01
(PID.TID 0000.0001) %MON exf_climsss_min              =   3.0673147123368E+01
(PID.TID 0000.0001) %MON exf_climsss_mean             =   3.3464011602304E+01
(PID.TID 0000.0001) %MON exf_climsss_sd               =   1.0313181272348E+00
(PID.TID 0000.0001) %MON exf_climsss_del2             =   2.6967599003124E-02
(PID.TID 0000.0001) // =======================================================
(PID.TID 0000.0001) // End MONITOR EXF statistics
(PID.TID 0000.0001) // =======================================================
 SEAICE_LSR: Residual Initial ipass,Uice,Vice=    1  2.07363886E-03  1.39013986E-03
 SEAICE_LSR: Residual FrDrift U_fd,V_fd=  2.15248804E+01  2.29894630E+00
 SEAICE_LSR (ipass=   1) iters,dU,Resid=   126  8.39987802E-13  9.23207048E-13
 SEAICE_LSR (ipass=   1) iters,dV,Resid=    82  9.63151000E-13  2.76231150E-11
 SEAICE_LSR: Residual Initial ipass,Uice,Vice=    2  6.03355832E-04  6.94162496E-04
 SEAICE_LSR: Residual FrDrift U_fd,V_fd=  2.15164418E+01  2.29847169E+00
 SEAICE_LSR (ipass=   2) iters,dU,Resid=   116  7.76382431E-13  9.45824190E-13
 SEAICE_LSR (ipass=   2) iters,dV,Resid=    86  8.55238623E-13  2.45557293E-11
 cg2d: Sum(rhs),rhsMax =  -7.65592422791173E-10  3.70666952618155E-01
(PID.TID 0000.0001)      cg2d_init_res =   3.95043831372162E-02
(PID.TID 0000.0001)      cg2d_iters(min,last) =      -1      41
(PID.TID 0000.0001)      cg2d_last_res =   6.27602765532868E-13
(PID.TID 0000.0001) // =======================================================
(PID.TID 0000.0001) // Begin MONITOR dynamic field statistics
(PID.TID 0000.0001) // =======================================================
(PID.TID 0000.0001) %MON time_tsnumber                =                    10
(PID.TID 0000.0001) %MON time_secondsf                =   3.6000000000000E+04
(PID.TID 0000.0001) %MON dynstat_eta_max              =   1.0623766628727E-01
(PID.TID 0000.0001) %MON dynstat_eta_min              =  -1.2033942283492E-01
(PID.TID 0000.0001) %MON dynstat_eta_mean             =   6.4141746576562E-12
(PID.TID 0000.0001) %MON dynstat_eta_sd               =   5.3944371182159E-02
(PID.TID 0000.0001) %MON dynstat_eta_del2             =   1.7935974059210E-03
(PID.TID 0000.0001) %MON dynstat_uvel_max             =   5.0808076083184E-02
(PID.TID 0000.0001) %MON dynstat_uvel_min             =  -6.2562083889172E-02
(PID.TID 0000.0001) %MON dynstat_uvel_mean            =   2.6583206541463E-05
(PID.TID 0000.0001) %MON dynstat_uvel_sd              =   6.2675654905633E-03
(PID.TID 0000.0001) %MON dynstat_uvel_del2            =   4.2950309593074E-04
(PID.TID 0000.0001) %MON dynstat_vvel_max             =   6.6283103384837E-02
(PID.TID 0000.0001) %MON dynstat_vvel_min             =  -1.3217669423923E-01
(PID.TID 0000.0001) %MON dynstat_vvel_mean            =   8.2849001149342E-05
(PID.TID 0000.0001) %MON dynstat_vvel_sd              =   7.1573423181798E-03
(PID.TID 0000.0001) %MON dynstat_vvel_del2            =   4.9633775485283E-04
(PID.TID 0000.0001) %MON dynstat_wvel_max             =   1.3170149846534E-04
(PID.TID 0000.0001) %MON dynstat_wvel_min             =  -1.2282195864958E-04
(PID.TID 0000.0001) %MON dynstat_wvel_mean            =  -1.9772004828091E-22
(PID.TID 0000.0001) %MON dynstat_wvel_sd              =   2.7857175080709E-05
(PID.TID 0000.0001) %MON dynstat_wvel_del2            =   1.1105882004093E-06
(PID.TID 0000.0001) %MON dynstat_theta_max            =   1.2475753328585E+01
(PID.TID 0000.0001) %MON dynstat_theta_min            =  -1.8700137857661E+00
(PID.TID 0000.0001) %MON dynstat_theta_mean           =   3.0786250547652E+00
(PID.TID 0000.0001) %MON dynstat_theta_sd             =   1.4433169217316E+00
(PID.TID 0000.0001) %MON dynstat_theta_del2           =   1.7371291071761E-02
(PID.TID 0000.0001) %MON dynstat_salt_max             =   3.5292719652876E+01
(PID.TID 0000.0001) %MON dynstat_salt_min             =   3.0708368628133E+01
(PID.TID 0000.0001) %MON dynstat_salt_mean            =   3.4757121689807E+01
(PID.TID 0000.0001) %MON dynstat_salt_sd              =   4.3080094084763E-01
(PID.TID 0000.0001) %MON dynstat_salt_del2            =   4.0055920926657E-03
(PID.TID 0000.0001) %MON forcing_qnet_max             =   2.3885743656378E+02
(PID.TID 0000.0001) %MON forcing_qnet_min             =   1.4912096187334E+01
(PID.TID 0000.0001) %MON forcing_qnet_mean            =   9.3221865205576E+01
(PID.TID 0000.0001) %MON forcing_qnet_sd              =   6.0039517485226E+01
(PID.TID 0000.0001) %MON forcing_qnet_del2            =   3.9106516891534E+00
(PID.TID 0000.0001) %MON forcing_qsw_max              =  -4.3778502687044E-05
(PID.TID 0000.0001) %MON forcing_qsw_min              =  -6.4142947168819E+01
(PID.TID 0000.0001) %MON forcing_qsw_mean             =  -2.4458053873040E+01
(PID.TID 0000.0001) %MON forcing_qsw_sd               =   2.1214358379989E+01
(PID.TID 0000.0001) %MON forcing_qsw_del2             =   3.5193222904740E-01
(PID.TID 0000.0001) %MON forcing_empmr_max            =   4.8940913325897E-04
(PID.TID 0000.0001) %MON forcing_empmr_min            =  -8.5994415615035E-05
(PID.TID 0000.0001) %MON forcing_empmr_mean           =   3.8349242566087E-05
(PID.TID 0000.0001) %MON forcing_empmr_sd             =   1.1800748982702E-04
(PID.TID 0000.0001) %MON forcing_empmr_del2           =   1.3811880280221E-05
(PID.TID 0000.0001) %MON forcing_fu_max               =   6.3337689018325E-02
(PID.TID 0000.0001) %MON forcing_fu_min               =  -2.6820095921662E-02
(PID.TID 0000.0001) %MON forcing_fu_mean              =   2.5315924932727E-02
(PID.TID 0000.0001) %MON forcing_fu_sd                =   2.1698238248838E-02
(PID.TID 0000.0001) %MON forcing_fu_del2              =   7.4841585392516E-04
(PID.TID 0000.0001) %MON forcing_fv_max               =   1.4735320685118E-02
(PID.TID 0000.0001) %MON forcing_fv_min               =  -4.8496728422135E-02
(PID.TID 0000.0001) %MON forcing_fv_mean              =  -7.4521867710464E-03
(PID.TID 0000.0001) %MON forcing_fv_sd                =   1.5732524643950E-02
(PID.TID 0000.0001) %MON forcing_fv_del2              =   6.6506623387360E-04
(PID.TID 0000.0001) %MON trAdv_CFL_u_max              =   1.9664434052206E-03
(PID.TID 0000.0001) %MON trAdv_CFL_v_max              =   2.2015818651836E-03
(PID.TID 0000.0001) %MON trAdv_CFL_w_max              =   4.1360084903860E-03
(PID.TID 0000.0001) %MON advcfl_uvel_max              =   1.9663435712551E-03
(PID.TID 0000.0001) %MON advcfl_vvel_max              =   2.1396484247086E-03
(PID.TID 0000.0001) %MON advcfl_wvel_max              =   4.5955649893178E-03
(PID.TID 0000.0001) %MON advcfl_W_hf_max              =   5.2628191319570E-03
(PID.TID 0000.0001) %MON pe_b_mean                    =   9.5932356221295E-06
(PID.TID 0000.0001) %MON ke_max                       =   7.0162625573193E-03
(PID.TID 0000.0001) %MON ke_mean                      =   3.5458895904296E-05
(PID.TID 0000.0001) %MON ke_vol                       =   5.3036189546438E+15
(PID.TID 0000.0001) %MON vort_r_min                   =  -1.0369133033902E-06
(PID.TID 0000.0001) %MON vort_r_max                   =   6.1721383442609E-07
(PID.TID 0000.0001) %MON vort_a_mean                  =   1.2067278176635E-04
(PID.TID 0000.0001) %MON vort_a_sd                    =   8.8118160446428E-06
(PID.TID 0000.0001) %MON vort_p_mean                  =   1.7734844013387E-04
(PID.TID 0000.0001) %MON vort_p_sd                    =   1.1688583147034E-04
(PID.TID 0000.0001) %MON surfExpan_theta_mean         =  -5.2524242346271E-07
(PID.TID 0000.0001) %MON surfExpan_salt_mean          =  -7.8747070827706E-08
(PID.TID 0000.0001) // =======================================================
(PID.TID 0000.0001) // End MONITOR dynamic field statistics
(PID.TID 0000.0001) // =======================================================
(PID.TID 0000.0001) // Time-average data written, t-step        10
(PID.TID 0000.0001) 
(PID.TID 0000.0001) // =======================================================
(PID.TID 0000.0001) // Begin MONITOR SEAICE statistics
(PID.TID 0000.0001) // =======================================================
(PID.TID 0000.0001) %MON seaice_tsnumber              =                    10
(PID.TID 0000.0001) %MON seaice_time_sec              =   3.6000000000000E+04
(PID.TID 0000.0001) %MON seaice_uice_max              =   2.0177724497670E-01
(PID.TID 0000.0001) %MON seaice_uice_min              =  -1.2499952579579E-01
(PID.TID 0000.0001) %MON seaice_uice_mean             =   7.1688088469314E-02
(PID.TID 0000.0001) %MON seaice_uice_sd               =   7.2554660093563E-02
(PID.TID 0000.0001) %MON seaice_uice_del2             =   2.6602137803635E-03
(PID.TID 0000.0001) %MON seaice_vice_max              =   9.1783436530846E-02
(PID.TID 0000.0001) %MON seaice_vice_min              =  -2.0933141939586E-01
(PID.TID 0000.0001) %MON seaice_vice_mean             =  -3.1944185989478E-02
(PID.TID 0000.0001) %MON seaice_vice_sd               =   5.9747681112706E-02
(PID.TID 0000.0001) %MON seaice_vice_del2             =   3.3006397466486E-03
(PID.TID 0000.0001) %MON seaice_area_max              =   9.9940761527444E-01
(PID.TID 0000.0001) %MON seaice_area_min              =   0.0000000000000E+00
(PID.TID 0000.0001) %MON seaice_area_mean             =   3.2840198679623E-01
(PID.TID 0000.0001) %MON seaice_area_sd               =   4.4391177353649E-01
(PID.TID 0000.0001) %MON seaice_area_del2             =   2.0405310494183E-02
(PID.TID 0000.0001) %MON seaice_heff_max              =   1.6285028838895E+00
(PID.TID 0000.0001) %MON seaice_heff_min              =   0.0000000000000E+00
(PID.TID 0000.0001) %MON seaice_heff_mean             =   1.8830836219106E-01
(PID.TID 0000.0001) %MON seaice_heff_sd               =   3.5939614144681E-01
(PID.TID 0000.0001) %MON seaice_heff_del2             =   9.3150265785059E-03
(PID.TID 0000.0001) %MON seaice_hsnow_max             =   4.0285456978561E-01
(PID.TID 0000.0001) %MON seaice_hsnow_min             =   0.0000000000000E+00
(PID.TID 0000.0001) %MON seaice_hsnow_mean            =   3.5406037385435E-02
(PID.TID 0000.0001) %MON seaice_hsnow_sd              =   7.6814716970121E-02
(PID.TID 0000.0001) %MON seaice_hsnow_del2            =   2.5141135366344E-03
(PID.TID 0000.0001) %MON seaice_sitracer01_max        =   3.5212289841928E-06
(PID.TID 0000.0001) %MON seaice_sitracer01_min        =   0.0000000000000E+00
(PID.TID 0000.0001) %MON seaice_sitracer01_mean       =   8.5704499749340E-08
(PID.TID 0000.0001) %MON seaice_sitracer01_sd         =   4.0393707530697E-07
(PID.TID 0000.0001) %MON seaice_sitracer01_del2       =   6.3382927338984E-08
(PID.TID 0000.0001) %MON seaice_sitracer02_max        =   1.0273187036090E+01
(PID.TID 0000.0001) %MON seaice_sitracer02_min        =   0.0000000000000E+00
(PID.TID 0000.0001) %MON seaice_sitracer02_mean       =   4.1994688789882E-01
(PID.TID 0000.0001) %MON seaice_sitracer02_sd         =   1.5329981777223E+00
(PID.TID 0000.0001) %MON seaice_sitracer02_del2       =   2.6151369064591E-01
(PID.TID 0000.0001) // =======================================================
(PID.TID 0000.0001) // End MONITOR SEAICE statistics
(PID.TID 0000.0001) // =======================================================
(PID.TID 0000.0001) %CHECKPOINT        10 0000000010
(PID.TID 0000.0001)   Seconds in section "ALL                    [THE_MODEL_MAIN]":
(PID.TID 0000.0001)           User time:   2.2894299030303955
(PID.TID 0000.0001)         System time:   3.4892001189291477E-002
(PID.TID 0000.0001)     Wall clock time:   2.3260209560394287
(PID.TID 0000.0001)          No. starts:           1
(PID.TID 0000.0001)           No. stops:           1
(PID.TID 0000.0001)   Seconds in section "INITIALISE_FIXED       [THE_MODEL_MAIN]":
(PID.TID 0000.0001)           User time:   7.3129996657371521E-002
(PID.TID 0000.0001)         System time:   1.1142000555992126E-002
(PID.TID 0000.0001)     Wall clock time:   8.4284782409667969E-002
(PID.TID 0000.0001)          No. starts:           1
(PID.TID 0000.0001)           No. stops:           1
(PID.TID 0000.0001)   Seconds in section "THE_MAIN_LOOP          [THE_MODEL_MAIN]":
(PID.TID 0000.0001)           User time:   2.2162740230560303
(PID.TID 0000.0001)         System time:   2.3720001801848412E-002
(PID.TID 0000.0001)     Wall clock time:   2.2416899204254150
(PID.TID 0000.0001)          No. starts:           1
(PID.TID 0000.0001)           No. stops:           1
(PID.TID 0000.0001)   Seconds in section "INITIALISE_VARIA    [THE_MAIN_LOOP]":
(PID.TID 0000.0001)           User time:   3.4747004508972168E-002
(PID.TID 0000.0001)         System time:   1.1649999767541885E-002
(PID.TID 0000.0001)     Wall clock time:   4.6399116516113281E-002
(PID.TID 0000.0001)          No. starts:           1
(PID.TID 0000.0001)           No. stops:           1
(PID.TID 0000.0001)   Seconds in section "MAIN LOOP           [THE_MAIN_LOOP]":
(PID.TID 0000.0001)           User time:   2.1814939454197884
(PID.TID 0000.0001)         System time:   1.2065999209880829E-002
(PID.TID 0000.0001)     Wall clock time:   2.1952559947967529
(PID.TID 0000.0001)          No. starts:           1
(PID.TID 0000.0001)           No. stops:           1
(PID.TID 0000.0001)   Seconds in section "MAIN_DO_LOOP        [THE_MAIN_LOOP]":
(PID.TID 0000.0001)           User time:   2.1814190298318863
(PID.TID 0000.0001)         System time:   1.2064002454280853E-002
(PID.TID 0000.0001)     Wall clock time:   2.1951789855957031
(PID.TID 0000.0001)          No. starts:           9
(PID.TID 0000.0001)           No. stops:           9
(PID.TID 0000.0001)   Seconds in section "FORWARD_STEP        [MAIN_DO_LOOP]":
(PID.TID 0000.0001)           User time:   2.1812821999192238
(PID.TID 0000.0001)         System time:   1.2063000351190567E-002
(PID.TID 0000.0001)     Wall clock time:   2.1950411796569824
(PID.TID 0000.0001)          No. starts:           9
(PID.TID 0000.0001)           No. stops:           9
(PID.TID 0000.0001)   Seconds in section "LOAD_FIELDS_DRIVER  [FORWARD_STEP]":
(PID.TID 0000.0001)           User time:   1.8167957663536072E-002
(PID.TID 0000.0001)         System time:   6.9100037217140198E-004
(PID.TID 0000.0001)     Wall clock time:   1.8869161605834961E-002
(PID.TID 0000.0001)          No. starts:           9
(PID.TID 0000.0001)           No. stops:           9
(PID.TID 0000.0001)   Seconds in section "EXF_GETFORCING     [LOAD_FLDS_DRIVER]":
(PID.TID 0000.0001)           User time:   1.7853155732154846E-002
(PID.TID 0000.0001)         System time:   6.7699700593948364E-004
(PID.TID 0000.0001)     Wall clock time:   1.8547534942626953E-002
(PID.TID 0000.0001)          No. starts:           9
(PID.TID 0000.0001)           No. stops:           9
(PID.TID 0000.0001)   Seconds in section "EXTERNAL_FLDS_LOAD [LOAD_FLDS_DRIVER]":
(PID.TID 0000.0001)           User time:   8.5845589637756348E-005
(PID.TID 0000.0001)         System time:   6.9998204708099365E-006
(PID.TID 0000.0001)     Wall clock time:   9.1314315795898438E-005
(PID.TID 0000.0001)          No. starts:           9
(PID.TID 0000.0001)           No. stops:           9
(PID.TID 0000.0001)   Seconds in section "DO_ATMOSPHERIC_PHYS [FORWARD_STEP]":
(PID.TID 0000.0001)           User time:   6.4030289649963379E-005
(PID.TID 0000.0001)         System time:   2.9988586902618408E-006
(PID.TID 0000.0001)     Wall clock time:   6.6518783569335938E-005
(PID.TID 0000.0001)          No. starts:           9
(PID.TID 0000.0001)           No. stops:           9
(PID.TID 0000.0001)   Seconds in section "DO_OCEANIC_PHYS     [FORWARD_STEP]":
(PID.TID 0000.0001)           User time:   1.0287142023444176
(PID.TID 0000.0001)         System time:   3.7479996681213379E-003
(PID.TID 0000.0001)     Wall clock time:   1.0340836048126221
(PID.TID 0000.0001)          No. starts:           9
(PID.TID 0000.0001)           No. stops:           9
(PID.TID 0000.0001)   Seconds in section "SEAICE_MODEL    [DO_OCEANIC_PHYS]":
(PID.TID 0000.0001)           User time:  0.48985914140939713
(PID.TID 0000.0001)         System time:   1.5001744031906128E-005
(PID.TID 0000.0001)     Wall clock time:  0.49017477035522461
(PID.TID 0000.0001)          No. starts:           9
(PID.TID 0000.0001)           No. stops:           9
(PID.TID 0000.0001)   Seconds in section "SEAICE_DYNSOLVER   [SEAICE_MODEL]":
(PID.TID 0000.0001)           User time:  0.44987691938877106
(PID.TID 0000.0001)         System time:   9.0003013610839844E-006
(PID.TID 0000.0001)     Wall clock time:  0.45018887519836426
(PID.TID 0000.0001)          No. starts:           9
(PID.TID 0000.0001)           No. stops:           9
(PID.TID 0000.0001)   Seconds in section "KPP_CALC [DO_OCEANIC_PHYS]":
(PID.TID 0000.0001)           User time:  0.39781115949153900
(PID.TID 0000.0001)         System time:   3.7279985845088959E-003
(PID.TID 0000.0001)     Wall clock time:  0.40288567543029785
(PID.TID 0000.0001)          No. starts:          36
(PID.TID 0000.0001)           No. stops:          36
(PID.TID 0000.0001)   Seconds in section "DYNAMICS            [FORWARD_STEP]":
(PID.TID 0000.0001)           User time:  0.35263402760028839
(PID.TID 0000.0001)         System time:   0.0000000000000000
(PID.TID 0000.0001)     Wall clock time:  0.35270309448242188
(PID.TID 0000.0001)          No. starts:           9
(PID.TID 0000.0001)           No. stops:           9
(PID.TID 0000.0001)   Seconds in section "SOLVE_FOR_PRESSURE  [FORWARD_STEP]":
(PID.TID 0000.0001)           User time:   4.5966833829879761E-002
(PID.TID 0000.0001)         System time:   0.0000000000000000
(PID.TID 0000.0001)     Wall clock time:   4.5978546142578125E-002
(PID.TID 0000.0001)          No. starts:           9
(PID.TID 0000.0001)           No. stops:           9
(PID.TID 0000.0001)   Seconds in section "MOM_CORRECTION_STEP [FORWARD_STEP]":
(PID.TID 0000.0001)           User time:   1.5908747911453247E-002
(PID.TID 0000.0001)         System time:   0.0000000000000000
(PID.TID 0000.0001)     Wall clock time:   1.5916824340820312E-002
(PID.TID 0000.0001)          No. starts:           9
(PID.TID 0000.0001)           No. stops:           9
(PID.TID 0000.0001)   Seconds in section "INTEGR_CONTINUITY   [FORWARD_STEP]":
(PID.TID 0000.0001)           User time:   8.7481737136840820E-003
(PID.TID 0000.0001)         System time:   0.0000000000000000
(PID.TID 0000.0001)     Wall clock time:   8.7509155273437500E-003
(PID.TID 0000.0001)          No. starts:           9
(PID.TID 0000.0001)           No. stops:           9
(PID.TID 0000.0001)   Seconds in section "BLOCKING_EXCHANGES  [FORWARD_STEP]":
(PID.TID 0000.0001)           User time:   3.2237976789474487E-002
(PID.TID 0000.0001)         System time:   0.0000000000000000
(PID.TID 0000.0001)     Wall clock time:   3.2246351242065430E-002
(PID.TID 0000.0001)          No. starts:          18
(PID.TID 0000.0001)           No. stops:          18
(PID.TID 0000.0001)   Seconds in section "THERMODYNAMICS      [FORWARD_STEP]":
(PID.TID 0000.0001)           User time:  0.53743702173233032
(PID.TID 0000.0001)         System time:   3.8270018994808197E-003
(PID.TID 0000.0001)     Wall clock time:  0.54130601882934570
(PID.TID 0000.0001)          No. starts:           9
(PID.TID 0000.0001)           No. stops:           9
(PID.TID 0000.0001)   Seconds in section "TRC_CORRECTION_STEP [FORWARD_STEP]":
(PID.TID 0000.0001)           User time:   7.8767538070678711E-005
(PID.TID 0000.0001)         System time:   0.0000000000000000
(PID.TID 0000.0001)     Wall clock time:   6.7949295043945312E-005
(PID.TID 0000.0001)          No. starts:           9
(PID.TID 0000.0001)           No. stops:           9
(PID.TID 0000.0001)   Seconds in section "DO_STATEVARS_TAVE   [FORWARD_STEP]":
(PID.TID 0000.0001)           User time:   3.4607112407684326E-002
(PID.TID 0000.0001)         System time:   0.0000000000000000
(PID.TID 0000.0001)     Wall clock time:   3.4621238708496094E-002
(PID.TID 0000.0001)          No. starts:           9
(PID.TID 0000.0001)           No. stops:           9
(PID.TID 0000.0001)   Seconds in section "MONITOR             [FORWARD_STEP]":
(PID.TID 0000.0001)           User time:   6.1916023492813110E-002
(PID.TID 0000.0001)         System time:   0.0000000000000000
(PID.TID 0000.0001)     Wall clock time:   6.1924695968627930E-002
(PID.TID 0000.0001)          No. starts:           9
(PID.TID 0000.0001)           No. stops:           9
(PID.TID 0000.0001)   Seconds in section "DO_THE_MODEL_IO     [FORWARD_STEP]":
(PID.TID 0000.0001)           User time:   3.9827048778533936E-002
(PID.TID 0000.0001)         System time:   3.7829987704753876E-003
(PID.TID 0000.0001)     Wall clock time:   4.3627262115478516E-002
(PID.TID 0000.0001)          No. starts:           9
(PID.TID 0000.0001)           No. stops:           9
(PID.TID 0000.0001)   Seconds in section "DO_WRITE_PICKUP     [FORWARD_STEP]":
(PID.TID 0000.0001)           User time:   3.6792457103729248E-003
(PID.TID 0000.0001)         System time:   0.0000000000000000
(PID.TID 0000.0001)     Wall clock time:   3.6802291870117188E-003
(PID.TID 0000.0001)          No. starts:           9
(PID.TID 0000.0001)           No. stops:           9
(PID.TID 0000.0001) // ======================================================
(PID.TID 0000.0001) // Tile <-> Tile communication statistics
(PID.TID 0000.0001) // ======================================================
(PID.TID 0000.0001) // o Tile number: 000001
(PID.TID 0000.0001) //         No. X exchanges =              0
(PID.TID 0000.0001) //            Max. X spins =              0
(PID.TID 0000.0001) //            Min. X spins =     1000000000
(PID.TID 0000.0001) //          Total. X spins =              0
(PID.TID 0000.0001) //            Avg. X spins =       0.00E+00
(PID.TID 0000.0001) //         No. Y exchanges =              0
(PID.TID 0000.0001) //            Max. Y spins =              0
(PID.TID 0000.0001) //            Min. Y spins =     1000000000
(PID.TID 0000.0001) //          Total. Y spins =              0
(PID.TID 0000.0001) //            Avg. Y spins =       0.00E+00
(PID.TID 0000.0001) // o Tile number: 000002
(PID.TID 0000.0001) //         No. X exchanges =              0
(PID.TID 0000.0001) //            Max. X spins =              0
(PID.TID 0000.0001) //            Min. X spins =     1000000000
(PID.TID 0000.0001) //          Total. X spins =              0
(PID.TID 0000.0001) //            Avg. X spins =       0.00E+00
(PID.TID 0000.0001) //         No. Y exchanges =              0
(PID.TID 0000.0001) //            Max. Y spins =              0
(PID.TID 0000.0001) //            Min. Y spins =     1000000000
(PID.TID 0000.0001) //          Total. Y spins =              0
(PID.TID 0000.0001) //            Avg. Y spins =       0.00E+00
(PID.TID 0000.0001) // o Tile number: 000003
(PID.TID 0000.0001) //         No. X exchanges =              0
(PID.TID 0000.0001) //            Max. X spins =              0
(PID.TID 0000.0001) //            Min. X spins =     1000000000
(PID.TID 0000.0001) //          Total. X spins =              0
(PID.TID 0000.0001) //            Avg. X spins =       0.00E+00
(PID.TID 0000.0001) //         No. Y exchanges =              0
(PID.TID 0000.0001) //            Max. Y spins =              0
(PID.TID 0000.0001) //            Min. Y spins =     1000000000
(PID.TID 0000.0001) //          Total. Y spins =              0
(PID.TID 0000.0001) //            Avg. Y spins =       0.00E+00
(PID.TID 0000.0001) // o Tile number: 000004
(PID.TID 0000.0001) //         No. X exchanges =              0
(PID.TID 0000.0001) //            Max. X spins =              0
(PID.TID 0000.0001) //            Min. X spins =     1000000000
(PID.TID 0000.0001) //          Total. X spins =              0
(PID.TID 0000.0001) //            Avg. X spins =       0.00E+00
(PID.TID 0000.0001) //         No. Y exchanges =              0
(PID.TID 0000.0001) //            Max. Y spins =              0
(PID.TID 0000.0001) //            Min. Y spins =     1000000000
(PID.TID 0000.0001) //          Total. Y spins =              0
(PID.TID 0000.0001) //            Avg. Y spins =       0.00E+00
(PID.TID 0000.0001) // o Thread number: 000001
(PID.TID 0000.0001) //            No. barriers =          14684
(PID.TID 0000.0001) //      Max. barrier spins =              1
(PID.TID 0000.0001) //      Min. barrier spins =              1
(PID.TID 0000.0001) //     Total barrier spins =          14684
(PID.TID 0000.0001) //      Avg. barrier spins =       1.00E+00
PROGRAM MAIN: Execution ended Normally
